MODEL 1
REMARK VINA RESULT:     -12.0      0.000      0.000
REMARK  Name = 9811834
REMARK  13 active torsions:
REMARK  status: ('A' for Active; 'I' for Inactive)
REMARK    1  A    between atoms: C_1  and  N_3
REMARK    2  A    between atoms: C_1  and  C_12
REMARK    3  A    between atoms: C_1  and  C_20
REMARK    4  A    between atoms: C_4  and  C_6
REMARK    5  A    between atoms: C_6  and  C_7
REMARK    6  A    between atoms: C_7  and  C_9
REMARK    7  A    between atoms: C_9  and  O_10
REMARK    8  A    between atoms: C_12  and  C_13
REMARK    9  A    between atoms: C_13  and  C_16
REMARK   10  A    between atoms: C_16  and  O_17
REMARK   11  A    between atoms: O_17  and  C_18
REMARK   12  A    between atoms: C_20  and  C_21
REMARK   13  A    between atoms: C_24  and  C_27
REMARK                            x       y       z     vdW  Elec       q    Type
REMARK                         _______ _______ _______ _____ _____    ______ ____
ROOT
ATOM      1  C   UNL     1      33.238 -22.396 -16.162  0.00  0.00    +0.076 C 
ENDROOT
BRANCH   1   3
ATOM      2  O   UNL     1      30.473 -21.944 -16.886  0.00  0.00    -0.275 OA
ATOM      3  N   UNL     1      32.084 -23.143 -15.716  0.00  0.00    -0.306 N 
ATOM      4  C   UNL     1      30.791 -22.851 -16.121  0.00  0.00    +0.223 C 
ATOM      5  H   UNL     1      32.223 -23.896 -15.096  0.00  0.00    +0.149 HD
BRANCH   4   6
ATOM      6  C   UNL     1      29.783 -23.798 -15.493  0.00  0.00    +0.097 C 
BRANCH   6   7
ATOM      7  C   UNL     1      28.430 -23.135 -15.256  0.00  0.00    +0.119 C 
BRANCH   7   9
ATOM      8  O   UNL     1      27.194 -23.837 -17.233  0.00  0.00    -0.250 OA
ATOM      9  C   UNL     1      27.663 -22.941 -16.544  0.00  0.00    +0.314 C 
BRANCH   9  10
ATOM     10  O   UNL     1      27.546 -21.625 -16.858  0.00  0.00    -0.480 OA
ATOM     11  H   UNL     1      26.806 -21.135 -16.555  0.00  0.00    +0.295 HD
ENDBRANCH   9  10
ENDBRANCH   7   9
ENDBRANCH   6   7
ENDBRANCH   4   6
ENDBRANCH   1   3
BRANCH   1  12
ATOM     12  C   UNL     1      34.374 -22.481 -15.124  0.00  0.00    +0.031 C 
BRANCH  12  13
ATOM     13  C   UNL     1      35.725 -22.934 -15.706  0.00  0.00    +0.101 C 
ATOM     14  C   UNL     1      36.787 -21.850 -15.527  0.00  0.00    +0.012 C 
BRANCH  13  16
ATOM     15  O   UNL     1      35.592 -25.265 -15.033  0.00  0.00    -0.250 OA
ATOM     16  C   UNL     1      36.201 -24.203 -15.019  0.00  0.00    +0.316 C 
BRANCH  16  17
ATOM     17  O   UNL     1      37.401 -23.975 -14.411  0.00  0.00    -0.449 OA
BRANCH  17  18
ATOM     18  C   UNL     1      38.253 -25.118 -14.283  0.00  0.00    +0.209 C 
ATOM     19  C   UNL     1      39.675 -24.712 -14.606  0.00  0.00    +0.051 C 
ENDBRANCH  17  18
ENDBRANCH  16  17
ENDBRANCH  13  16
ENDBRANCH  12  13
ENDBRANCH   1  12
BRANCH   1  20
ATOM     20  C   UNL     1      33.726 -22.915 -17.527  0.00  0.00    +0.046 C 
BRANCH  20  21
ATOM     21  C   UNL     1      33.858 -21.823 -18.562  0.00  0.00    -0.021 C 
ATOM     22  C   UNL     1      35.123 -21.391 -18.963  0.00  0.00    -0.004 C 
ATOM     23  C   UNL     1      32.716 -21.246 -19.118  0.00  0.00    -0.004 C 
ATOM     24  C   UNL     1      34.104 -19.805 -20.474  0.00  0.00    -0.000 C 
ATOM     25  C   UNL     1      35.245 -20.382 -19.918  0.00  0.00    -0.000 C 
ATOM     26  C   UNL     1      32.839 -20.237 -20.073  0.00  0.00    -0.000 C 
BRANCH  24  27
ATOM     27  C   UNL     1      34.230 -18.759 -21.464  0.00  0.00    -0.000 C 
ATOM     28  C   UNL     1      33.813 -18.986 -22.775  0.00  0.00    -0.000 C 
ATOM     29  C   UNL     1      34.768 -17.522 -21.108  0.00  0.00    -0.000 C 
ATOM     30  C   UNL     1      33.934 -17.978 -23.731  0.00  0.00    +0.000 C 
ATOM     31  C   UNL     1      34.890 -16.514 -22.063  0.00  0.00    +0.000 C 
ATOM     32  C   UNL     1      34.472 -16.741 -23.375  0.00  0.00    +0.000 C 
ENDBRANCH  24  27
ENDBRANCH  20  21
ENDBRANCH   1  20
TORSDOF 13
ENDMDL
MODEL 2
REMARK VINA RESULT:     -11.5      1.414      1.832
REMARK  Name = 9811834
REMARK  13 active torsions:
REMARK  status: ('A' for Active; 'I' for Inactive)
REMARK    1  A    between atoms: C_1  and  N_3
REMARK    2  A    between atoms: C_1  and  C_12
REMARK    3  A    between atoms: C_1  and  C_20
REMARK    4  A    between atoms: C_4  and  C_6
REMARK    5  A    between atoms: C_6  and  C_7
REMARK    6  A    between atoms: C_7  and  C_9
REMARK    7  A    between atoms: C_9  and  O_10
REMARK    8  A    between atoms: C_12  and  C_13
REMARK    9  A    between atoms: C_13  and  C_16
REMARK   10  A    between atoms: C_16  and  O_17
REMARK   11  A    between atoms: O_17  and  C_18
REMARK   12  A    between atoms: C_20  and  C_21
REMARK   13  A    between atoms: C_24  and  C_27
REMARK                            x       y       z     vdW  Elec       q    Type
REMARK                         _______ _______ _______ _____ _____    ______ ____
ROOT
ATOM      1  C   UNL     1      33.469 -22.262 -16.226  0.00  0.00    +0.076 C 
ENDROOT
BRANCH   1   3
ATOM      2  O   UNL     1      30.656 -22.082 -16.881  0.00  0.00    -0.275 OA
ATOM      3  N   UNL     1      32.406 -23.126 -15.763  0.00  0.00    -0.306 N 
ATOM      4  C   UNL     1      31.081 -22.960 -16.134  0.00  0.00    +0.223 C 
ATOM      5  H   UNL     1      32.634 -23.867 -15.156  0.00  0.00    +0.149 HD
BRANCH   4   6
ATOM      6  C   UNL     1      30.188 -24.009 -15.495  0.00  0.00    +0.097 C 
BRANCH   6   7
ATOM      7  C   UNL     1      29.491 -23.494 -14.239  0.00  0.00    +0.119 C 
BRANCH   7   9
ATOM      8  O   UNL     1      31.296 -22.897 -12.718  0.00  0.00    -0.250 OA
ATOM      9  C   UNL     1      30.364 -23.632 -13.012  0.00  0.00    +0.314 C 
BRANCH   9  10
ATOM     10  O   UNL     1      29.983 -24.691 -12.250  0.00  0.00    -0.480 OA
ATOM     11  H   UNL     1      29.274 -24.601 -11.644  0.00  0.00    +0.295 HD
ENDBRANCH   9  10
ENDBRANCH   7   9
ENDBRANCH   6   7
ENDBRANCH   4   6
ENDBRANCH   1   3
BRANCH   1  12
ATOM     12  C   UNL     1      34.595 -22.177 -15.178  0.00  0.00    +0.031 C 
BRANCH  12  13
ATOM     13  C   UNL     1      35.914 -22.838 -15.616  0.00  0.00    +0.101 C 
ATOM     14  C   UNL     1      37.012 -21.791 -15.806  0.00  0.00    +0.012 C 
BRANCH  13  16
ATOM     15  O   UNL     1      35.647 -24.685 -14.061  0.00  0.00    -0.250 OA
ATOM     16  C   UNL     1      36.374 -23.846 -14.577  0.00  0.00    +0.316 C 
BRANCH  16  17
ATOM     17  O   UNL     1      37.706 -23.680 -14.331  0.00  0.00    -0.449 OA
BRANCH  17  18
ATOM     18  C   UNL     1      38.451 -24.885 -14.134  0.00  0.00    +0.209 C 
ATOM     19  C   UNL     1      39.801 -24.745 -14.806  0.00  0.00    +0.051 C 
ENDBRANCH  17  18
ENDBRANCH  16  17
ENDBRANCH  13  16
ENDBRANCH  12  13
ENDBRANCH   1  12
BRANCH   1  20
ATOM     20  C   UNL     1      34.030 -22.765 -17.569  0.00  0.00    +0.046 C 
BRANCH  20  21
ATOM     21  C   UNL     1      34.086 -21.690 -18.627  0.00  0.00    -0.021 C 
ATOM     22  C   UNL     1      35.319 -21.200 -19.060  0.00  0.00    -0.004 C 
ATOM     23  C   UNL     1      32.906 -21.185 -19.172  0.00  0.00    -0.004 C 
ATOM     24  C   UNL     1      34.191 -19.702 -20.582  0.00  0.00    -0.000 C 
ATOM     25  C   UNL     1      35.371 -20.206 -20.037  0.00  0.00    -0.000 C 
ATOM     26  C   UNL     1      32.958 -20.191 -20.149  0.00  0.00    -0.000 C 
BRANCH  24  27
ATOM     27  C   UNL     1      34.245 -18.670 -21.595  0.00  0.00    -0.000 C 
ATOM     28  C   UNL     1      33.799 -18.941 -22.889  0.00  0.00    -0.000 C 
ATOM     29  C   UNL     1      34.741 -17.406 -21.278  0.00  0.00    -0.000 C 
ATOM     30  C   UNL     1      33.850 -17.947 -23.866  0.00  0.00    +0.000 C 
ATOM     31  C   UNL     1      34.792 -16.412 -22.255  0.00  0.00    +0.000 C 
ATOM     32  C   UNL     1      34.346 -16.682 -23.549  0.00  0.00    +0.000 C 
ENDBRANCH  24  27
ENDBRANCH  20  21
ENDBRANCH   1  20
TORSDOF 13
ENDMDL
MODEL 3
REMARK VINA RESULT:     -10.7      1.431      1.989
REMARK  Name = 9811834
REMARK  13 active torsions:
REMARK  status: ('A' for Active; 'I' for Inactive)
REMARK    1  A    between atoms: C_1  and  N_3
REMARK    2  A    between atoms: C_1  and  C_12
REMARK    3  A    between atoms: C_1  and  C_20
REMARK    4  A    between atoms: C_4  and  C_6
REMARK    5  A    between atoms: C_6  and  C_7
REMARK    6  A    between atoms: C_7  and  C_9
REMARK    7  A    between atoms: C_9  and  O_10
REMARK    8  A    between atoms: C_12  and  C_13
REMARK    9  A    between atoms: C_13  and  C_16
REMARK   10  A    between atoms: C_16  and  O_17
REMARK   11  A    between atoms: O_17  and  C_18
REMARK   12  A    between atoms: C_20  and  C_21
REMARK   13  A    between atoms: C_24  and  C_27
REMARK                            x       y       z     vdW  Elec       q    Type
REMARK                         _______ _______ _______ _____ _____    ______ ____
ROOT
ATOM      1  C   UNL     1      32.713 -22.696 -15.441  0.00  0.00    +0.076 C 
ENDROOT
BRANCH   1   3
ATOM      2  O   UNL     1      30.541 -24.494 -14.789  0.00  0.00    -0.275 OA
ATOM      3  N   UNL     1      31.323 -22.353 -15.245  0.00  0.00    -0.306 N 
ATOM      4  C   UNL     1      30.349 -23.289 -14.932  0.00  0.00    +0.223 C 
ATOM      5  H   UNL     1      31.054 -21.410 -15.337  0.00  0.00    +0.149 HD
BRANCH   4   6
ATOM      6  C   UNL     1      28.982 -22.644 -14.787  0.00  0.00    +0.097 C 
BRANCH   6   7
ATOM      7  C   UNL     1      28.528 -21.948 -16.067  0.00  0.00    +0.119 C 
BRANCH   7   9
ATOM      8  O   UNL     1      26.928 -22.971 -17.590  0.00  0.00    -0.250 OA
ATOM      9  C   UNL     1      27.169 -22.431 -16.519  0.00  0.00    +0.314 C 
BRANCH   9  10
ATOM     10  O   UNL     1      26.219 -22.196 -15.577  0.00  0.00    -0.480 OA
ATOM     11  H   UNL     1      25.327 -22.065 -15.832  0.00  0.00    +0.295 HD
ENDBRANCH   9  10
ENDBRANCH   7   9
ENDBRANCH   6   7
ENDBRANCH   4   6
ENDBRANCH   1   3
BRANCH   1  12
ATOM     12  C   UNL     1      33.196 -23.660 -14.340  0.00  0.00    +0.031 C 
BRANCH  12  13
ATOM     13  C   UNL     1      34.600 -23.342 -13.797  0.00  0.00    +0.101 C 
ATOM     14  C   UNL     1      34.655 -23.531 -12.281  0.00  0.00    +0.012 C 
BRANCH  13  16
ATOM     15  O   UNL     1      35.900 -25.378 -14.056  0.00  0.00    -0.250 OA
ATOM     16  C   UNL     1      35.637 -24.246 -14.441  0.00  0.00    +0.316 C 
BRANCH  16  17
ATOM     17  O   UNL     1      36.204 -23.611 -15.508  0.00  0.00    -0.449 OA
BRANCH  17  18
ATOM     18  C   UNL     1      37.350 -22.809 -15.209  0.00  0.00    +0.209 C 
ATOM     19  C   UNL     1      37.246 -21.499 -15.961  0.00  0.00    +0.051 C 
ENDBRANCH  17  18
ENDBRANCH  16  17
ENDBRANCH  13  16
ENDBRANCH  12  13
ENDBRANCH   1  12
BRANCH   1  20
ATOM     20  C   UNL     1      32.924 -23.328 -16.829  0.00  0.00    +0.046 C 
BRANCH  20  21
ATOM     21  C   UNL     1      33.376 -22.332 -17.870  0.00  0.00    -0.021 C 
ATOM     22  C   UNL     1      34.738 -22.139 -18.106  0.00  0.00    -0.004 C 
ATOM     23  C   UNL     1      32.433 -21.606 -18.596  0.00  0.00    -0.004 C 
ATOM     24  C   UNL     1      34.212 -20.492 -19.793  0.00  0.00    -0.000 C 
ATOM     25  C   UNL     1      35.155 -21.219 -19.067  0.00  0.00    -0.000 C 
ATOM     26  C   UNL     1      32.851 -20.685 -19.557  0.00  0.00    -0.000 C 
BRANCH  24  27
ATOM     27  C   UNL     1      34.645 -19.537 -20.790  0.00  0.00    -0.000 C 
ATOM     28  C   UNL     1      35.894 -18.927 -20.674  0.00  0.00    -0.000 C 
ATOM     29  C   UNL     1      33.815 -19.226 -21.867  0.00  0.00    -0.000 C 
ATOM     30  C   UNL     1      36.313 -18.006 -21.634  0.00  0.00    +0.000 C 
ATOM     31  C   UNL     1      34.233 -18.306 -22.827  0.00  0.00    +0.000 C 
ATOM     32  C   UNL     1      35.482 -17.696 -22.711  0.00  0.00    +0.000 C 
ENDBRANCH  24  27
ENDBRANCH  20  21
ENDBRANCH   1  20
TORSDOF 13
ENDMDL
MODEL 4
REMARK VINA RESULT:      -9.7      9.517     14.275
REMARK  Name = 9811834
REMARK  13 active torsions:
REMARK  status: ('A' for Active; 'I' for Inactive)
REMARK    1  A    between atoms: C_1  and  N_3
REMARK    2  A    between atoms: C_1  and  C_12
REMARK    3  A    between atoms: C_1  and  C_20
REMARK    4  A    between atoms: C_4  and  C_6
REMARK    5  A    between atoms: C_6  and  C_7
REMARK    6  A    between atoms: C_7  and  C_9
REMARK    7  A    between atoms: C_9  and  O_10
REMARK    8  A    between atoms: C_12  and  C_13
REMARK    9  A    between atoms: C_13  and  C_16
REMARK   10  A    between atoms: C_16  and  O_17
REMARK   11  A    between atoms: O_17  and  C_18
REMARK   12  A    between atoms: C_20  and  C_21
REMARK   13  A    between atoms: C_24  and  C_27
REMARK                            x       y       z     vdW  Elec       q    Type
REMARK                         _______ _______ _______ _____ _____    ______ ____
ROOT
ATOM      1  C   UNL     1      32.328  -9.607 -22.620  0.00  0.00    +0.076 C 
ENDROOT
BRANCH   1   3
ATOM      2  O   UNL     1      34.858  -8.557 -23.554  0.00  0.00    -0.275 OA
ATOM      3  N   UNL     1      32.661  -8.223 -22.874  0.00  0.00    -0.306 N 
ATOM      4  C   UNL     1      33.907  -7.815 -23.323  0.00  0.00    +0.223 C 
ATOM      5  H   UNL     1      31.969  -7.539 -22.720  0.00  0.00    +0.149 HD
BRANCH   4   6
ATOM      6  C   UNL     1      33.968  -6.307 -23.498  0.00  0.00    +0.097 C 
BRANCH   6   7
ATOM      7  C   UNL     1      33.887  -5.888 -24.962  0.00  0.00    +0.119 C 
BRANCH   7   9
ATOM      8  O   UNL     1      31.458  -5.879 -24.794  0.00  0.00    -0.250 OA
ATOM      9  C   UNL     1      32.468  -5.926 -25.483  0.00  0.00    +0.314 C 
BRANCH   9  10
ATOM     10  O   UNL     1      32.440  -6.016 -26.838  0.00  0.00    -0.480 OA
ATOM     11  H   UNL     1      33.190  -6.331 -27.303  0.00  0.00    +0.295 HD
ENDBRANCH   9  10
ENDBRANCH   7   9
ENDBRANCH   6   7
ENDBRANCH   4   6
ENDBRANCH   1   3
BRANCH   1  12
ATOM     12  C   UNL     1      30.887  -9.731 -22.088  0.00  0.00    +0.031 C 
BRANCH  12  13
ATOM     13  C   UNL     1      30.794  -9.949 -20.568  0.00  0.00    +0.101 C 
ATOM     14  C   UNL     1      31.545 -11.213 -20.150  0.00  0.00    +0.012 C 
BRANCH  13  16
ATOM     15  O   UNL     1      31.986  -8.844 -18.762  0.00  0.00    -0.250 OA
ATOM     16  C   UNL     1      31.383  -8.762 -19.824  0.00  0.00    +0.316 C 
BRANCH  16  17
ATOM     17  O   UNL     1      31.149  -7.616 -20.527  0.00  0.00    -0.449 OA
BRANCH  17  18
ATOM     18  C   UNL     1      31.625  -6.412 -19.917  0.00  0.00    +0.209 C 
ATOM     19  C   UNL     1      31.514  -5.277 -20.913  0.00  0.00    +0.051 C 
ENDBRANCH  17  18
ENDBRANCH  16  17
ENDBRANCH  13  16
ENDBRANCH  12  13
ENDBRANCH   1  12
BRANCH   1  20
ATOM     20  C   UNL     1      32.495 -10.448 -23.900  0.00  0.00    +0.046 C 
BRANCH  20  21
ATOM     21  C   UNL     1      32.925 -11.868 -23.622  0.00  0.00    -0.021 C 
ATOM     22  C   UNL     1      32.741 -12.855 -24.591  0.00  0.00    -0.004 C 
ATOM     23  C   UNL     1      33.507 -12.195 -22.397  0.00  0.00    -0.004 C 
ATOM     24  C   UNL     1      33.718 -14.494 -23.109  0.00  0.00    -0.000 C 
ATOM     25  C   UNL     1      33.137 -14.168 -24.334  0.00  0.00    -0.000 C 
ATOM     26  C   UNL     1      33.903 -13.507 -22.140  0.00  0.00    -0.000 C 
BRANCH  24  27
ATOM     27  C   UNL     1      34.129 -15.855 -22.843  0.00  0.00    -0.000 C 
ATOM     28  C   UNL     1      33.953 -16.839 -23.815  0.00  0.00    -0.000 C 
ATOM     29  C   UNL     1      34.702 -16.184 -21.614  0.00  0.00    -0.000 C 
ATOM     30  C   UNL     1      34.349 -18.151 -23.560  0.00  0.00    +0.000 C 
ATOM     31  C   UNL     1      35.098 -17.496 -21.358  0.00  0.00    +0.000 C 
ATOM     32  C   UNL     1      34.922 -18.480 -22.331  0.00  0.00    +0.000 C 
ENDBRANCH  24  27
ENDBRANCH  20  21
ENDBRANCH   1  20
TORSDOF 13
ENDMDL
MODEL 5
REMARK VINA RESULT:      -9.6      7.658     12.014
REMARK  Name = 9811834
REMARK  13 active torsions:
REMARK  status: ('A' for Active; 'I' for Inactive)
REMARK    1  A    between atoms: C_1  and  N_3
REMARK    2  A    between atoms: C_1  and  C_12
REMARK    3  A    between atoms: C_1  and  C_20
REMARK    4  A    between atoms: C_4  and  C_6
REMARK    5  A    between atoms: C_6  and  C_7
REMARK    6  A    between atoms: C_7  and  C_9
REMARK    7  A    between atoms: C_9  and  O_10
REMARK    8  A    between atoms: C_12  and  C_13
REMARK    9  A    between atoms: C_13  and  C_16
REMARK   10  A    between atoms: C_16  and  O_17
REMARK   11  A    between atoms: O_17  and  C_18
REMARK   12  A    between atoms: C_20  and  C_21
REMARK   13  A    between atoms: C_24  and  C_27
REMARK                            x       y       z     vdW  Elec       q    Type
REMARK                         _______ _______ _______ _____ _____    ______ ____
ROOT
ATOM      1  C   UNL     1      33.508 -13.417 -22.361  0.00  0.00    +0.076 C 
ENDROOT
BRANCH   1   3
ATOM      2  O   UNL     1      34.064 -14.812 -19.887  0.00  0.00    -0.275 OA
ATOM      3  N   UNL     1      33.776 -14.828 -22.193  0.00  0.00    -0.306 N 
ATOM      4  C   UNL     1      34.032 -15.408 -20.961  0.00  0.00    +0.223 C 
ATOM      5  H   UNL     1      33.776 -15.404 -22.992  0.00  0.00    +0.149 HD
BRANCH   4   6
ATOM      6  C   UNL     1      34.280 -16.901 -21.089  0.00  0.00    +0.097 C 
BRANCH   6   7
ATOM      7  C   UNL     1      35.444 -17.220 -22.022  0.00  0.00    +0.119 C 
BRANCH   7   9
ATOM      8  O   UNL     1      36.385 -18.594 -20.247  0.00  0.00    -0.250 OA
ATOM      9  C   UNL     1      36.501 -18.058 -21.340  0.00  0.00    +0.314 C 
BRANCH   9  10
ATOM     10  O   UNL     1      37.622 -18.157 -22.101  0.00  0.00    -0.480 OA
ATOM     11  H   UNL     1      37.712 -18.859 -22.715  0.00  0.00    +0.295 HD
ENDBRANCH   9  10
ENDBRANCH   7   9
ENDBRANCH   6   7
ENDBRANCH   4   6
ENDBRANCH   1   3
BRANCH   1  12
ATOM     12  C   UNL     1      33.657 -13.007 -23.839  0.00  0.00    +0.031 C 
BRANCH  12  13
ATOM     13  C   UNL     1      32.823 -13.855 -24.814  0.00  0.00    +0.101 C 
ATOM     14  C   UNL     1      32.651 -13.137 -26.153  0.00  0.00    +0.012 C 
BRANCH  13  16
ATOM     15  O   UNL     1      34.701 -15.353 -25.173  0.00  0.00    -0.250 OA
ATOM     16  C   UNL     1      33.493 -15.196 -25.061  0.00  0.00    +0.316 C 
BRANCH  16  17
ATOM     17  O   UNL     1      32.548 -16.180 -25.118  0.00  0.00    -0.449 OA
BRANCH  17  18
ATOM     18  C   UNL     1      32.998 -17.488 -24.753  0.00  0.00    +0.209 C 
ATOM     19  C   UNL     1      31.926 -18.495 -25.108  0.00  0.00    +0.051 C 
ENDBRANCH  17  18
ENDBRANCH  16  17
ENDBRANCH  13  16
ENDBRANCH  12  13
ENDBRANCH   1  12
BRANCH   1  20
ATOM     20  C   UNL     1      32.096 -13.069 -21.853  0.00  0.00    +0.046 C 
BRANCH  20  21
ATOM     21  C   UNL     1      31.852 -11.582 -21.758  0.00  0.00    -0.021 C 
ATOM     22  C   UNL     1      31.353 -11.032 -20.577  0.00  0.00    -0.004 C 
ATOM     23  C   UNL     1      32.125 -10.758 -22.849  0.00  0.00    -0.004 C 
ATOM     24  C   UNL     1      31.399  -8.835 -21.580  0.00  0.00    -0.000 C 
ATOM     25  C   UNL     1      31.126  -9.659 -20.488  0.00  0.00    -0.000 C 
ATOM     26  C   UNL     1      31.898  -9.385 -22.761  0.00  0.00    -0.000 C 
BRANCH  24  27
ATOM     27  C   UNL     1      31.163  -7.411 -21.488  0.00  0.00    -0.000 C 
ATOM     28  C   UNL     1      30.533  -6.740 -22.536  0.00  0.00    -0.000 C 
ATOM     29  C   UNL     1      31.566  -6.708 -20.352  0.00  0.00    -0.000 C 
ATOM     30  C   UNL     1      30.305  -5.367 -22.449  0.00  0.00    +0.000 C 
ATOM     31  C   UNL     1      31.338  -5.335 -20.265  0.00  0.00    +0.000 C 
ATOM     32  C   UNL     1      30.707  -4.665 -21.313  0.00  0.00    +0.000 C 
ENDBRANCH  24  27
ENDBRANCH  20  21
ENDBRANCH   1  20
TORSDOF 13
ENDMDL
MODEL 6
REMARK VINA RESULT:      -9.3      2.285      7.051
REMARK  Name = 9811834
REMARK  13 active torsions:
REMARK  status: ('A' for Active; 'I' for Inactive)
REMARK    1  A    between atoms: C_1  and  N_3
REMARK    2  A    between atoms: C_1  and  C_12
REMARK    3  A    between atoms: C_1  and  C_20
REMARK    4  A    between atoms: C_4  and  C_6
REMARK    5  A    between atoms: C_6  and  C_7
REMARK    6  A    between atoms: C_7  and  C_9
REMARK    7  A    between atoms: C_9  and  O_10
REMARK    8  A    between atoms: C_12  and  C_13
REMARK    9  A    between atoms: C_13  and  C_16
REMARK   10  A    between atoms: C_16  and  O_17
REMARK   11  A    between atoms: O_17  and  C_18
REMARK   12  A    between atoms: C_20  and  C_21
REMARK   13  A    between atoms: C_24  and  C_27
REMARK                            x       y       z     vdW  Elec       q    Type
REMARK                         _______ _______ _______ _____ _____    ______ ____
ROOT
ATOM      1  C   UNL     1      31.572 -22.697 -16.509  0.00  0.00    +0.076 C 
ENDROOT
BRANCH   1   3
ATOM      2  O   UNL     1      30.421 -24.693 -14.758  0.00  0.00    -0.275 OA
ATOM      3  N   UNL     1      30.168 -22.955 -16.280  0.00  0.00    -0.306 N 
ATOM      4  C   UNL     1      29.711 -23.939 -15.417  0.00  0.00    +0.223 C 
ATOM      5  H   UNL     1      29.505 -22.407 -16.761  0.00  0.00    +0.149 HD
BRANCH   4   6
ATOM      6  C   UNL     1      28.193 -23.984 -15.379  0.00  0.00    +0.097 C 
BRANCH   6   7
ATOM      7  C   UNL     1      27.570 -22.592 -15.348  0.00  0.00    +0.119 C 
BRANCH   7   9
ATOM      8  O   UNL     1      26.540 -21.096 -16.970  0.00  0.00    -0.250 OA
ATOM      9  C   UNL     1      27.039 -22.181 -16.703  0.00  0.00    +0.314 C 
BRANCH   9  10
ATOM     10  O   UNL     1      27.187 -23.176 -17.616  0.00  0.00    -0.480 OA
ATOM     11  H   UNL     1      27.945 -23.198 -18.166  0.00  0.00    +0.295 HD
ENDBRANCH   9  10
ENDBRANCH   7   9
ENDBRANCH   6   7
ENDBRANCH   4   6
ENDBRANCH   1   3
BRANCH   1  12
ATOM     12  C   UNL     1      31.758 -21.685 -17.656  0.00  0.00    +0.031 C 
BRANCH  12  13
ATOM     13  C   UNL     1      33.121 -21.779 -18.363  0.00  0.00    +0.101 C 
ATOM     14  C   UNL     1      33.408 -23.213 -18.808  0.00  0.00    +0.012 C 
BRANCH  13  16
ATOM     15  O   UNL     1      32.157 -20.511 -20.198  0.00  0.00    -0.250 OA
ATOM     16  C   UNL     1      33.151 -20.874 -19.583  0.00  0.00    +0.316 C 
BRANCH  16  17
ATOM     17  O   UNL     1      34.440 -20.525 -19.866  0.00  0.00    -0.449 OA
BRANCH  17  18
ATOM     18  C   UNL     1      34.597 -19.479 -20.830  0.00  0.00    +0.209 C 
ATOM     19  C   UNL     1      36.007 -18.935 -20.742  0.00  0.00    +0.051 C 
ENDBRANCH  17  18
ENDBRANCH  16  17
ENDBRANCH  13  16
ENDBRANCH  12  13
ENDBRANCH   1  12
BRANCH   1  20
ATOM     20  C   UNL     1      32.243 -22.174 -15.226  0.00  0.00    +0.046 C 
BRANCH  20  21
ATOM     21  C   UNL     1      33.619 -22.753 -15.000  0.00  0.00    -0.021 C 
ATOM     22  C   UNL     1      33.761 -23.996 -14.382  0.00  0.00    -0.004 C 
ATOM     23  C   UNL     1      34.750 -22.046 -15.410  0.00  0.00    -0.004 C 
ATOM     24  C   UNL     1      36.162 -23.823 -14.583  0.00  0.00    -0.000 C 
ATOM     25  C   UNL     1      35.032 -24.530 -14.173  0.00  0.00    -0.000 C 
ATOM     26  C   UNL     1      36.021 -22.581 -15.201  0.00  0.00    -0.000 C 
BRANCH  24  27
ATOM     27  C   UNL     1      37.481 -24.377 -14.366  0.00  0.00    -0.000 C 
ATOM     28  C   UNL     1      37.686 -25.307 -13.346  0.00  0.00    -0.000 C 
ATOM     29  C   UNL     1      38.546 -23.983 -15.176  0.00  0.00    -0.000 C 
ATOM     30  C   UNL     1      38.957 -25.842 -13.137  0.00  0.00    +0.000 C 
ATOM     31  C   UNL     1      39.816 -24.518 -14.966  0.00  0.00    +0.000 C 
ATOM     32  C   UNL     1      40.022 -25.448 -13.947  0.00  0.00    +0.000 C 
ENDBRANCH  24  27
ENDBRANCH  20  21
ENDBRANCH   1  20
TORSDOF 13
ENDMDL
MODEL 7
REMARK VINA RESULT:      -9.2     11.287     15.946
REMARK  Name = 9811834
REMARK  13 active torsions:
REMARK  status: ('A' for Active; 'I' for Inactive)
REMARK    1  A    between atoms: C_1  and  N_3
REMARK    2  A    between atoms: C_1  and  C_12
REMARK    3  A    between atoms: C_1  and  C_20
REMARK    4  A    between atoms: C_4  and  C_6
REMARK    5  A    between atoms: C_6  and  C_7
REMARK    6  A    between atoms: C_7  and  C_9
REMARK    7  A    between atoms: C_9  and  O_10
REMARK    8  A    between atoms: C_12  and  C_13
REMARK    9  A    between atoms: C_13  and  C_16
REMARK   10  A    between atoms: C_16  and  O_17
REMARK   11  A    between atoms: O_17  and  C_18
REMARK   12  A    between atoms: C_20  and  C_21
REMARK   13  A    between atoms: C_24  and  C_27
REMARK                            x       y       z     vdW  Elec       q    Type
REMARK                         _______ _______ _______ _____ _____    ______ ____
ROOT
ATOM      1  C   UNL     1      32.266  -8.153 -22.913  0.00  0.00    +0.076 C 
ENDROOT
BRANCH   1   3
ATOM      2  O   UNL     1      33.720  -6.416 -24.712  0.00  0.00    -0.275 OA
ATOM      3  N   UNL     1      31.712  -7.175 -23.822  0.00  0.00    -0.306 N 
ATOM      4  C   UNL     1      32.494  -6.384 -24.650  0.00  0.00    +0.223 C 
ATOM      5  H   UNL     1      30.734  -7.064 -23.854  0.00  0.00    +0.149 HD
BRANCH   4   6
ATOM      6  C   UNL     1      31.644  -5.449 -25.491  0.00  0.00    +0.097 C 
BRANCH   6   7
ATOM      7  C   UNL     1      32.365  -4.146 -25.822  0.00  0.00    +0.119 C 
BRANCH   7   9
ATOM      8  O   UNL     1      30.593  -2.595 -25.204  0.00  0.00    -0.250 OA
ATOM      9  C   UNL     1      31.398  -3.003 -26.030  0.00  0.00    +0.314 C 
BRANCH   9  10
ATOM     10  O   UNL     1      31.529  -2.461 -27.269  0.00  0.00    -0.480 OA
ATOM     11  H   UNL     1      30.799  -2.454 -27.857  0.00  0.00    +0.295 HD
ENDBRANCH   9  10
ENDBRANCH   7   9
ENDBRANCH   6   7
ENDBRANCH   4   6
ENDBRANCH   1   3
BRANCH   1  12
ATOM     12  C   UNL     1      32.684  -7.488 -21.587  0.00  0.00    +0.031 C 
BRANCH  12  13
ATOM     13  C   UNL     1      31.520  -7.238 -20.613  0.00  0.00    +0.101 C 
ATOM     14  C   UNL     1      31.459  -8.329 -19.544  0.00  0.00    +0.012 C 
BRANCH  13  16
ATOM     15  O   UNL     1      32.628  -5.586 -19.218  0.00  0.00    -0.250 OA
ATOM     16  C   UNL     1      31.679  -5.891 -19.928  0.00  0.00    +0.316 C 
BRANCH  16  17
ATOM     17  O   UNL     1      30.621  -5.087 -20.241  0.00  0.00    -0.449 OA
BRANCH  17  18
ATOM     18  C   UNL     1      30.424  -4.845 -21.637  0.00  0.00    +0.209 C 
ATOM     19  C   UNL     1      31.445  -3.832 -22.111  0.00  0.00    +0.051 C 
ENDBRANCH  17  18
ENDBRANCH  16  17
ENDBRANCH  13  16
ENDBRANCH  12  13
ENDBRANCH   1  12
BRANCH   1  20
ATOM     20  C   UNL     1      31.249  -9.278 -22.643  0.00  0.00    +0.046 C 
BRANCH  20  21
ATOM     21  C   UNL     1      31.891 -10.641 -22.533  0.00  0.00    -0.021 C 
ATOM     22  C   UNL     1      32.838 -11.044 -23.475  0.00  0.00    -0.004 C 
ATOM     23  C   UNL     1      31.538 -11.496 -21.489  0.00  0.00    -0.004 C 
ATOM     24  C   UNL     1      33.077 -13.158 -22.330  0.00  0.00    -0.000 C 
ATOM     25  C   UNL     1      33.431 -12.303 -23.373  0.00  0.00    -0.000 C 
ATOM     26  C   UNL     1      32.130 -12.755 -21.388  0.00  0.00    -0.000 C 
BRANCH  24  27
ATOM     27  C   UNL     1      33.691 -14.463 -22.224  0.00  0.00    -0.000 C 
ATOM     28  C   UNL     1      33.923 -15.025 -20.969  0.00  0.00    -0.000 C 
ATOM     29  C   UNL     1      34.051 -15.161 -23.378  0.00  0.00    -0.000 C 
ATOM     30  C   UNL     1      34.514 -16.284 -20.866  0.00  0.00    +0.000 C 
ATOM     31  C   UNL     1      34.642 -16.420 -23.275  0.00  0.00    +0.000 C 
ATOM     32  C   UNL     1      34.874 -16.981 -22.020  0.00  0.00    +0.000 C 
ENDBRANCH  24  27
ENDBRANCH  20  21
ENDBRANCH   1  20
TORSDOF 13
ENDMDL
MODEL 8
REMARK VINA RESULT:      -9.1      1.539      2.305
REMARK  Name = 9811834
REMARK  13 active torsions:
REMARK  status: ('A' for Active; 'I' for Inactive)
REMARK    1  A    between atoms: C_1  and  N_3
REMARK    2  A    between atoms: C_1  and  C_12
REMARK    3  A    between atoms: C_1  and  C_20
REMARK    4  A    between atoms: C_4  and  C_6
REMARK    5  A    between atoms: C_6  and  C_7
REMARK    6  A    between atoms: C_7  and  C_9
REMARK    7  A    between atoms: C_9  and  O_10
REMARK    8  A    between atoms: C_12  and  C_13
REMARK    9  A    between atoms: C_13  and  C_16
REMARK   10  A    between atoms: C_16  and  O_17
REMARK   11  A    between atoms: O_17  and  C_18
REMARK   12  A    between atoms: C_20  and  C_21
REMARK   13  A    between atoms: C_24  and  C_27
REMARK                            x       y       z     vdW  Elec       q    Type
REMARK                         _______ _______ _______ _____ _____    ______ ____
ROOT
ATOM      1  C   UNL     1      34.280 -22.662 -14.482  0.00  0.00    +0.076 C 
ENDROOT
BRANCH   1   3
ATOM      2  O   UNL     1      31.980 -24.379 -14.115  0.00  0.00    -0.275 OA
ATOM      3  N   UNL     1      32.886 -22.286 -14.559  0.00  0.00    -0.306 N 
ATOM      4  C   UNL     1      31.848 -23.185 -14.368  0.00  0.00    +0.223 C 
ATOM      5  H   UNL     1      32.663 -21.347 -14.758  0.00  0.00    +0.149 HD
BRANCH   4   6
ATOM      6  C   UNL     1      30.495 -22.511 -14.511  0.00  0.00    +0.097 C 
BRANCH   6   7
ATOM      7  C   UNL     1      30.077 -22.348 -15.969  0.00  0.00    +0.119 C 
BRANCH   7   9
ATOM      8  O   UNL     1      27.946 -22.835 -17.040  0.00  0.00    -0.250 OA
ATOM      9  C   UNL     1      28.574 -22.318 -16.126  0.00  0.00    +0.314 C 
BRANCH   9  10
ATOM     10  O   UNL     1      27.983 -21.639 -15.109  0.00  0.00    -0.480 OA
ATOM     11  H   UNL     1      27.671 -22.101 -14.356  0.00  0.00    +0.295 HD
ENDBRANCH   9  10
ENDBRANCH   7   9
ENDBRANCH   6   7
ENDBRANCH   4   6
ENDBRANCH   1   3
BRANCH   1  12
ATOM     12  C   UNL     1      34.532 -23.563 -13.258  0.00  0.00    +0.031 C 
BRANCH  12  13
ATOM     13  C   UNL     1      35.662 -24.589 -13.453  0.00  0.00    +0.101 C 
ATOM     14  C   UNL     1      35.555 -25.265 -14.820  0.00  0.00    +0.012 C 
BRANCH  13  16
ATOM     15  O   UNL     1      37.187 -22.700 -13.351  0.00  0.00    -0.250 OA
ATOM     16  C   UNL     1      37.018 -23.912 -13.347  0.00  0.00    +0.316 C 
BRANCH  16  17
ATOM     17  O   UNL     1      37.997 -24.857 -13.232  0.00  0.00    -0.449 OA
BRANCH  17  18
ATOM     18  C   UNL     1      39.316 -24.422 -13.576  0.00  0.00    +0.209 C 
ATOM     19  C   UNL     1      39.693 -25.010 -14.920  0.00  0.00    +0.051 C 
ENDBRANCH  17  18
ENDBRANCH  16  17
ENDBRANCH  13  16
ENDBRANCH  12  13
ENDBRANCH   1  12
BRANCH   1  20
ATOM     20  C   UNL     1      34.720 -23.381 -15.770  0.00  0.00    +0.046 C 
BRANCH  20  21
ATOM     21  C   UNL     1      34.827 -22.454 -16.957  0.00  0.00    -0.021 C 
ATOM     22  C   UNL     1      33.749 -22.315 -17.833  0.00  0.00    -0.004 C 
ATOM     23  C   UNL     1      36.002 -21.737 -17.180  0.00  0.00    -0.004 C 
ATOM     24  C   UNL     1      35.023 -20.742 -19.152  0.00  0.00    -0.000 C 
ATOM     25  C   UNL     1      33.848 -21.459 -18.930  0.00  0.00    -0.000 C 
ATOM     26  C   UNL     1      36.101 -20.882 -18.277  0.00  0.00    -0.000 C 
BRANCH  24  27
ATOM     27  C   UNL     1      35.126 -19.856 -20.290  0.00  0.00    -0.000 C 
ATOM     28  C   UNL     1      34.049 -19.719 -21.167  0.00  0.00    -0.000 C 
ATOM     29  C   UNL     1      36.301 -19.136 -20.511  0.00  0.00    -0.000 C 
ATOM     30  C   UNL     1      34.147 -18.864 -22.264  0.00  0.00    +0.000 C 
ATOM     31  C   UNL     1      36.398 -18.281 -21.608  0.00  0.00    +0.000 C 
ATOM     32  C   UNL     1      35.322 -18.145 -22.485  0.00  0.00    +0.000 C 
ENDBRANCH  24  27
ENDBRANCH  20  21
ENDBRANCH   1  20
TORSDOF 13
ENDMDL
MODEL 9
REMARK VINA RESULT:      -9.1     10.698     15.374
REMARK  Name = 9811834
REMARK  13 active torsions:
REMARK  status: ('A' for Active; 'I' for Inactive)
REMARK    1  A    between atoms: C_1  and  N_3
REMARK    2  A    between atoms: C_1  and  C_12
REMARK    3  A    between atoms: C_1  and  C_20
REMARK    4  A    between atoms: C_4  and  C_6
REMARK    5  A    between atoms: C_6  and  C_7
REMARK    6  A    between atoms: C_7  and  C_9
REMARK    7  A    between atoms: C_9  and  O_10
REMARK    8  A    between atoms: C_12  and  C_13
REMARK    9  A    between atoms: C_13  and  C_16
REMARK   10  A    between atoms: C_16  and  O_17
REMARK   11  A    between atoms: O_17  and  C_18
REMARK   12  A    between atoms: C_20  and  C_21
REMARK   13  A    between atoms: C_24  and  C_27
REMARK                            x       y       z     vdW  Elec       q    Type
REMARK                         _______ _______ _______ _____ _____    ______ ____
ROOT
ATOM      1  C   UNL     1      32.088  -7.896 -22.730  0.00  0.00    +0.076 C 
ENDROOT
BRANCH   1   3
ATOM      2  O   UNL     1      34.845  -8.006 -23.603  0.00  0.00    -0.275 OA
ATOM      3  N   UNL     1      32.725  -7.061 -23.723  0.00  0.00    -0.306 N 
ATOM      4  C   UNL     1      34.059  -7.189 -24.077  0.00  0.00    +0.223 C 
ATOM      5  H   UNL     1      32.186  -6.368 -24.170  0.00  0.00    +0.149 HD
BRANCH   4   6
ATOM      6  C   UNL     1      34.453  -6.180 -25.141  0.00  0.00    +0.097 C 
BRANCH   6   7
ATOM      7  C   UNL     1      34.123  -4.747 -24.736  0.00  0.00    +0.119 C 
BRANCH   7   9
ATOM      8  O   UNL     1      33.445  -3.149 -26.443  0.00  0.00    -0.250 OA
ATOM      9  C   UNL     1      33.171  -4.089 -25.709  0.00  0.00    +0.314 C 
BRANCH   9  10
ATOM     10  O   UNL     1      31.948  -4.678 -25.681  0.00  0.00    -0.480 OA
ATOM     11  H   UNL     1      31.814  -5.459 -25.180  0.00  0.00    +0.295 HD
ENDBRANCH   9  10
ENDBRANCH   7   9
ENDBRANCH   6   7
ENDBRANCH   4   6
ENDBRANCH   1   3
BRANCH   1  12
ATOM     12  C   UNL     1      31.104  -7.071 -21.877  0.00  0.00    +0.031 C 
BRANCH  12  13
ATOM     13  C   UNL     1      31.760  -5.920 -21.095  0.00  0.00    +0.101 C 
ATOM     14  C   UNL     1      30.881  -4.670 -21.124  0.00  0.00    +0.012 C 
BRANCH  13  16
ATOM     15  O   UNL     1      32.696  -5.703 -18.864  0.00  0.00    -0.250 OA
ATOM     16  C   UNL     1      31.990  -6.323 -19.649  0.00  0.00    +0.316 C 
BRANCH  16  17
ATOM     17  O   UNL     1      31.283  -7.456 -19.368  0.00  0.00    -0.449 OA
BRANCH  17  18
ATOM     18  C   UNL     1      32.048  -8.546 -18.847  0.00  0.00    +0.209 C 
ATOM     19  C   UNL     1      31.190  -9.793 -18.842  0.00  0.00    +0.051 C 
ENDBRANCH  17  18
ENDBRANCH  16  17
ENDBRANCH  13  16
ENDBRANCH  12  13
ENDBRANCH   1  12
BRANCH   1  20
ATOM     20  C   UNL     1      31.354  -9.072 -23.400  0.00  0.00    +0.046 C 
BRANCH  20  21
ATOM     21  C   UNL     1      31.954 -10.415 -23.059  0.00  0.00    -0.021 C 
ATOM     22  C   UNL     1      31.527 -11.102 -21.923  0.00  0.00    -0.004 C 
ATOM     23  C   UNL     1      32.936 -10.969 -23.880  0.00  0.00    -0.004 C 
ATOM     24  C   UNL     1      33.063 -12.896 -22.429  0.00  0.00    -0.000 C 
ATOM     25  C   UNL     1      32.081 -12.342 -21.608  0.00  0.00    -0.000 C 
ATOM     26  C   UNL     1      33.491 -12.209 -23.565  0.00  0.00    -0.000 C 
BRANCH  24  27
ATOM     27  C   UNL     1      33.639 -14.182 -22.102  0.00  0.00    -0.000 C 
ATOM     28  C   UNL     1      34.160 -14.990 -23.113  0.00  0.00    -0.000 C 
ATOM     29  C   UNL     1      33.674 -14.615 -20.776  0.00  0.00    -0.000 C 
ATOM     30  C   UNL     1      34.716 -16.229 -22.798  0.00  0.00    +0.000 C 
ATOM     31  C   UNL     1      34.230 -15.854 -20.462  0.00  0.00    +0.000 C 
ATOM     32  C   UNL     1      34.751 -16.662 -21.473  0.00  0.00    +0.000 C 
ENDBRANCH  24  27
ENDBRANCH  20  21
ENDBRANCH   1  20
TORSDOF 13
ENDMDL
