MODEL 1
REMARK VINA RESULT:     -13.6      0.000      0.000
REMARK  Name = 76958312
REMARK  3 active torsions:
REMARK  status: ('A' for Active; 'I' for Inactive)
REMARK    1  A    between atoms: C_16  and  C_21
REMARK    2  A    between atoms: C_26  and  N_28
REMARK    3  A    between atoms: N_29  and  C_34
REMARK                            x       y       z     vdW  Elec       q    Type
REMARK                         _______ _______ _______ _____ _____    ______ ____
ROOT
ATOM      1  O   UNL     1      31.165 -22.484 -12.575  0.00  0.00    -0.350 OA
ATOM      2  O   UNL     1      39.134 -24.494 -13.220  0.00  0.00    -0.350 OA
ATOM      3  N   UNL     1      32.111 -23.972 -14.789  0.00  0.00    -0.231 N 
ATOM      4  N   UNL     1      34.411 -23.988 -14.654  0.00  0.00    -0.246 NA
ATOM      5  N   UNL     1      33.269 -22.800 -16.399  0.00  0.00    -0.260 NA
ATOM      6  N   UNL     1      36.744 -23.947 -14.594  0.00  0.00    -0.228 N 
ATOM      7  N   UNL     1      35.667 -22.780 -16.304  0.00  0.00    -0.260 NA
ATOM      8  C   UNL     1      31.996 -24.613 -13.479  0.00  0.00    +0.114 C 
ATOM      9  C   UNL     1      30.897 -23.164 -14.921  0.00  0.00    +0.114 C 
ATOM     10  C   UNL     1      30.540 -25.110 -13.503  0.00  0.00    +0.025 C 
ATOM     11  C   UNL     1      29.814 -24.153 -14.456  0.00  0.00    +0.025 C 
ATOM     12  C   UNL     1      31.044 -22.000 -13.922  0.00  0.00    +0.163 C 
ATOM     13  C   UNL     1      32.177 -23.496 -12.435  0.00  0.00    +0.163 C 
ATOM     14  C   UNL     1      33.310 -23.572 -15.301  0.00  0.00    +0.224 C 
ATOM     15  C   UNL     1      35.553 -23.553 -15.212  0.00  0.00    +0.224 C 
ATOM     16  C   UNL     1      34.484 -22.442 -16.843  0.00  0.00    +0.163 C 
ATOM     17  C   UNL     1      38.032 -23.512 -15.145  0.00  0.00    +0.135 C 
ATOM     18  C   UNL     1      36.730 -24.177 -13.143  0.00  0.00    +0.135 C 
ATOM     19  C   UNL     1      37.910 -25.059 -12.751  0.00  0.00    +0.164 C 
ATOM     20  C   UNL     1      39.143 -24.429 -14.645  0.00  0.00    +0.164 C 
ENDROOT
BRANCH  16  21
ATOM     21  C   UNL     1      34.525 -21.612 -18.019  0.00  0.00    +0.087 C 
ATOM     22  C   UNL     1      35.743 -21.103 -18.471  0.00  0.00    +0.013 C 
ATOM     23  C   UNL     1      33.347 -21.318 -18.705  0.00  0.00    +0.013 C 
ATOM     24  C   UNL     1      35.781 -20.299 -19.610  0.00  0.00    +0.015 C 
ATOM     25  C   UNL     1      33.387 -20.513 -19.844  0.00  0.00    +0.015 C 
ATOM     26  C   UNL     1      34.604 -20.004 -20.297  0.00  0.00    +0.052 C 
BRANCH  26  28
ATOM     27  O   UNL     1      33.725 -17.177 -20.691  0.00  0.00    -0.252 OA
ATOM     28  N   UNL     1      34.643 -19.199 -21.436  0.00  0.00    -0.268 N 
ATOM     29  N   UNL     1      34.437 -17.429 -22.905  0.00  0.00    -0.268 N 
ATOM     30  C   UNL     1      34.216 -17.858 -21.587  0.00  0.00    +0.308 C 
ATOM     31  H   UNL     1      35.017 -19.621 -22.244  0.00  0.00    +0.156 HD
ATOM     32  H   UNL     1      34.839 -18.091 -23.513  0.00  0.00    +0.156 HD
BRANCH  29  34
ATOM     33  N   UNL     1      33.587 -13.660 -24.578  0.00  0.00    -0.242 NA
ATOM     34  C   UNL     1      34.151 -16.163 -23.468  0.00  0.00    +0.055 C 
ATOM     35  C   UNL     1      34.327 -15.008 -22.713  0.00  0.00    +0.035 C 
ATOM     36  C   UNL     1      33.693 -16.068 -24.778  0.00  0.00    +0.035 C 
ATOM     37  C   UNL     1      34.033 -13.793 -23.309  0.00  0.00    +0.100 C 
ATOM     38  C   UNL     1      33.429 -14.804 -25.281  0.00  0.00    +0.100 C 
ENDBRANCH  29  34
ENDBRANCH  26  28
ENDBRANCH  16  21
TORSDOF 3
ENDMDL
MODEL 2
REMARK VINA RESULT:     -12.6      1.092      4.573
REMARK  Name = 76958312
REMARK  3 active torsions:
REMARK  status: ('A' for Active; 'I' for Inactive)
REMARK    1  A    between atoms: C_16  and  C_21
REMARK    2  A    between atoms: C_26  and  N_28
REMARK    3  A    between atoms: N_29  and  C_34
REMARK                            x       y       z     vdW  Elec       q    Type
REMARK                         _______ _______ _______ _____ _____    ______ ____
ROOT
ATOM      1  O   UNL     1      37.461 -26.807 -14.399  0.00  0.00    -0.350 OA
ATOM      2  O   UNL     1      29.601 -24.629 -13.203  0.00  0.00    -0.350 OA
ATOM      3  N   UNL     1      36.760 -24.104 -13.936  0.00  0.00    -0.231 N 
ATOM      4  N   UNL     1      34.459 -23.991 -13.986  0.00  0.00    -0.246 NA
ATOM      5  N   UNL     1      35.798 -22.973 -15.698  0.00  0.00    -0.260 NA
ATOM      6  N   UNL     1      32.134 -23.826 -14.118  0.00  0.00    -0.228 N 
ATOM      7  N   UNL     1      33.405 -22.826 -15.800  0.00  0.00    -0.260 NA
ATOM      8  C   UNL     1      36.722 -25.065 -12.832  0.00  0.00    +0.114 C 
ATOM      9  C   UNL     1      37.986 -24.422 -14.669  0.00  0.00    +0.114 C 
ATOM     10  C   UNL     1      38.168 -24.995 -12.310  0.00  0.00    +0.025 C 
ATOM     11  C   UNL     1      39.003 -24.570 -13.524  0.00  0.00    +0.025 C 
ATOM     12  C   UNL     1      37.736 -25.776 -15.361  0.00  0.00    +0.163 C 
ATOM     13  C   UNL     1      36.432 -26.438 -13.465  0.00  0.00    +0.163 C 
ATOM     14  C   UNL     1      35.628 -23.672 -14.564  0.00  0.00    +0.224 C 
ATOM     15  C   UNL     1      33.390 -23.535 -14.660  0.00  0.00    +0.224 C 
ATOM     16  C   UNL     1      34.643 -22.584 -16.260  0.00  0.00    +0.163 C 
ATOM     17  C   UNL     1      30.919 -23.362 -14.797  0.00  0.00    +0.135 C 
ATOM     18  C   UNL     1      31.983 -25.065 -13.343  0.00  0.00    +0.135 C 
ATOM     19  C   UNL     1      30.760 -24.960 -12.439  0.00  0.00    +0.164 C 
ATOM     20  C   UNL     1      29.753 -23.349 -13.815  0.00  0.00    +0.164 C 
ENDROOT
BRANCH  16  21
ATOM     21  C   UNL     1      34.741 -21.828 -17.482  0.00  0.00    +0.087 C 
ATOM     22  C   UNL     1      35.961 -21.269 -17.861  0.00  0.00    +0.013 C 
ATOM     23  C   UNL     1      33.614 -21.656 -18.286  0.00  0.00    +0.013 C 
ATOM     24  C   UNL     1      36.055 -20.537 -19.045  0.00  0.00    +0.015 C 
ATOM     25  C   UNL     1      33.708 -20.923 -19.470  0.00  0.00    +0.015 C 
ATOM     26  C   UNL     1      34.929 -20.364 -19.849  0.00  0.00    +0.052 C 
BRANCH  26  28
ATOM     27  O   UNL     1      33.731 -17.730 -20.587  0.00  0.00    -0.252 OA
ATOM     28  N   UNL     1      35.022 -19.633 -21.033  0.00  0.00    -0.268 N 
ATOM     29  N   UNL     1      34.789 -18.004 -22.654  0.00  0.00    -0.268 N 
ATOM     30  C   UNL     1      34.439 -18.381 -21.348  0.00  0.00    +0.308 C 
ATOM     31  H   UNL     1      35.567 -20.041 -21.745  0.00  0.00    +0.156 HD
ATOM     32  H   UNL     1      35.365 -18.633 -23.146  0.00  0.00    +0.156 HD
BRANCH  29  34
ATOM     33  N   UNL     1      33.678 -14.511 -24.725  0.00  0.00    -0.242 NA
ATOM     34  C   UNL     1      34.416 -16.830 -23.351  0.00  0.00    +0.055 C 
ATOM     35  C   UNL     1      34.666 -15.580 -22.795  0.00  0.00    +0.035 C 
ATOM     36  C   UNL     1      33.797 -16.922 -24.593  0.00  0.00    +0.035 C 
ATOM     37  C   UNL     1      34.281 -14.461 -23.516  0.00  0.00    +0.100 C 
ATOM     38  C   UNL     1      33.452 -15.742 -25.233  0.00  0.00    +0.100 C 
ENDBRANCH  29  34
ENDBRANCH  26  28
ENDBRANCH  16  21
TORSDOF 3
ENDMDL
