MODEL 1
REMARK VINA RESULT:     -11.1      0.000      0.000
REMARK  Name = 5413034
REMARK  3 active torsions:
REMARK  status: ('A' for Active; 'I' for Inactive)
REMARK    1  A    between atoms: C_4  and  C_12
REMARK    2  A    between atoms: C_8  and  O_18
REMARK    3  A    between atoms: C_9  and  O_20
REMARK                            x       y       z     vdW  Elec       q    Type
REMARK                         _______ _______ _______ _____ _____    ______ ____
ROOT
ATOM      1  O   UNL     1      33.702 -14.924 -24.546  0.00  0.00    -0.418 OA
ATOM      2  O   UNL     1      33.028 -13.899 -26.474  0.00  0.00    -0.244 OA
ATOM      3  C   UNL     1      33.309 -13.814 -22.411  0.00  0.00    +0.038 C 
ATOM      4  C   UNL     1      32.684 -12.689 -23.122  0.00  0.00    +0.009 C 
ATOM      5  C   UNL     1      33.798 -14.894 -23.142  0.00  0.00    +0.185 C 
ATOM      6  C   UNL     1      33.438 -13.851 -21.016  0.00  0.00    +0.006 C 
ATOM      7  C   UNL     1      32.606 -12.749 -24.463  0.00  0.00    +0.082 C 
ATOM      8  C   UNL     1      34.403 -15.992 -22.528  0.00  0.00    +0.203 C 
ATOM      9  C   UNL     1      34.523 -16.014 -21.142  0.00  0.00    +0.171 C 
ATOM     10  C   UNL     1      34.041 -14.947 -20.387  0.00  0.00    +0.040 C 
ATOM     11  C   UNL     1      33.117 -13.884 -25.251  0.00  0.00    +0.346 C 
ENDROOT
BRANCH   4  12
ATOM     12  C   UNL     1      32.124 -11.488 -22.510  0.00  0.00    +0.000 C 
ATOM     13  C   UNL     1      31.360 -11.593 -21.352  0.00  0.00    +0.000 C 
ATOM     14  C   UNL     1      32.362 -10.243 -23.087  0.00  0.00    +0.000 C 
ATOM     15  C   UNL     1      30.828 -10.445 -20.765  0.00  0.00    +0.000 C 
ATOM     16  C   UNL     1      31.829  -9.095 -22.500  0.00  0.00    +0.000 C 
ATOM     17  C   UNL     1      31.062  -9.195 -21.340  0.00  0.00    +0.000 C 
ENDBRANCH   4  12
BRANCH   8  18
ATOM     18  O   UNL     1      34.871 -17.032 -23.273  0.00  0.00    -0.501 OA
ATOM     19  H   UNL     1      35.294 -17.755 -22.855  0.00  0.00    +0.292 HD
ENDBRANCH   8  18
BRANCH   9  20
ATOM     20  O   UNL     1      35.106 -17.072 -20.513  0.00  0.00    -0.503 OA
ATOM     21  H   UNL     1      34.641 -17.534 -19.844  0.00  0.00    +0.292 HD
ENDBRANCH   9  20
TORSDOF 3
ENDMDL
MODEL 2
REMARK VINA RESULT:     -10.2      9.771     12.328
REMARK  Name = 5413034
REMARK  3 active torsions:
REMARK  status: ('A' for Active; 'I' for Inactive)
REMARK    1  A    between atoms: C_4  and  C_12
REMARK    2  A    between atoms: C_8  and  O_18
REMARK    3  A    between atoms: C_9  and  O_20
REMARK                            x       y       z     vdW  Elec       q    Type
REMARK                         _______ _______ _______ _____ _____    ______ ____
ROOT
ATOM      1  O   UNL     1      35.731 -23.402 -13.800  0.00  0.00    -0.418 OA
ATOM      2  O   UNL     1      37.914 -22.959 -14.309  0.00  0.00    -0.244 OA
ATOM      3  C   UNL     1      33.996 -22.837 -15.419  0.00  0.00    +0.038 C 
ATOM      4  C   UNL     1      35.029 -22.320 -16.330  0.00  0.00    +0.009 C 
ATOM      5  C   UNL     1      34.377 -23.360 -14.185  0.00  0.00    +0.185 C 
ATOM      6  C   UNL     1      32.632 -22.827 -15.736  0.00  0.00    +0.006 C 
ATOM      7  C   UNL     1      36.312 -22.376 -15.933  0.00  0.00    +0.082 C 
ATOM      8  C   UNL     1      33.447 -23.866 -13.275  0.00  0.00    +0.203 C 
ATOM      9  C   UNL     1      32.096 -23.849 -13.605  0.00  0.00    +0.171 C 
ATOM     10  C   UNL     1      31.688 -23.332 -14.833  0.00  0.00    +0.040 C 
ATOM     11  C   UNL     1      36.732 -22.927 -14.633  0.00  0.00    +0.346 C 
ENDROOT
BRANCH   4  12
ATOM     12  C   UNL     1      34.800 -21.742 -17.650  0.00  0.00    +0.000 C 
ATOM     13  C   UNL     1      33.528 -21.783 -18.213  0.00  0.00    +0.000 C 
ATOM     14  C   UNL     1      35.856 -21.149 -18.338  0.00  0.00    +0.000 C 
ATOM     15  C   UNL     1      33.309 -21.228 -19.473  0.00  0.00    +0.000 C 
ATOM     16  C   UNL     1      35.637 -20.594 -19.599  0.00  0.00    +0.000 C 
ATOM     17  C   UNL     1      34.364 -20.633 -20.167  0.00  0.00    +0.000 C 
ENDBRANCH   4  12
BRANCH   8  18
ATOM     18  O   UNL     1      33.854 -24.370 -12.077  0.00  0.00    -0.501 OA
ATOM     19  H   UNL     1      33.904 -25.297 -11.951  0.00  0.00    +0.292 HD
ENDBRANCH   8  18
BRANCH   9  20
ATOM     20  O   UNL     1      31.164 -24.337 -12.740  0.00  0.00    -0.503 OA
ATOM     21  H   UNL     1      31.094 -25.259 -12.598  0.00  0.00    +0.292 HD
ENDBRANCH   9  20
TORSDOF 3
ENDMDL
MODEL 3
REMARK VINA RESULT:     -10.1      8.448     10.857
REMARK  Name = 5413034
REMARK  3 active torsions:
REMARK  status: ('A' for Active; 'I' for Inactive)
REMARK    1  A    between atoms: C_4  and  C_12
REMARK    2  A    between atoms: C_8  and  O_18
REMARK    3  A    between atoms: C_9  and  O_20
REMARK                            x       y       z     vdW  Elec       q    Type
REMARK                         _______ _______ _______ _____ _____    ______ ____
ROOT
ATOM      1  O   UNL     1      33.356 -23.326 -15.625  0.00  0.00    -0.418 OA
ATOM      2  O   UNL     1      31.222 -23.395 -16.442  0.00  0.00    -0.244 OA
ATOM      3  C   UNL     1      35.060 -22.095 -16.859  0.00  0.00    +0.038 C 
ATOM      4  C   UNL     1      34.055 -21.739 -17.873  0.00  0.00    +0.009 C 
ATOM      5  C   UNL     1      34.682 -22.876 -15.770  0.00  0.00    +0.185 C 
ATOM      6  C   UNL     1      36.397 -21.682 -16.940  0.00  0.00    +0.006 C 
ATOM      7  C   UNL     1      32.798 -22.184 -17.704  0.00  0.00    +0.082 C 
ATOM      8  C   UNL     1      35.586 -23.249 -14.775  0.00  0.00    +0.203 C 
ATOM      9  C   UNL     1      36.909 -22.830 -14.868  0.00  0.00    +0.171 C 
ATOM     10  C   UNL     1      37.315 -22.048 -15.948  0.00  0.00    +0.040 C 
ATOM     11  C   UNL     1      32.380 -23.009 -16.558  0.00  0.00    +0.346 C 
ENDROOT
BRANCH   4  12
ATOM     12  C   UNL     1      34.286 -20.933 -19.068  0.00  0.00    +0.000 C 
ATOM     13  C   UNL     1      33.204 -20.452 -19.799  0.00  0.00    +0.000 C 
ATOM     14  C   UNL     1      35.589 -20.648 -19.468  0.00  0.00    +0.000 C 
ATOM     15  C   UNL     1      33.425 -19.680 -20.939  0.00  0.00    +0.000 C 
ATOM     16  C   UNL     1      35.810 -19.876 -20.609  0.00  0.00    +0.000 C 
ATOM     17  C   UNL     1      34.729 -19.392 -21.344  0.00  0.00    +0.000 C 
ENDBRANCH   4  12
BRANCH   8  18
ATOM     18  O   UNL     1      35.182 -24.014 -13.723  0.00  0.00    -0.501 OA
ATOM     19  H   UNL     1      34.451 -23.746 -13.202  0.00  0.00    +0.292 HD
ENDBRANCH   8  18
BRANCH   9  20
ATOM     20  O   UNL     1      37.816 -23.176 -13.913  0.00  0.00    -0.503 OA
ATOM     21  H   UNL     1      37.919 -22.643 -13.151  0.00  0.00    +0.292 HD
ENDBRANCH   9  20
TORSDOF 3
ENDMDL
MODEL 4
REMARK VINA RESULT:     -10.0      8.215     11.803
REMARK  Name = 5413034
REMARK  3 active torsions:
REMARK  status: ('A' for Active; 'I' for Inactive)
REMARK    1  A    between atoms: C_4  and  C_12
REMARK    2  A    between atoms: C_8  and  O_18
REMARK    3  A    between atoms: C_9  and  O_20
REMARK                            x       y       z     vdW  Elec       q    Type
REMARK                         _______ _______ _______ _____ _____    ______ ____
ROOT
ATOM      1  O   UNL     1      31.558 -21.856 -17.873  0.00  0.00    -0.418 OA
ATOM      2  O   UNL     1      30.190 -22.801 -16.304  0.00  0.00    -0.244 OA
ATOM      3  C   UNL     1      33.974 -21.970 -17.565  0.00  0.00    +0.038 C 
ATOM      4  C   UNL     1      33.769 -22.702 -16.306  0.00  0.00    +0.009 C 
ATOM      5  C   UNL     1      32.865 -21.569 -18.308  0.00  0.00    +0.185 C 
ATOM      6  C   UNL     1      35.246 -21.651 -18.059  0.00  0.00    +0.006 C 
ATOM      7  C   UNL     1      32.508 -22.960 -15.919  0.00  0.00    +0.082 C 
ATOM      8  C   UNL     1      32.991 -20.872 -19.510  0.00  0.00    +0.203 C 
ATOM      9  C   UNL     1      34.261 -20.563 -19.987  0.00  0.00    +0.171 C 
ATOM     10  C   UNL     1      35.387 -20.952 -19.263  0.00  0.00    +0.040 C 
ATOM     11  C   UNL     1      31.325 -22.546 -16.693  0.00  0.00    +0.346 C 
ENDROOT
BRANCH   4  12
ATOM     12  C   UNL     1      34.816 -23.189 -15.414  0.00  0.00    +0.000 C 
ATOM     13  C   UNL     1      34.937 -24.553 -15.168  0.00  0.00    +0.000 C 
ATOM     14  C   UNL     1      35.691 -22.285 -14.817  0.00  0.00    +0.000 C 
ATOM     15  C   UNL     1      35.939 -25.019 -14.317  0.00  0.00    +0.000 C 
ATOM     16  C   UNL     1      36.694 -22.751 -13.966  0.00  0.00    +0.000 C 
ATOM     17  C   UNL     1      36.819 -24.117 -13.716  0.00  0.00    +0.000 C 
ENDBRANCH   4  12
BRANCH   8  18
ATOM     18  O   UNL     1      31.885 -20.495 -20.211  0.00  0.00    -0.501 OA
ATOM     19  H   UNL     1      31.476 -21.098 -20.800  0.00  0.00    +0.292 HD
ENDBRANCH   8  18
BRANCH   9  20
ATOM     20  O   UNL     1      34.418 -19.885 -21.157  0.00  0.00    -0.503 OA
ATOM     21  H   UNL     1      34.467 -18.950 -21.154  0.00  0.00    +0.292 HD
ENDBRANCH   9  20
TORSDOF 3
ENDMDL
MODEL 5
REMARK VINA RESULT:      -9.9     10.843     13.383
REMARK  Name = 5413034
REMARK  3 active torsions:
REMARK  status: ('A' for Active; 'I' for Inactive)
REMARK    1  A    between atoms: C_4  and  C_12
REMARK    2  A    between atoms: C_8  and  O_18
REMARK    3  A    between atoms: C_9  and  O_20
REMARK                            x       y       z     vdW  Elec       q    Type
REMARK                         _______ _______ _______ _____ _____    ______ ____
ROOT
ATOM      1  O   UNL     1      33.036 -23.959 -12.716  0.00  0.00    -0.418 OA
ATOM      2  O   UNL     1      30.948 -23.808 -13.630  0.00  0.00    -0.244 OA
ATOM      3  C   UNL     1      34.963 -23.252 -14.033  0.00  0.00    +0.038 C 
ATOM      4  C   UNL     1      34.064 -22.909 -15.146  0.00  0.00    +0.009 C 
ATOM      5  C   UNL     1      34.424 -23.766 -12.855  0.00  0.00    +0.185 C 
ATOM      6  C   UNL     1      36.352 -23.087 -14.102  0.00  0.00    +0.006 C 
ATOM      7  C   UNL     1      32.745 -23.105 -14.979  0.00  0.00    +0.082 C 
ATOM      8  C   UNL     1      35.221 -24.112 -11.764  0.00  0.00    +0.203 C 
ATOM      9  C   UNL     1      36.599 -23.940 -11.848  0.00  0.00    +0.171 C 
ATOM     10  C   UNL     1      37.165 -23.428 -13.015  0.00  0.00    +0.040 C 
ATOM     11  C   UNL     1      32.158 -23.645 -13.741  0.00  0.00    +0.346 C 
ENDROOT
BRANCH   4  12
ATOM     12  C   UNL     1      34.465 -22.365 -16.439  0.00  0.00    +0.000 C 
ATOM     13  C   UNL     1      33.563 -22.363 -17.499  0.00  0.00    +0.000 C 
ATOM     14  C   UNL     1      35.747 -21.849 -16.604  0.00  0.00    +0.000 C 
ATOM     15  C   UNL     1      33.945 -21.841 -18.734  0.00  0.00    +0.000 C 
ATOM     16  C   UNL     1      36.130 -21.327 -17.840  0.00  0.00    +0.000 C 
ATOM     17  C   UNL     1      35.230 -21.323 -18.905  0.00  0.00    +0.000 C 
ENDBRANCH   4  12
BRANCH   8  18
ATOM     18  O   UNL     1      34.661 -24.611 -10.627  0.00  0.00    -0.501 OA
ATOM     19  H   UNL     1      34.797 -24.177  -9.808  0.00  0.00    +0.292 HD
ENDBRANCH   8  18
BRANCH   9  20
ATOM     20  O   UNL     1      37.405 -24.266 -10.800  0.00  0.00    -0.503 OA
ATOM     21  H   UNL     1      37.148 -24.939 -10.202  0.00  0.00    +0.292 HD
ENDBRANCH   9  20
TORSDOF 3
ENDMDL
MODEL 6
REMARK VINA RESULT:      -9.8      9.233     11.835
REMARK  Name = 5413034
REMARK  3 active torsions:
REMARK  status: ('A' for Active; 'I' for Inactive)
REMARK    1  A    between atoms: C_4  and  C_12
REMARK    2  A    between atoms: C_8  and  O_18
REMARK    3  A    between atoms: C_9  and  O_20
REMARK                            x       y       z     vdW  Elec       q    Type
REMARK                         _______ _______ _______ _____ _____    ______ ____
ROOT
ATOM      1  O   UNL     1      31.169 -23.498 -14.899  0.00  0.00    -0.418 OA
ATOM      2  O   UNL     1      29.257 -22.981 -16.039  0.00  0.00    -0.244 OA
ATOM      3  C   UNL     1      33.325 -22.871 -15.849  0.00  0.00    +0.038 C 
ATOM      4  C   UNL     1      32.632 -22.284 -17.007  0.00  0.00    +0.009 C 
ATOM      5  C   UNL     1      32.574 -23.460 -14.834  0.00  0.00    +0.185 C 
ATOM      6  C   UNL     1      34.720 -22.868 -15.719  0.00  0.00    +0.006 C 
ATOM      7  C   UNL     1      31.290 -22.336 -17.038  0.00  0.00    +0.082 C 
ATOM      8  C   UNL     1      33.170 -24.035 -13.710  0.00  0.00    +0.203 C 
ATOM      9  C   UNL     1      34.556 -24.023 -13.595  0.00  0.00    +0.171 C 
ATOM     10  C   UNL     1      35.330 -23.440 -14.597  0.00  0.00    +0.040 C 
ATOM     11  C   UNL     1      30.481 -22.953 -15.971  0.00  0.00    +0.346 C 
ENDROOT
BRANCH   4  12
ATOM     12  C   UNL     1      33.266 -21.633 -18.150  0.00  0.00    +0.000 C 
ATOM     13  C   UNL     1      34.641 -21.741 -18.333  0.00  0.00    +0.000 C 
ATOM     14  C   UNL     1      32.489 -20.912 -19.052  0.00  0.00    +0.000 C 
ATOM     15  C   UNL     1      35.246 -21.122 -19.426  0.00  0.00    +0.000 C 
ATOM     16  C   UNL     1      33.095 -20.292 -20.146  0.00  0.00    +0.000 C 
ATOM     17  C   UNL     1      34.473 -20.397 -20.333  0.00  0.00    +0.000 C 
ENDBRANCH   4  12
BRANCH   8  18
ATOM     18  O   UNL     1      32.406 -24.602 -12.736  0.00  0.00    -0.501 OA
ATOM     19  H   UNL     1      32.556 -24.384 -11.837  0.00  0.00    +0.292 HD
ENDBRANCH   8  18
BRANCH   9  20
ATOM     20  O   UNL     1      35.168 -24.574 -12.511  0.00  0.00    -0.503 OA
ATOM     21  H   UNL     1      34.665 -25.048 -11.880  0.00  0.00    +0.292 HD
ENDBRANCH   9  20
TORSDOF 3
ENDMDL
MODEL 7
REMARK VINA RESULT:      -9.7     11.069     13.283
REMARK  Name = 5413034
REMARK  3 active torsions:
REMARK  status: ('A' for Active; 'I' for Inactive)
REMARK    1  A    between atoms: C_4  and  C_12
REMARK    2  A    between atoms: C_8  and  O_18
REMARK    3  A    between atoms: C_9  and  O_20
REMARK                            x       y       z     vdW  Elec       q    Type
REMARK                         _______ _______ _______ _____ _____    ______ ____
ROOT
ATOM      1  O   UNL     1      32.789 -24.088 -12.734  0.00  0.00    -0.418 OA
ATOM      2  O   UNL     1      34.907 -24.067 -11.877  0.00  0.00    -0.244 OA
ATOM      3  C   UNL     1      32.412 -23.244 -14.990  0.00  0.00    +0.038 C 
ATOM      4  C   UNL     1      33.848 -22.945 -15.107  0.00  0.00    +0.009 C 
ATOM      5  C   UNL     1      31.927 -23.804 -13.810  0.00  0.00    +0.185 C 
ATOM      6  C   UNL     1      31.498 -22.988 -16.020  0.00  0.00    +0.006 C 
ATOM      7  C   UNL     1      34.643 -23.230 -14.062  0.00  0.00    +0.082 C 
ATOM      8  C   UNL     1      30.577 -24.111 -13.635  0.00  0.00    +0.203 C 
ATOM      9  C   UNL     1      29.682 -23.851 -14.668  0.00  0.00    +0.171 C 
ATOM     10  C   UNL     1      30.141 -23.291 -15.859  0.00  0.00    +0.040 C 
ATOM     11  C   UNL     1      34.147 -23.824 -12.808  0.00  0.00    +0.346 C 
ENDROOT
BRANCH   4  12
ATOM     12  C   UNL     1      34.513 -22.360 -16.267  0.00  0.00    +0.000 C 
ATOM     13  C   UNL     1      33.834 -22.262 -17.478  0.00  0.00    +0.000 C 
ATOM     14  C   UNL     1      35.823 -21.901 -16.154  0.00  0.00    +0.000 C 
ATOM     15  C   UNL     1      34.469 -21.701 -18.586  0.00  0.00    +0.000 C 
ATOM     16  C   UNL     1      36.458 -21.340 -17.262  0.00  0.00    +0.000 C 
ATOM     17  C   UNL     1      35.782 -21.240 -18.478  0.00  0.00    +0.000 C 
ENDBRANCH   4  12
BRANCH   8  18
ATOM     18  O   UNL     1      30.137 -24.658 -12.468  0.00  0.00    -0.501 OA
ATOM     19  H   UNL     1      30.097 -25.589 -12.373  0.00  0.00    +0.292 HD
ENDBRANCH   8  18
BRANCH   9  20
ATOM     20  O   UNL     1      28.359 -24.140 -14.530  0.00  0.00    -0.503 OA
ATOM     21  H   UNL     1      28.006 -24.916 -14.916  0.00  0.00    +0.292 HD
ENDBRANCH   9  20
TORSDOF 3
ENDMDL
MODEL 8
REMARK VINA RESULT:      -9.6      2.971      6.472
REMARK  Name = 5413034
REMARK  3 active torsions:
REMARK  status: ('A' for Active; 'I' for Inactive)
REMARK    1  A    between atoms: C_4  and  C_12
REMARK    2  A    between atoms: C_8  and  O_18
REMARK    3  A    between atoms: C_9  and  O_20
REMARK                            x       y       z     vdW  Elec       q    Type
REMARK                         _______ _______ _______ _____ _____    ______ ____
ROOT
ATOM      1  O   UNL     1      32.512 -16.589 -25.119  0.00  0.00    -0.418 OA
ATOM      2  O   UNL     1      32.063 -18.704 -25.860  0.00  0.00    -0.244 OA
ATOM      3  C   UNL     1      33.838 -16.297 -23.094  0.00  0.00    +0.038 C 
ATOM      4  C   UNL     1      33.946 -17.758 -22.965  0.00  0.00    +0.009 C 
ATOM      5  C   UNL     1      33.126 -15.758 -24.163  0.00  0.00    +0.185 C 
ATOM      6  C   UNL     1      34.423 -15.410 -22.180  0.00  0.00    +0.006 C 
ATOM      7  C   UNL     1      33.349 -18.523 -23.895  0.00  0.00    +0.082 C 
ATOM      8  C   UNL     1      32.985 -14.381 -24.341  0.00  0.00    +0.203 C 
ATOM      9  C   UNL     1      33.573 -13.514 -23.426  0.00  0.00    +0.171 C 
ATOM     10  C   UNL     1      34.291 -14.027 -22.347  0.00  0.00    +0.040 C 
ATOM     11  C   UNL     1      32.594 -17.970 -25.033  0.00  0.00    +0.346 C 
ENDROOT
BRANCH   4  12
ATOM     12  C   UNL     1      34.651 -18.479 -21.910  0.00  0.00    +0.000 C 
ATOM     13  C   UNL     1      35.984 -18.184 -21.642  0.00  0.00    +0.000 C 
ATOM     14  C   UNL     1      33.984 -19.457 -21.176  0.00  0.00    +0.000 C 
ATOM     15  C   UNL     1      36.657 -18.872 -20.632  0.00  0.00    +0.000 C 
ATOM     16  C   UNL     1      34.657 -20.144 -20.166  0.00  0.00    +0.000 C 
ATOM     17  C   UNL     1      35.993 -19.853 -19.894  0.00  0.00    +0.000 C 
ENDBRANCH   4  12
BRANCH   8  18
ATOM     18  O   UNL     1      32.281 -13.888 -25.398  0.00  0.00    -0.501 OA
ATOM     19  H   UNL     1      31.504 -13.385 -25.250  0.00  0.00    +0.292 HD
ENDBRANCH   8  18
BRANCH   9  20
ATOM     20  O   UNL     1      33.456 -12.165 -23.573  0.00  0.00    -0.503 OA
ATOM     21  H   UNL     1      32.850 -11.812 -24.193  0.00  0.00    +0.292 HD
ENDBRANCH   9  20
TORSDOF 3
ENDMDL
MODEL 9
REMARK VINA RESULT:      -9.5      2.487      5.993
REMARK  Name = 5413034
REMARK  3 active torsions:
REMARK  status: ('A' for Active; 'I' for Inactive)
REMARK    1  A    between atoms: C_4  and  C_12
REMARK    2  A    between atoms: C_8  and  O_18
REMARK    3  A    between atoms: C_9  and  O_20
REMARK                            x       y       z     vdW  Elec       q    Type
REMARK                         _______ _______ _______ _____ _____    ______ ____
ROOT
ATOM      1  O   UNL     1      33.063 -14.253 -23.999  0.00  0.00    -0.418 OA
ATOM      2  O   UNL     1      33.525 -15.480 -25.871  0.00  0.00    -0.244 OA
ATOM      3  C   UNL     1      33.667 -15.149 -21.813  0.00  0.00    +0.038 C 
ATOM      4  C   UNL     1      34.206 -16.352 -22.467  0.00  0.00    +0.009 C 
ATOM      5  C   UNL     1      33.113 -14.140 -22.597  0.00  0.00    +0.185 C 
ATOM      6  C   UNL     1      33.684 -14.969 -20.424  0.00  0.00    +0.006 C 
ATOM      7  C   UNL     1      34.143 -16.429 -23.807  0.00  0.00    +0.082 C 
ATOM      8  C   UNL     1      32.585 -12.974 -22.039  0.00  0.00    +0.203 C 
ATOM      9  C   UNL     1      32.610 -12.810 -20.658  0.00  0.00    +0.171 C 
ATOM     10  C   UNL     1      33.159 -13.805 -19.851  0.00  0.00    +0.040 C 
ATOM     11  C   UNL     1      33.563 -15.370 -24.650  0.00  0.00    +0.346 C 
ENDROOT
BRANCH   4  12
ATOM     12  C   UNL     1      34.816 -17.496 -21.795  0.00  0.00    +0.000 C 
ATOM     13  C   UNL     1      36.202 -17.596 -21.718  0.00  0.00    +0.000 C 
ATOM     14  C   UNL     1      34.006 -18.479 -21.232  0.00  0.00    +0.000 C 
ATOM     15  C   UNL     1      36.784 -18.687 -21.075  0.00  0.00    +0.000 C 
ATOM     16  C   UNL     1      34.589 -19.571 -20.588  0.00  0.00    +0.000 C 
ATOM     17  C   UNL     1      35.978 -19.676 -20.509  0.00  0.00    +0.000 C 
ENDBRANCH   4  12
BRANCH   8  18
ATOM     18  O   UNL     1      32.050 -12.006 -22.835  0.00  0.00    -0.501 OA
ATOM     19  H   UNL     1      31.308 -11.516 -22.542  0.00  0.00    +0.292 HD
ENDBRANCH   8  18
BRANCH   9  20
ATOM     20  O   UNL     1      32.105 -11.684 -20.083  0.00  0.00    -0.503 OA
ATOM     21  H   UNL     1      32.397 -10.841 -20.367  0.00  0.00    +0.292 HD
ENDBRANCH   9  20
TORSDOF 3
ENDMDL
