MODEL 1
REMARK VINA RESULT:     -11.1      0.000      0.000
REMARK  Name = 1786
REMARK  8 active torsions:
REMARK  status: ('A' for Active; 'I' for Inactive)
REMARK    1  A    between atoms: O_1  and  C_2
REMARK    2  A    between atoms: O_1  and  C_13
REMARK    3  A    between atoms: C_3  and  C_10
REMARK    4  A    between atoms: C_13  and  C_14
REMARK    5  A    between atoms: C_14  and  C_15
REMARK    6  A    between atoms: C_15  and  C_16
REMARK    7  A    between atoms: C_16  and  C_17
REMARK    8  A    between atoms: C_17  and  C_20
REMARK                            x       y       z     vdW  Elec       q    Type
REMARK                         _______ _______ _______ _____ _____    ______ ____
ROOT
ATOM      1  O   UNL     1      33.356 -23.052 -17.968  0.00  0.00    -0.475 OA
ENDROOT
BRANCH   1   2
ATOM      2  C   UNL     1      33.608 -21.969 -18.768  0.00  0.00    +0.139 C 
ATOM      3  C   UNL     1      34.120 -19.769 -20.390  0.00  0.00    +0.053 C 
ATOM      4  C   UNL     1      34.920 -21.563 -18.984  0.00  0.00    +0.037 C 
ATOM      5  C   UNL     1      32.549 -21.286 -19.355  0.00  0.00    +0.037 C 
ATOM      6  C   UNL     1      35.177 -20.459 -19.798  0.00  0.00    +0.008 C 
ATOM      7  C   UNL     1      32.806 -20.182 -20.168  0.00  0.00    +0.008 C 
BRANCH   3  10
ATOM      8  O   UNL     1      33.900 -18.703 -22.505  0.00  0.00    -0.458 OA
ATOM      9  N   UNL     1      35.040 -17.538 -20.901  0.00  0.00    -0.234 NA
ATOM     10  C   UNL     1      34.391 -18.605 -21.246  0.00  0.00    +0.220 C 
ATOM     11  C   UNL     1      34.456 -17.592 -23.191  0.00  0.00    +0.233 C 
ATOM     12  C   UNL     1      34.950 -16.684 -22.090  0.00  0.00    +0.176 C 
ENDBRANCH   3  10
ENDBRANCH   1   2
BRANCH   1  13
ATOM     13  C   UNL     1      33.188 -22.799 -16.580  0.00  0.00    +0.205 C 
BRANCH  13  14
ATOM     14  C   UNL     1      31.701 -22.784 -16.259  0.00  0.00    +0.047 C 
BRANCH  14  15
ATOM     15  C   UNL     1      31.409 -23.414 -14.899  0.00  0.00    +0.004 C 
BRANCH  15  16
ATOM     16  C   UNL     1      30.047 -22.974 -14.362  0.00  0.00    +0.008 C 
BRANCH  16  17
ATOM     17  C   UNL     1      28.929 -23.896 -14.858  0.00  0.00    +0.067 C 
BRANCH  17  20
ATOM     18  O   UNL     1      27.777 -23.731 -16.961  0.00  0.00    -0.358 OA
ATOM     19  N   UNL     1      26.877 -22.941 -17.665  0.00  0.00    -0.082 NA
ATOM     20  C   UNL     1      27.970 -23.165 -15.762  0.00  0.00    +0.154 C 
ATOM     21  C   UNL     1      27.256 -22.039 -15.608  0.00  0.00    +0.054 C 
ATOM     22  C   UNL     1      26.579 -21.936 -16.836  0.00  0.00    +0.101 C 
ATOM     23  C   UNL     1      25.636 -20.890 -17.263  0.00  0.00    +0.056 C 
ENDBRANCH  17  20
ENDBRANCH  16  17
ENDBRANCH  15  16
ENDBRANCH  14  15
ENDBRANCH  13  14
ENDBRANCH   1  13
TORSDOF 8
ENDMDL
MODEL 2
REMARK VINA RESULT:     -10.9      4.633      8.982
REMARK  Name = 1786
REMARK  8 active torsions:
REMARK  status: ('A' for Active; 'I' for Inactive)
REMARK    1  A    between atoms: O_1  and  C_2
REMARK    2  A    between atoms: O_1  and  C_13
REMARK    3  A    between atoms: C_3  and  C_10
REMARK    4  A    between atoms: C_13  and  C_14
REMARK    5  A    between atoms: C_14  and  C_15
REMARK    6  A    between atoms: C_15  and  C_16
REMARK    7  A    between atoms: C_16  and  C_17
REMARK    8  A    between atoms: C_17  and  C_20
REMARK                            x       y       z     vdW  Elec       q    Type
REMARK                         _______ _______ _______ _____ _____    ______ ____
ROOT
ATOM      1  O   UNL     1      34.883 -21.283 -18.680  0.00  0.00    -0.475 OA
ENDROOT
BRANCH   1   2
ATOM      2  C   UNL     1      35.303 -21.673 -17.435  0.00  0.00    +0.139 C 
ATOM      3  C   UNL     1      36.156 -22.467 -14.911  0.00  0.00    +0.053 C 
ATOM      4  C   UNL     1      36.580 -21.337 -17.004  0.00  0.00    +0.037 C 
ATOM      5  C   UNL     1      34.446 -22.402 -16.618  0.00  0.00    +0.037 C 
ATOM      6  C   UNL     1      37.009 -21.736 -15.737  0.00  0.00    +0.008 C 
ATOM      7  C   UNL     1      34.875 -22.801 -15.351  0.00  0.00    +0.008 C 
BRANCH   3  10
ATOM      8  O   UNL     1      37.790 -23.546 -13.561  0.00  0.00    -0.458 OA
ATOM      9  N   UNL     1      35.980 -22.686 -12.460  0.00  0.00    -0.234 NA
ATOM     10  C   UNL     1      36.607 -22.887 -13.576  0.00  0.00    +0.220 C 
ATOM     11  C   UNL     1      37.911 -24.030 -12.232  0.00  0.00    +0.233 C 
ATOM     12  C   UNL     1      36.894 -23.232 -11.451  0.00  0.00    +0.176 C 
ENDBRANCH   3  10
ENDBRANCH   1   2
BRANCH   1  13
ATOM     13  C   UNL     1      33.483 -21.307 -18.921  0.00  0.00    +0.205 C 
BRANCH  13  14
ATOM     14  C   UNL     1      33.162 -20.344 -20.054  0.00  0.00    +0.047 C 
BRANCH  14  15
ATOM     15  C   UNL     1      34.427 -19.724 -20.644  0.00  0.00    +0.004 C 
BRANCH  15  16
ATOM     16  C   UNL     1      34.128 -18.982 -21.947  0.00  0.00    +0.008 C 
BRANCH  16  17
ATOM     17  C   UNL     1      35.202 -17.933 -22.249  0.00  0.00    +0.067 C 
BRANCH  17  20
ATOM     18  O   UNL     1      34.571 -16.300 -20.602  0.00  0.00    -0.358 OA
ATOM     19  N   UNL     1      34.132 -14.989 -20.462  0.00  0.00    -0.082 NA
ATOM     20  C   UNL     1      34.727 -16.543 -21.910  0.00  0.00    +0.154 C 
ATOM     21  C   UNL     1      34.421 -15.478 -22.668  0.00  0.00    +0.054 C 
ATOM     22  C   UNL     1      34.050 -14.518 -21.710  0.00  0.00    +0.101 C 
ATOM     23  C   UNL     1      33.608 -13.133 -21.942  0.00  0.00    +0.056 C 
ENDBRANCH  17  20
ENDBRANCH  16  17
ENDBRANCH  15  16
ENDBRANCH  14  15
ENDBRANCH  13  14
ENDBRANCH   1  13
TORSDOF 8
ENDMDL
MODEL 3
REMARK VINA RESULT:     -10.8      4.942      7.678
REMARK  Name = 1786
REMARK  8 active torsions:
REMARK  status: ('A' for Active; 'I' for Inactive)
REMARK    1  A    between atoms: O_1  and  C_2
REMARK    2  A    between atoms: O_1  and  C_13
REMARK    3  A    between atoms: C_3  and  C_10
REMARK    4  A    between atoms: C_13  and  C_14
REMARK    5  A    between atoms: C_14  and  C_15
REMARK    6  A    between atoms: C_15  and  C_16
REMARK    7  A    between atoms: C_16  and  C_17
REMARK    8  A    between atoms: C_17  and  C_20
REMARK                            x       y       z     vdW  Elec       q    Type
REMARK                         _______ _______ _______ _____ _____    ______ ____
ROOT
ATOM      1  O   UNL     1      35.267 -17.042 -22.024  0.00  0.00    -0.475 OA
ENDROOT
BRANCH   1   2
ATOM      2  C   UNL     1      34.577 -15.858 -22.034  0.00  0.00    +0.139 C 
ATOM      3  C   UNL     1      33.176 -13.456 -22.054  0.00  0.00    +0.053 C 
ATOM      4  C   UNL     1      34.109 -15.325 -20.839  0.00  0.00    +0.037 C 
ATOM      5  C   UNL     1      34.352 -15.203 -23.240  0.00  0.00    +0.037 C 
ATOM      6  C   UNL     1      33.406 -14.119 -20.849  0.00  0.00    +0.008 C 
ATOM      7  C   UNL     1      33.648 -13.999 -23.250  0.00  0.00    +0.008 C 
BRANCH   3  10
ATOM      8  O   UNL     1      31.546 -12.042 -21.053  0.00  0.00    -0.458 OA
ATOM      9  N   UNL     1      32.559 -11.237 -22.938  0.00  0.00    -0.234 NA
ATOM     10  C   UNL     1      32.434 -12.187 -22.065  0.00  0.00    +0.220 C 
ATOM     11  C   UNL     1      30.815 -10.873 -21.385  0.00  0.00    +0.233 C 
ATOM     12  C   UNL     1      31.657 -10.194 -22.439  0.00  0.00    +0.176 C 
ENDBRANCH   3  10
ENDBRANCH   1   2
BRANCH   1  13
ATOM     13  C   UNL     1      34.525 -18.219 -22.312  0.00  0.00    +0.205 C 
BRANCH  13  14
ATOM     14  C   UNL     1      34.735 -19.221 -21.186  0.00  0.00    +0.047 C 
BRANCH  14  15
ATOM     15  C   UNL     1      33.409 -19.740 -20.636  0.00  0.00    +0.004 C 
BRANCH  15  16
ATOM     16  C   UNL     1      33.630 -20.789 -19.546  0.00  0.00    +0.008 C 
BRANCH  16  17
ATOM     17  C   UNL     1      35.116 -21.122 -19.388  0.00  0.00    +0.067 C 
BRANCH  17  20
ATOM     18  O   UNL     1      34.502 -22.437 -17.472  0.00  0.00    -0.358 OA
ATOM     19  N   UNL     1      34.934 -22.803 -16.203  0.00  0.00    -0.082 NA
ATOM     20  C   UNL     1      35.426 -21.622 -18.000  0.00  0.00    +0.154 C 
ATOM     21  C   UNL     1      36.458 -21.412 -17.168  0.00  0.00    +0.054 C 
ATOM     22  C   UNL     1      36.105 -22.178 -16.044  0.00  0.00    +0.101 C 
ATOM     23  C   UNL     1      36.858 -22.344 -14.790  0.00  0.00    +0.056 C 
ENDBRANCH  17  20
ENDBRANCH  16  17
ENDBRANCH  15  16
ENDBRANCH  14  15
ENDBRANCH  13  14
ENDBRANCH   1  13
TORSDOF 8
ENDMDL
MODEL 4
REMARK VINA RESULT:     -10.8      5.087      8.088
REMARK  Name = 1786
REMARK  8 active torsions:
REMARK  status: ('A' for Active; 'I' for Inactive)
REMARK    1  A    between atoms: O_1  and  C_2
REMARK    2  A    between atoms: O_1  and  C_13
REMARK    3  A    between atoms: C_3  and  C_10
REMARK    4  A    between atoms: C_13  and  C_14
REMARK    5  A    between atoms: C_14  and  C_15
REMARK    6  A    between atoms: C_15  and  C_16
REMARK    7  A    between atoms: C_16  and  C_17
REMARK    8  A    between atoms: C_17  and  C_20
REMARK                            x       y       z     vdW  Elec       q    Type
REMARK                         _______ _______ _______ _____ _____    ______ ____
ROOT
ATOM      1  O   UNL     1      34.892 -16.452 -21.906  0.00  0.00    -0.475 OA
ENDROOT
BRANCH   1   2
ATOM      2  C   UNL     1      34.199 -15.271 -21.966  0.00  0.00    +0.139 C 
ATOM      3  C   UNL     1      32.795 -12.874 -22.087  0.00  0.00    +0.053 C 
ATOM      4  C   UNL     1      33.909 -14.705 -23.202  0.00  0.00    +0.037 C 
ATOM      5  C   UNL     1      33.794 -14.651 -20.789  0.00  0.00    +0.037 C 
ATOM      6  C   UNL     1      33.204 -13.502 -23.263  0.00  0.00    +0.008 C 
ATOM      7  C   UNL     1      33.090 -13.448 -20.850  0.00  0.00    +0.008 C 
BRANCH   3  10
ATOM      8  O   UNL     1      32.403 -10.797 -23.180  0.00  0.00    -0.458 OA
ATOM      9  N   UNL     1      31.129 -11.219 -21.329  0.00  0.00    -0.234 NA
ATOM     10  C   UNL     1      32.053 -11.606 -22.152  0.00  0.00    +0.220 C 
ATOM     11  C   UNL     1      31.730  -9.576 -22.918  0.00  0.00    +0.233 C 
ATOM     12  C   UNL     1      30.684  -9.941 -21.891  0.00  0.00    +0.176 C 
ENDBRANCH   3  10
ENDBRANCH   1   2
BRANCH   1  13
ATOM     13  C   UNL     1      34.679 -17.375 -22.965  0.00  0.00    +0.205 C 
BRANCH  13  14
ATOM     14  C   UNL     1      34.525 -18.770 -22.378  0.00  0.00    +0.047 C 
BRANCH  14  15
ATOM     15  C   UNL     1      34.564 -18.748 -20.851  0.00  0.00    +0.004 C 
BRANCH  15  16
ATOM     16  C   UNL     1      34.374 -20.149 -20.269  0.00  0.00    +0.008 C 
BRANCH  16  17
ATOM     17  C   UNL     1      35.703 -20.731 -19.776  0.00  0.00    +0.067 C 
BRANCH  17  20
ATOM     18  O   UNL     1      34.449 -22.059 -18.214  0.00  0.00    -0.358 OA
ATOM     19  N   UNL     1      34.475 -22.545 -16.912  0.00  0.00    -0.082 NA
ATOM     20  C   UNL     1      35.564 -21.340 -18.405  0.00  0.00    +0.154 C 
ATOM     21  C   UNL     1      36.345 -21.309 -17.313  0.00  0.00    +0.054 C 
ATOM     22  C   UNL     1      35.617 -22.084 -16.394  0.00  0.00    +0.101 C 
ATOM     23  C   UNL     1      35.975 -22.411 -15.004  0.00  0.00    +0.056 C 
ENDBRANCH  17  20
ENDBRANCH  16  17
ENDBRANCH  15  16
ENDBRANCH  14  15
ENDBRANCH  13  14
ENDBRANCH   1  13
TORSDOF 8
ENDMDL
MODEL 5
REMARK VINA RESULT:     -10.7      3.754      6.546
REMARK  Name = 1786
REMARK  8 active torsions:
REMARK  status: ('A' for Active; 'I' for Inactive)
REMARK    1  A    between atoms: O_1  and  C_2
REMARK    2  A    between atoms: O_1  and  C_13
REMARK    3  A    between atoms: C_3  and  C_10
REMARK    4  A    between atoms: C_13  and  C_14
REMARK    5  A    between atoms: C_14  and  C_15
REMARK    6  A    between atoms: C_15  and  C_16
REMARK    7  A    between atoms: C_16  and  C_17
REMARK    8  A    between atoms: C_17  and  C_20
REMARK                            x       y       z     vdW  Elec       q    Type
REMARK                         _______ _______ _______ _____ _____    ______ ____
ROOT
ATOM      1  O   UNL     1      33.515 -23.025 -17.813  0.00  0.00    -0.475 OA
ENDROOT
BRANCH   1   2
ATOM      2  C   UNL     1      33.728 -21.958 -18.647  0.00  0.00    +0.139 C 
ATOM      3  C   UNL     1      34.161 -19.793 -20.337  0.00  0.00    +0.053 C 
ATOM      4  C   UNL     1      35.028 -21.567 -18.945  0.00  0.00    +0.037 C 
ATOM      5  C   UNL     1      32.641 -21.278 -19.185  0.00  0.00    +0.037 C 
ATOM      6  C   UNL     1      35.245 -20.481 -19.794  0.00  0.00    +0.008 C 
ATOM      7  C   UNL     1      32.858 -20.191 -20.032  0.00  0.00    +0.008 C 
BRANCH   3  10
ATOM      8  O   UNL     1      33.913 -18.806 -22.487  0.00  0.00    -0.458 OA
ATOM      9  N   UNL     1      34.991 -17.543 -20.916  0.00  0.00    -0.234 NA
ATOM     10  C   UNL     1      34.389 -18.647 -21.230  0.00  0.00    +0.220 C 
ATOM     11  C   UNL     1      34.427 -17.696 -23.206  0.00  0.00    +0.233 C 
ATOM     12  C   UNL     1      34.875 -16.733 -22.133  0.00  0.00    +0.176 C 
ENDBRANCH   3  10
ENDBRANCH   1   2
BRANCH   1  13
ATOM     13  C   UNL     1      32.399 -22.941 -16.938  0.00  0.00    +0.205 C 
BRANCH  13  14
ATOM     14  C   UNL     1      32.902 -22.871 -15.504  0.00  0.00    +0.047 C 
BRANCH  14  15
ATOM     15  C   UNL     1      34.326 -23.410 -15.378  0.00  0.00    +0.004 C 
BRANCH  15  16
ATOM     16  C   UNL     1      35.208 -22.467 -14.559  0.00  0.00    +0.008 C 
BRANCH  16  17
ATOM     17  C   UNL     1      35.843 -23.193 -13.369  0.00  0.00    +0.067 C 
BRANCH  17  20
ATOM     18  O   UNL     1      37.863 -23.096 -14.668  0.00  0.00    -0.358 OA
ATOM     19  N   UNL     1      39.067 -23.756 -14.882  0.00  0.00    -0.082 NA
ATOM     20  C   UNL     1      37.187 -23.773 -13.729  0.00  0.00    +0.154 C 
ATOM     21  C   UNL     1      37.857 -24.851 -13.294  0.00  0.00    +0.054 C 
ATOM     22  C   UNL     1      39.041 -24.802 -14.050  0.00  0.00    +0.101 C 
ATOM     23  C   UNL     1      40.178 -25.735 -14.011  0.00  0.00    +0.056 C 
ENDBRANCH  17  20
ENDBRANCH  16  17
ENDBRANCH  15  16
ENDBRANCH  14  15
ENDBRANCH  13  14
ENDBRANCH   1  13
TORSDOF 8
ENDMDL
MODEL 6
REMARK VINA RESULT:     -10.7      3.512      9.078
REMARK  Name = 1786
REMARK  8 active torsions:
REMARK  status: ('A' for Active; 'I' for Inactive)
REMARK    1  A    between atoms: O_1  and  C_2
REMARK    2  A    between atoms: O_1  and  C_13
REMARK    3  A    between atoms: C_3  and  C_10
REMARK    4  A    between atoms: C_13  and  C_14
REMARK    5  A    between atoms: C_14  and  C_15
REMARK    6  A    between atoms: C_15  and  C_16
REMARK    7  A    between atoms: C_16  and  C_17
REMARK    8  A    between atoms: C_17  and  C_20
REMARK                            x       y       z     vdW  Elec       q    Type
REMARK                         _______ _______ _______ _____ _____    ______ ____
ROOT
ATOM      1  O   UNL     1      35.254 -19.144 -21.817  0.00  0.00    -0.475 OA
ENDROOT
BRANCH   1   2
ATOM      2  C   UNL     1      34.639 -19.839 -20.809  0.00  0.00    +0.139 C 
ATOM      3  C   UNL     1      33.389 -21.252 -18.765  0.00  0.00    +0.053 C 
ATOM      4  C   UNL     1      35.405 -20.569 -19.908  0.00  0.00    +0.037 C 
ATOM      5  C   UNL     1      33.253 -19.808 -20.699  0.00  0.00    +0.037 C 
ATOM      6  C   UNL     1      34.779 -21.278 -18.882  0.00  0.00    +0.008 C 
ATOM      7  C   UNL     1      32.626 -20.517 -19.674  0.00  0.00    +0.008 C 
BRANCH   3  10
ATOM      8  O   UNL     1      33.570 -22.519 -16.760  0.00  0.00    -0.458 OA
ATOM      9  N   UNL     1      31.453 -22.193 -17.561  0.00  0.00    -0.234 NA
ATOM     10  C   UNL     1      32.729 -21.999 -17.686  0.00  0.00    +0.220 C 
ATOM     11  C   UNL     1      32.748 -23.356 -15.962  0.00  0.00    +0.233 C 
ATOM     12  C   UNL     1      31.340 -22.921 -16.293  0.00  0.00    +0.176 C 
ENDBRANCH   3  10
ENDBRANCH   1   2
BRANCH   1  13
ATOM     13  C   UNL     1      35.915 -17.939 -21.454  0.00  0.00    +0.205 C 
BRANCH  13  14
ATOM     14  C   UNL     1      34.881 -16.830 -21.330  0.00  0.00    +0.047 C 
BRANCH  14  15
ATOM     15  C   UNL     1      34.417 -16.334 -22.698  0.00  0.00    +0.004 C 
BRANCH  15  16
ATOM     16  C   UNL     1      34.281 -14.812 -22.722  0.00  0.00    +0.008 C 
BRANCH  16  17
ATOM     17  C   UNL     1      33.766 -14.278 -21.382  0.00  0.00    +0.067 C 
BRANCH  17  20
ATOM     18  O   UNL     1      33.172 -12.319 -22.641  0.00  0.00    -0.358 OA
ATOM     19  N   UNL     1      32.275 -11.257 -22.669  0.00  0.00    -0.082 NA
ATOM     20  C   UNL     1      32.883 -13.071 -21.571  0.00  0.00    +0.154 C 
ATOM     21  C   UNL     1      31.846 -12.585 -20.870  0.00  0.00    +0.054 C 
ATOM     22  C   UNL     1      31.493 -11.438 -21.601  0.00  0.00    +0.101 C 
ATOM     23  C   UNL     1      30.413 -10.480 -21.315  0.00  0.00    +0.056 C 
ENDBRANCH  17  20
ENDBRANCH  16  17
ENDBRANCH  15  16
ENDBRANCH  14  15
ENDBRANCH  13  14
ENDBRANCH   1  13
TORSDOF 8
ENDMDL
MODEL 7
REMARK VINA RESULT:     -10.6      3.483      6.288
REMARK  Name = 1786
REMARK  8 active torsions:
REMARK  status: ('A' for Active; 'I' for Inactive)
REMARK    1  A    between atoms: O_1  and  C_2
REMARK    2  A    between atoms: O_1  and  C_13
REMARK    3  A    between atoms: C_3  and  C_10
REMARK    4  A    between atoms: C_13  and  C_14
REMARK    5  A    between atoms: C_14  and  C_15
REMARK    6  A    between atoms: C_15  and  C_16
REMARK    7  A    between atoms: C_16  and  C_17
REMARK    8  A    between atoms: C_17  and  C_20
REMARK                            x       y       z     vdW  Elec       q    Type
REMARK                         _______ _______ _______ _____ _____    ______ ____
ROOT
ATOM      1  O   UNL     1      35.127 -17.331 -20.923  0.00  0.00    -0.475 OA
ENDROOT
BRANCH   1   2
ATOM      2  C   UNL     1      34.598 -16.119 -21.287  0.00  0.00    +0.139 C 
ATOM      3  C   UNL     1      33.528 -13.661 -22.025  0.00  0.00    +0.053 C 
ATOM      4  C   UNL     1      34.607 -15.738 -22.624  0.00  0.00    +0.037 C 
ATOM      5  C   UNL     1      34.060 -15.284 -20.315  0.00  0.00    +0.037 C 
ATOM      6  C   UNL     1      34.070 -14.505 -22.994  0.00  0.00    +0.008 C 
ATOM      7  C   UNL     1      33.524 -14.050 -20.685  0.00  0.00    +0.008 C 
BRANCH   3  10
ATOM      8  O   UNL     1      31.998 -11.893 -21.588  0.00  0.00    -0.458 OA
ATOM      9  N   UNL     1      33.306 -11.659 -23.449  0.00  0.00    -0.234 NA
ATOM     10  C   UNL     1      32.964 -12.361 -22.414  0.00  0.00    +0.220 C 
ATOM     11  C   UNL     1      31.466 -10.765 -22.265  0.00  0.00    +0.233 C 
ATOM     12  C   UNL     1      32.499 -10.442 -23.319  0.00  0.00    +0.176 C 
ENDBRANCH   3  10
ENDBRANCH   1   2
BRANCH   1  13
ATOM     13  C   UNL     1      35.003 -18.392 -21.861  0.00  0.00    +0.205 C 
BRANCH  13  14
ATOM     14  C   UNL     1      33.902 -19.333 -21.394  0.00  0.00    +0.047 C 
BRANCH  14  15
ATOM     15  C   UNL     1      34.372 -20.228 -20.249  0.00  0.00    +0.004 C 
BRANCH  15  16
ATOM     16  C   UNL     1      33.190 -20.878 -19.530  0.00  0.00    +0.008 C 
BRANCH  16  17
ATOM     17  C   UNL     1      33.661 -21.947 -18.540  0.00  0.00    +0.067 C 
BRANCH  17  20
ATOM     18  O   UNL     1      31.359 -21.864 -17.854  0.00  0.00    -0.358 OA
ATOM     19  N   UNL     1      30.502 -22.236 -16.825  0.00  0.00    -0.082 NA
ATOM     20  C   UNL     1      32.593 -22.272 -17.527  0.00  0.00    +0.154 C 
ATOM     21  C   UNL     1      32.627 -22.899 -16.340  0.00  0.00    +0.054 C 
ATOM     22  C   UNL     1      31.283 -22.853 -15.932  0.00  0.00    +0.101 C 
ATOM     23  C   UNL     1      30.696 -23.387 -14.692  0.00  0.00    +0.056 C 
ENDBRANCH  17  20
ENDBRANCH  16  17
ENDBRANCH  15  16
ENDBRANCH  14  15
ENDBRANCH  13  14
ENDBRANCH   1  13
TORSDOF 8
ENDMDL
MODEL 8
REMARK VINA RESULT:     -10.5      5.630      7.101
REMARK  Name = 1786
REMARK  8 active torsions:
REMARK  status: ('A' for Active; 'I' for Inactive)
REMARK    1  A    between atoms: O_1  and  C_2
REMARK    2  A    between atoms: O_1  and  C_13
REMARK    3  A    between atoms: C_3  and  C_10
REMARK    4  A    between atoms: C_13  and  C_14
REMARK    5  A    between atoms: C_14  and  C_15
REMARK    6  A    between atoms: C_15  and  C_16
REMARK    7  A    between atoms: C_16  and  C_17
REMARK    8  A    between atoms: C_17  and  C_20
REMARK                            x       y       z     vdW  Elec       q    Type
REMARK                         _______ _______ _______ _____ _____    ______ ____
ROOT
ATOM      1  O   UNL     1      35.262 -19.611 -20.898  0.00  0.00    -0.475 OA
ENDROOT
BRANCH   1   2
ATOM      2  C   UNL     1      34.858 -18.548 -21.663  0.00  0.00    +0.139 C 
ATOM      3  C   UNL     1      34.035 -16.392 -23.214  0.00  0.00    +0.053 C 
ATOM      4  C   UNL     1      34.991 -17.255 -21.170  0.00  0.00    +0.037 C 
ATOM      5  C   UNL     1      34.318 -18.774 -22.924  0.00  0.00    +0.037 C 
ATOM      6  C   UNL     1      34.578 -16.173 -21.949  0.00  0.00    +0.008 C 
ATOM      7  C   UNL     1      33.904 -17.692 -23.702  0.00  0.00    +0.008 C 
BRANCH   3  10
ATOM      8  O   UNL     1      33.520 -14.075 -23.370  0.00  0.00    -0.458 OA
ATOM      9  N   UNL     1      33.294 -15.289 -25.293  0.00  0.00    -0.234 NA
ATOM     10  C   UNL     1      33.599 -15.252 -24.034  0.00  0.00    +0.220 C 
ATOM     11  C   UNL     1      32.888 -13.192 -24.283  0.00  0.00    +0.233 C 
ATOM     12  C   UNL     1      33.008 -13.889 -25.618  0.00  0.00    +0.176 C 
ENDBRANCH   3  10
ENDBRANCH   1   2
BRANCH   1  13
ATOM     13  C   UNL     1      34.275 -20.226 -20.083  0.00  0.00    +0.205 C 
BRANCH  13  14
ATOM     14  C   UNL     1      34.878 -21.459 -19.427  0.00  0.00    +0.047 C 
BRANCH  14  15
ATOM     15  C   UNL     1      36.001 -21.093 -18.459  0.00  0.00    +0.004 C 
BRANCH  15  16
ATOM     16  C   UNL     1      35.805 -21.762 -17.099  0.00  0.00    +0.008 C 
BRANCH  16  17
ATOM     17  C   UNL     1      37.062 -21.642 -16.233  0.00  0.00    +0.067 C 
BRANCH  17  20
ATOM     18  O   UNL     1      37.139 -21.991 -13.856  0.00  0.00    -0.358 OA
ATOM     19  N   UNL     1      37.075 -22.985 -12.887  0.00  0.00    -0.082 NA
ATOM     20  C   UNL     1      37.014 -22.579 -15.054  0.00  0.00    +0.154 C 
ATOM     21  C   UNL     1      36.869 -23.911 -14.957  0.00  0.00    +0.054 C 
ATOM     22  C   UNL     1      36.914 -24.123 -13.568  0.00  0.00    +0.101 C 
ATOM     23  C   UNL     1      36.806 -25.400 -12.845  0.00  0.00    +0.056 C 
ENDBRANCH  17  20
ENDBRANCH  16  17
ENDBRANCH  15  16
ENDBRANCH  14  15
ENDBRANCH  13  14
ENDBRANCH   1  13
TORSDOF 8
ENDMDL
MODEL 9
REMARK VINA RESULT:     -10.3      6.444     11.296
REMARK  Name = 1786
REMARK  8 active torsions:
REMARK  status: ('A' for Active; 'I' for Inactive)
REMARK    1  A    between atoms: O_1  and  C_2
REMARK    2  A    between atoms: O_1  and  C_13
REMARK    3  A    between atoms: C_3  and  C_10
REMARK    4  A    between atoms: C_13  and  C_14
REMARK    5  A    between atoms: C_14  and  C_15
REMARK    6  A    between atoms: C_15  and  C_16
REMARK    7  A    between atoms: C_16  and  C_17
REMARK    8  A    between atoms: C_17  and  C_20
REMARK                            x       y       z     vdW  Elec       q    Type
REMARK                         _______ _______ _______ _____ _____    ______ ____
ROOT
ATOM      1  O   UNL     1      33.722 -13.603 -23.535  0.00  0.00    -0.475 OA
ENDROOT
BRANCH   1   2
ATOM      2  C   UNL     1      34.044 -14.777 -22.905  0.00  0.00    +0.139 C 
ATOM      3  C   UNL     1      34.695 -17.160 -21.628  0.00  0.00    +0.053 C 
ATOM      4  C   UNL     1      34.333 -15.907 -23.661  0.00  0.00    +0.037 C 
ATOM      5  C   UNL     1      34.077 -14.826 -21.516  0.00  0.00    +0.037 C 
ATOM      6  C   UNL     1      34.660 -17.103 -23.021  0.00  0.00    +0.008 C 
ATOM      7  C   UNL     1      34.403 -16.022 -20.875  0.00  0.00    +0.008 C 
BRANCH   3  10
ATOM      8  O   UNL     1      34.065 -19.361 -20.984  0.00  0.00    -0.458 OA
ATOM      9  N   UNL     1      36.155 -18.684 -20.351  0.00  0.00    -0.234 NA
ATOM     10  C   UNL     1      35.038 -18.419 -20.952  0.00  0.00    +0.220 C 
ATOM     11  C   UNL     1      34.526 -20.378 -20.107  0.00  0.00    +0.233 C 
ATOM     12  C   UNL     1      35.995 -20.079 -19.929  0.00  0.00    +0.176 C 
ENDBRANCH   3  10
ENDBRANCH   1   2
BRANCH   1  13
ATOM     13  C   UNL     1      33.455 -12.482 -22.704  0.00  0.00    +0.205 C 
BRANCH  13  14
ATOM     14  C   UNL     1      31.950 -12.340 -22.536  0.00  0.00    +0.047 C 
BRANCH  14  15
ATOM     15  C   UNL     1      31.572 -11.988 -21.099  0.00  0.00    +0.004 C 
BRANCH  15  16
ATOM     16  C   UNL     1      30.804 -10.668 -21.033  0.00  0.00    +0.008 C 
BRANCH  16  17
ATOM     17  C   UNL     1      31.141  -9.890 -19.758  0.00  0.00    +0.067 C 
BRANCH  17  20
ATOM     18  O   UNL     1      32.043  -7.779 -19.046  0.00  0.00    -0.358 OA
ATOM     19  N   UNL     1      32.295  -6.485 -19.485  0.00  0.00    -0.082 NA
ATOM     20  C   UNL     1      31.485  -8.454 -20.060  0.00  0.00    +0.154 C 
ATOM     21  C   UNL     1      31.341  -7.698 -21.160  0.00  0.00    +0.054 C 
ATOM     22  C   UNL     1      31.866  -6.460 -20.751  0.00  0.00    +0.101 C 
ATOM     23  C   UNL     1      31.980  -5.222 -21.538  0.00  0.00    +0.056 C 
ENDBRANCH  17  20
ENDBRANCH  16  17
ENDBRANCH  15  16
ENDBRANCH  14  15
ENDBRANCH  13  14
ENDBRANCH   1  13
TORSDOF 8
ENDMDL
