MODEL 1
REMARK VINA RESULT:     -11.5      0.000      0.000
REMARK  Name = 10249182
REMARK  4 active torsions:
REMARK  status: ('A' for Active; 'I' for Inactive)
REMARK    1  A    between atoms: C_4  and  N_17
REMARK    2  A    between atoms: C_6  and  C_11
REMARK    3  A    between atoms: N_17  and  C_19
REMARK    4  A    between atoms: C_19  and  C_22
REMARK                            x       y       z     vdW  Elec       q    Type
REMARK                         _______ _______ _______ _____ _____    ______ ____
ROOT
ATOM      1 BR   UNL     1      28.449 -23.322 -15.463  0.00  0.00    -0.031 Br
ATOM      2  N   UNL     1      31.360 -23.531 -15.034  0.00  0.00    -0.242 N 
ATOM      3  N   UNL     1      31.519 -24.631 -13.096  0.00  0.00    -0.225 NA
ATOM      4  C   UNL     1      33.624 -23.932 -14.272  0.00  0.00    +0.078 C 
ATOM      5  C   UNL     1      32.207 -24.067 -14.070  0.00  0.00    +0.153 C 
ATOM      6  C   UNL     1      33.124 -22.734 -16.394  0.00  0.00    +0.017 C 
ATOM      7  C   UNL     1      34.039 -23.291 -15.390  0.00  0.00    +0.018 C 
ATOM      8  C   UNL     1      31.801 -22.874 -16.177  0.00  0.00    +0.071 C 
ATOM      9  C   UNL     1      30.076 -23.781 -14.621  0.00  0.00    +0.111 C 
ATOM     10  C   UNL     1      30.202 -24.457 -13.432  0.00  0.00    +0.122 C 
ENDROOT
BRANCH   6  11
ATOM     11  C   UNL     1      33.587 -22.029 -17.603  0.00  0.00    +0.001 C 
ATOM     12  C   UNL     1      32.661 -21.572 -18.541  0.00  0.00    +0.000 C 
ATOM     13  C   UNL     1      34.950 -21.820 -17.811  0.00  0.00    +0.000 C 
ATOM     14  C   UNL     1      33.099 -20.904 -19.686  0.00  0.00    +0.000 C 
ATOM     15  C   UNL     1      35.388 -21.153 -18.955  0.00  0.00    +0.000 C 
ATOM     16  C   UNL     1      34.461 -20.695 -19.893  0.00  0.00    +0.000 C 
ENDBRANCH   6  11
BRANCH   4  17
ATOM     17  N   UNL     1      34.499 -24.443 -13.352  0.00  0.00    -0.327 N 
ATOM     18  H   UNL     1      34.386 -25.376 -13.055  0.00  0.00    +0.147 HD
BRANCH  17  19
ATOM     19  C   UNL     1      35.573 -23.671 -12.805  0.00  0.00    +0.117 C 
BRANCH  19  22
ATOM     20  N   UNL     1      38.730 -25.703 -13.080  0.00  0.00    -0.223 NA
ATOM     21  N   UNL     1      38.782 -23.968 -14.752  0.00  0.00    -0.223 NA
ATOM     22  C   UNL     1      36.913 -24.161 -13.272  0.00  0.00    +0.036 C 
ATOM     23  C   UNL     1      37.527 -25.236 -12.685  0.00  0.00    +0.100 C 
ATOM     24  C   UNL     1      37.577 -23.554 -14.306  0.00  0.00    +0.100 C 
ATOM     25  C   UNL     1      39.292 -25.032 -14.103  0.00  0.00    +0.199 C 
ENDBRANCH  19  22
ENDBRANCH  17  19
ENDBRANCH   4  17
TORSDOF 4
ENDMDL
MODEL 2
REMARK VINA RESULT:     -11.0      3.765      7.159
REMARK  Name = 10249182
REMARK  4 active torsions:
REMARK  status: ('A' for Active; 'I' for Inactive)
REMARK    1  A    between atoms: C_4  and  N_17
REMARK    2  A    between atoms: C_6  and  C_11
REMARK    3  A    between atoms: N_17  and  C_19
REMARK    4  A    between atoms: C_19  and  C_22
REMARK                            x       y       z     vdW  Elec       q    Type
REMARK                         _______ _______ _______ _____ _____    ______ ____
ROOT
ATOM      1 BR   UNL     1      36.288 -22.791 -13.313  0.00  0.00    -0.031 Br
ATOM      2  N   UNL     1      34.748 -22.461 -15.807  0.00  0.00    -0.242 N 
ATOM      3  N   UNL     1      36.288 -21.796 -17.282  0.00  0.00    -0.225 NA
ATOM      4  C   UNL     1      33.911 -22.058 -18.044  0.00  0.00    +0.078 C 
ATOM      5  C   UNL     1      35.011 -22.081 -17.119  0.00  0.00    +0.153 C 
ATOM      6  C   UNL     1      32.439 -22.809 -16.185  0.00  0.00    +0.017 C 
ATOM      7  C   UNL     1      32.691 -22.410 -17.575  0.00  0.00    +0.018 C 
ATOM      8  C   UNL     1      33.489 -22.819 -15.340  0.00  0.00    +0.071 C 
ATOM      9  C   UNL     1      35.938 -22.403 -15.128  0.00  0.00    +0.111 C 
ATOM     10  C   UNL     1      36.866 -21.994 -16.055  0.00  0.00    +0.122 C 
ENDROOT
BRANCH   6  11
ATOM     11  C   UNL     1      31.104 -23.181 -15.683  0.00  0.00    +0.001 C 
ATOM     12  C   UNL     1      30.981 -24.121 -14.660  0.00  0.00    +0.000 C 
ATOM     13  C   UNL     1      29.962 -22.594 -16.230  0.00  0.00    +0.000 C 
ATOM     14  C   UNL     1      29.717 -24.474 -14.183  0.00  0.00    +0.000 C 
ATOM     15  C   UNL     1      28.700 -22.946 -15.754  0.00  0.00    +0.000 C 
ATOM     16  C   UNL     1      28.577 -23.887 -14.731  0.00  0.00    +0.000 C 
ENDBRANCH   6  11
BRANCH   4  17
ATOM     17  N   UNL     1      34.119 -21.691 -19.346  0.00  0.00    -0.327 N 
ATOM     18  H   UNL     1      34.740 -22.221 -19.897  0.00  0.00    +0.147 HD
BRANCH  17  19
ATOM     19  C   UNL     1      33.466 -20.561 -19.936  0.00  0.00    +0.117 C 
BRANCH  19  22
ATOM     20  N   UNL     1      36.572 -18.575 -20.699  0.00  0.00    -0.223 NA
ATOM     21  N   UNL     1      34.975 -18.219 -22.468  0.00  0.00    -0.223 NA
ATOM     22  C   UNL     1      34.438 -19.650 -20.629  0.00  0.00    +0.036 C 
ATOM     23  C   UNL     1      35.675 -19.388 -20.103  0.00  0.00    +0.100 C 
ATOM     24  C   UNL     1      34.127 -19.043 -21.818  0.00  0.00    +0.100 C 
ATOM     25  C   UNL     1      36.163 -18.033 -21.862  0.00  0.00    +0.199 C 
ENDBRANCH  19  22
ENDBRANCH  17  19
ENDBRANCH   4  17
TORSDOF 4
ENDMDL
MODEL 3
REMARK VINA RESULT:     -10.9      2.652      6.144
REMARK  Name = 10249182
REMARK  4 active torsions:
REMARK  status: ('A' for Active; 'I' for Inactive)
REMARK    1  A    between atoms: C_4  and  N_17
REMARK    2  A    between atoms: C_6  and  C_11
REMARK    3  A    between atoms: N_17  and  C_19
REMARK    4  A    between atoms: C_19  and  C_22
REMARK                            x       y       z     vdW  Elec       q    Type
REMARK                         _______ _______ _______ _____ _____    ______ ____
ROOT
ATOM      1 BR   UNL     1      37.522 -23.913 -13.182  0.00  0.00    -0.031 Br
ATOM      2  N   UNL     1      34.742 -23.417 -14.034  0.00  0.00    -0.242 N 
ATOM      3  N   UNL     1      33.535 -24.093 -12.281  0.00  0.00    -0.225 NA
ATOM      4  C   UNL     1      32.345 -23.192 -14.299  0.00  0.00    +0.078 C 
ATOM      5  C   UNL     1      33.471 -23.582 -13.495  0.00  0.00    +0.153 C 
ATOM      6  C   UNL     1      33.951 -22.522 -16.076  0.00  0.00    +0.017 C 
ATOM      7  C   UNL     1      32.599 -22.687 -15.530  0.00  0.00    +0.018 C 
ATOM      8  C   UNL     1      34.987 -22.899 -15.300  0.00  0.00    +0.071 C 
ATOM      9  C   UNL     1      35.636 -23.857 -13.092  0.00  0.00    +0.111 C 
ATOM     10  C   UNL     1      34.871 -24.264 -12.027  0.00  0.00    +0.122 C 
ENDROOT
BRANCH   6  11
ATOM     11  C   UNL     1      34.215 -21.981 -17.422  0.00  0.00    +0.001 C 
ATOM     12  C   UNL     1      33.175 -21.867 -18.345  0.00  0.00    +0.000 C 
ATOM     13  C   UNL     1      35.504 -21.582 -17.774  0.00  0.00    +0.000 C 
ATOM     14  C   UNL     1      33.424 -21.354 -19.619  0.00  0.00    +0.000 C 
ATOM     15  C   UNL     1      35.754 -21.069 -19.047  0.00  0.00    +0.000 C 
ATOM     16  C   UNL     1      34.713 -20.956 -19.969  0.00  0.00    +0.000 C 
ENDBRANCH   6  11
BRANCH   4  17
ATOM     17  N   UNL     1      31.073 -23.333 -13.812  0.00  0.00    -0.327 N 
ATOM     18  H   UNL     1      30.789 -22.773 -13.053  0.00  0.00    +0.147 HD
BRANCH  17  19
ATOM     19  C   UNL     1      30.142 -24.269 -14.366  0.00  0.00    +0.117 C 
BRANCH  19  22
ATOM     20  N   UNL     1      27.914 -21.612 -15.833  0.00  0.00    -0.223 NA
ATOM     21  N   UNL     1      27.418 -23.713 -16.905  0.00  0.00    -0.223 NA
ATOM     22  C   UNL     1      29.100 -23.592 -15.209  0.00  0.00    +0.036 C 
ATOM     23  C   UNL     1      28.843 -22.252 -15.092  0.00  0.00    +0.100 C 
ATOM     24  C   UNL     1      28.362 -24.288 -16.131  0.00  0.00    +0.100 C 
ATOM     25  C   UNL     1      27.250 -22.392 -16.707  0.00  0.00    +0.199 C 
ENDBRANCH  19  22
ENDBRANCH  17  19
ENDBRANCH   4  17
TORSDOF 4
ENDMDL
MODEL 4
REMARK VINA RESULT:     -10.9      3.121      5.818
REMARK  Name = 10249182
REMARK  4 active torsions:
REMARK  status: ('A' for Active; 'I' for Inactive)
REMARK    1  A    between atoms: C_4  and  N_17
REMARK    2  A    between atoms: C_6  and  C_11
REMARK    3  A    between atoms: N_17  and  C_19
REMARK    4  A    between atoms: C_19  and  C_22
REMARK                            x       y       z     vdW  Elec       q    Type
REMARK                         _______ _______ _______ _____ _____    ______ ____
ROOT
ATOM      1 BR   UNL     1      37.739 -22.288 -15.758  0.00  0.00    -0.031 Br
ATOM      2  N   UNL     1      35.066 -22.139 -16.995  0.00  0.00    -0.242 N 
ATOM      3  N   UNL     1      33.804 -23.405 -15.656  0.00  0.00    -0.225 NA
ATOM      4  C   UNL     1      32.739 -22.309 -17.647  0.00  0.00    +0.078 C 
ATOM      5  C   UNL     1      33.800 -22.654 -16.740  0.00  0.00    +0.153 C 
ATOM      6  C   UNL     1      34.391 -20.970 -18.938  0.00  0.00    +0.017 C 
ATOM      7  C   UNL     1      33.046 -21.502 -18.691  0.00  0.00    +0.018 C 
ATOM      8  C   UNL     1      35.366 -21.312 -18.072  0.00  0.00    +0.071 C 
ATOM      9  C   UNL     1      35.894 -22.606 -16.007  0.00  0.00    +0.111 C 
ATOM     10  C   UNL     1      35.096 -23.377 -15.198  0.00  0.00    +0.122 C 
ENDROOT
BRANCH   6  11
ATOM     11  C   UNL     1      34.715 -20.100 -20.083  0.00  0.00    +0.001 C 
ATOM     12  C   UNL     1      35.990 -19.546 -20.199  0.00  0.00    +0.000 C 
ATOM     13  C   UNL     1      33.748 -19.829 -21.052  0.00  0.00    +0.000 C 
ATOM     14  C   UNL     1      36.298 -18.723 -21.284  0.00  0.00    +0.000 C 
ATOM     15  C   UNL     1      34.055 -19.007 -22.135  0.00  0.00    +0.000 C 
ATOM     16  C   UNL     1      35.331 -18.453 -22.251  0.00  0.00    +0.000 C 
ENDBRANCH   6  11
BRANCH   4  17
ATOM     17  N   UNL     1      31.475 -22.790 -17.439  0.00  0.00    -0.327 N 
ATOM     18  H   UNL     1      31.177 -23.580 -17.947  0.00  0.00    +0.147 HD
BRANCH  17  19
ATOM     19  C   UNL     1      30.570 -22.186 -16.509  0.00  0.00    +0.117 C 
BRANCH  19  22
ATOM     20  N   UNL     1      29.739 -25.004 -14.155  0.00  0.00    -0.223 NA
ATOM     21  N   UNL     1      30.743 -23.213 -12.891  0.00  0.00    -0.223 NA
ATOM     22  C   UNL     1      30.431 -22.995 -15.253  0.00  0.00    +0.036 C 
ATOM     23  C   UNL     1      29.879 -24.249 -15.265  0.00  0.00    +0.100 C 
ATOM     24  C   UNL     1      30.852 -22.514 -14.040  0.00  0.00    +0.100 C 
ATOM     25  C   UNL     1      30.186 -24.433 -13.020  0.00  0.00    +0.199 C 
ENDBRANCH  19  22
ENDBRANCH  17  19
ENDBRANCH   4  17
TORSDOF 4
ENDMDL
MODEL 5
REMARK VINA RESULT:     -10.8      2.653      6.269
REMARK  Name = 10249182
REMARK  4 active torsions:
REMARK  status: ('A' for Active; 'I' for Inactive)
REMARK    1  A    between atoms: C_4  and  N_17
REMARK    2  A    between atoms: C_6  and  C_11
REMARK    3  A    between atoms: N_17  and  C_19
REMARK    4  A    between atoms: C_19  and  C_22
REMARK                            x       y       z     vdW  Elec       q    Type
REMARK                         _______ _______ _______ _____ _____    ______ ____
ROOT
ATOM      1 BR   UNL     1      37.456 -23.675 -13.281  0.00  0.00    -0.031 Br
ATOM      2  N   UNL     1      34.662 -23.356 -14.172  0.00  0.00    -0.242 N 
ATOM      3  N   UNL     1      33.476 -24.127 -12.443  0.00  0.00    -0.225 NA
ATOM      4  C   UNL     1      32.260 -23.287 -14.471  0.00  0.00    +0.078 C 
ATOM      5  C   UNL     1      33.397 -23.610 -13.653  0.00  0.00    +0.153 C 
ATOM      6  C   UNL     1      33.844 -22.496 -16.218  0.00  0.00    +0.017 C 
ATOM      7  C   UNL     1      32.498 -22.756 -15.693  0.00  0.00    +0.018 C 
ATOM      8  C   UNL     1      34.891 -22.811 -15.429  0.00  0.00    +0.071 C 
ATOM      9  C   UNL     1      35.570 -23.745 -13.220  0.00  0.00    +0.111 C 
ATOM     10  C   UNL     1      34.817 -24.212 -12.170  0.00  0.00    +0.122 C 
ENDROOT
BRANCH   6  11
ATOM     11  C   UNL     1      34.091 -21.926 -17.555  0.00  0.00    +0.001 C 
ATOM     12  C   UNL     1      35.392 -21.610 -17.948  0.00  0.00    +0.000 C 
ATOM     13  C   UNL     1      33.026 -21.701 -18.427  0.00  0.00    +0.000 C 
ATOM     14  C   UNL     1      35.628 -21.071 -19.214  0.00  0.00    +0.000 C 
ATOM     15  C   UNL     1      33.261 -21.163 -19.692  0.00  0.00    +0.000 C 
ATOM     16  C   UNL     1      34.562 -20.847 -20.085  0.00  0.00    +0.000 C 
ENDBRANCH   6  11
BRANCH   4  17
ATOM     17  N   UNL     1      30.993 -23.517 -14.005  0.00  0.00    -0.327 N 
ATOM     18  H   UNL     1      30.710 -23.089 -13.164  0.00  0.00    +0.147 HD
BRANCH  17  19
ATOM     19  C   UNL     1      30.065 -24.360 -14.696  0.00  0.00    +0.117 C 
BRANCH  19  22
ATOM     20  N   UNL     1      27.222 -23.421 -16.978  0.00  0.00    -0.223 NA
ATOM     21  N   UNL     1      27.722 -21.541 -15.555  0.00  0.00    -0.223 NA
ATOM     22  C   UNL     1      28.973 -23.570 -15.357  0.00  0.00    +0.036 C 
ATOM     23  C   UNL     1      28.210 -24.103 -16.362  0.00  0.00    +0.100 C 
ATOM     24  C   UNL     1      28.694 -22.281 -14.983  0.00  0.00    +0.100 C 
ATOM     25  C   UNL     1      27.034 -22.165 -16.531  0.00  0.00    +0.199 C 
ENDBRANCH  19  22
ENDBRANCH  17  19
ENDBRANCH   4  17
TORSDOF 4
ENDMDL
MODEL 6
REMARK VINA RESULT:     -10.7      1.731      2.273
REMARK  Name = 10249182
REMARK  4 active torsions:
REMARK  status: ('A' for Active; 'I' for Inactive)
REMARK    1  A    between atoms: C_4  and  N_17
REMARK    2  A    between atoms: C_6  and  C_11
REMARK    3  A    between atoms: N_17  and  C_19
REMARK    4  A    between atoms: C_19  and  C_22
REMARK                            x       y       z     vdW  Elec       q    Type
REMARK                         _______ _______ _______ _____ _____    ______ ____
ROOT
ATOM      1 BR   UNL     1      28.550 -22.497 -16.081  0.00  0.00    -0.031 Br
ATOM      2  N   UNL     1      31.473 -22.895 -16.031  0.00  0.00    -0.242 N 
ATOM      3  N   UNL     1      31.790 -24.180 -14.232  0.00  0.00    -0.225 NA
ATOM      4  C   UNL     1      33.781 -23.482 -15.591  0.00  0.00    +0.078 C 
ATOM      5  C   UNL     1      32.392 -23.562 -15.229  0.00  0.00    +0.153 C 
ATOM      6  C   UNL     1      33.111 -22.064 -17.522  0.00  0.00    +0.017 C 
ATOM      7  C   UNL     1      34.100 -22.760 -16.691  0.00  0.00    +0.018 C 
ATOM      8  C   UNL     1      31.816 -22.157 -17.157  0.00  0.00    +0.071 C 
ATOM      9  C   UNL     1      30.233 -23.116 -15.488  0.00  0.00    +0.111 C 
ATOM     10  C   UNL     1      30.455 -23.908 -14.387  0.00  0.00    +0.122 C 
ENDROOT
BRANCH   6  11
ATOM     11  C   UNL     1      33.472 -21.273 -18.713  0.00  0.00    +0.001 C 
ATOM     12  C   UNL     1      32.476 -20.642 -19.459  0.00  0.00    +0.000 C 
ATOM     13  C   UNL     1      34.808 -21.155 -19.095  0.00  0.00    +0.000 C 
ATOM     14  C   UNL     1      32.817 -19.892 -20.586  0.00  0.00    +0.000 C 
ATOM     15  C   UNL     1      35.149 -20.406 -20.221  0.00  0.00    +0.000 C 
ATOM     16  C   UNL     1      34.153 -19.775 -20.967  0.00  0.00    +0.000 C 
ENDBRANCH   6  11
BRANCH   4  17
ATOM     17  N   UNL     1      34.724 -24.122 -14.834  0.00  0.00    -0.327 N 
ATOM     18  H   UNL     1      34.665 -25.100 -14.726  0.00  0.00    +0.147 HD
BRANCH  17  19
ATOM     19  C   UNL     1      35.794 -23.421 -14.191  0.00  0.00    +0.117 C 
BRANCH  19  22
ATOM     20  N   UNL     1      34.647 -24.307 -10.716  0.00  0.00    -0.223 NA
ATOM     21  N   UNL     1      36.930 -23.543 -10.603  0.00  0.00    -0.223 NA
ATOM     22  C   UNL     1      35.791 -23.634 -12.704  0.00  0.00    +0.036 C 
ATOM     23  C   UNL     1      34.684 -24.105 -12.050  0.00  0.00    +0.100 C 
ATOM     24  C   UNL     1      36.897 -23.365 -11.940  0.00  0.00    +0.100 C 
ATOM     25  C   UNL     1      35.788 -24.011 -10.064  0.00  0.00    +0.199 C 
ENDBRANCH  19  22
ENDBRANCH  17  19
ENDBRANCH   4  17
TORSDOF 4
ENDMDL
MODEL 7
REMARK VINA RESULT:     -10.6      2.654      5.833
REMARK  Name = 10249182
REMARK  4 active torsions:
REMARK  status: ('A' for Active; 'I' for Inactive)
REMARK    1  A    between atoms: C_4  and  N_17
REMARK    2  A    between atoms: C_6  and  C_11
REMARK    3  A    between atoms: N_17  and  C_19
REMARK    4  A    between atoms: C_19  and  C_22
REMARK                            x       y       z     vdW  Elec       q    Type
REMARK                         _______ _______ _______ _____ _____    ______ ____
ROOT
ATOM      1 BR   UNL     1      38.926 -24.633 -14.026  0.00  0.00    -0.031 Br
ATOM      2  N   UNL     1      36.086 -23.840 -14.098  0.00  0.00    -0.242 N 
ATOM      3  N   UNL     1      35.297 -24.561 -12.136  0.00  0.00    -0.225 NA
ATOM      4  C   UNL     1      33.735 -23.397 -13.719  0.00  0.00    +0.078 C 
ATOM      5  C   UNL     1      34.981 -23.945 -13.259  0.00  0.00    +0.153 C 
ATOM      6  C   UNL     1      34.900 -22.713 -15.807  0.00  0.00    +0.017 C 
ATOM      7  C   UNL     1      33.720 -22.813 -14.940  0.00  0.00    +0.018 C 
ATOM      8  C   UNL     1      36.055 -23.238 -15.350  0.00  0.00    +0.071 C 
ATOM      9  C   UNL     1      37.139 -24.431 -13.448  0.00  0.00    +0.111 C 
ATOM     10  C   UNL     1      36.630 -24.863 -12.248  0.00  0.00    +0.122 C 
ENDROOT
BRANCH   6  11
ATOM     11  C   UNL     1      34.870 -22.083 -17.140  0.00  0.00    +0.001 C 
ATOM     12  C   UNL     1      36.016 -21.471 -17.647  0.00  0.00    +0.000 C 
ATOM     13  C   UNL     1      33.696 -22.098 -17.894  0.00  0.00    +0.000 C 
ATOM     14  C   UNL     1      35.989 -20.875 -18.909  0.00  0.00    +0.000 C 
ATOM     15  C   UNL     1      33.668 -21.503 -19.154  0.00  0.00    +0.000 C 
ATOM     16  C   UNL     1      34.815 -20.890 -19.662  0.00  0.00    +0.000 C 
ENDBRANCH   6  11
BRANCH   4  17
ATOM     17  N   UNL     1      32.619 -23.475 -12.929  0.00  0.00    -0.327 N 
ATOM     18  H   UNL     1      32.580 -24.167 -12.229  0.00  0.00    +0.147 HD
BRANCH  17  19
ATOM     19  C   UNL     1      31.507 -22.588 -13.087  0.00  0.00    +0.117 C 
BRANCH  19  22
ATOM     20  N   UNL     1      29.130 -25.190 -14.412  0.00  0.00    -0.223 NA
ATOM     21  N   UNL     1      28.511 -23.045 -15.321  0.00  0.00    -0.223 NA
ATOM     22  C   UNL     1      30.376 -23.233 -13.836  0.00  0.00    +0.036 C 
ATOM     23  C   UNL     1      30.137 -24.579 -13.753  0.00  0.00    +0.100 C 
ATOM     24  C   UNL     1      29.536 -22.500 -14.634  0.00  0.00    +0.100 C 
ATOM     25  C   UNL     1      28.368 -24.375 -15.166  0.00  0.00    +0.199 C 
ENDBRANCH  19  22
ENDBRANCH  17  19
ENDBRANCH   4  17
TORSDOF 4
ENDMDL
MODEL 8
REMARK VINA RESULT:     -10.2      2.891      7.403
REMARK  Name = 10249182
REMARK  4 active torsions:
REMARK  status: ('A' for Active; 'I' for Inactive)
REMARK    1  A    between atoms: C_4  and  N_17
REMARK    2  A    between atoms: C_6  and  C_11
REMARK    3  A    between atoms: N_17  and  C_19
REMARK    4  A    between atoms: C_19  and  C_22
REMARK                            x       y       z     vdW  Elec       q    Type
REMARK                         _______ _______ _______ _____ _____    ______ ____
ROOT
ATOM      1 BR   UNL     1      35.657 -21.000 -19.187  0.00  0.00    -0.031 Br
ATOM      2  N   UNL     1      34.063 -22.268 -17.053  0.00  0.00    -0.242 N 
ATOM      3  N   UNL     1      31.983 -22.225 -17.866  0.00  0.00    -0.225 NA
ATOM      4  C   UNL     1      32.379 -23.225 -15.599  0.00  0.00    +0.078 C 
ATOM      5  C   UNL     1      32.726 -22.586 -16.838  0.00  0.00    +0.153 C 
ATOM      6  C   UNL     1      34.784 -23.130 -14.971  0.00  0.00    +0.017 C 
ATOM      7  C   UNL     1      33.380 -23.475 -14.721  0.00  0.00    +0.018 C 
ATOM      8  C   UNL     1      35.079 -22.530 -16.142  0.00  0.00    +0.071 C 
ATOM      9  C   UNL     1      34.140 -21.673 -18.287  0.00  0.00    +0.111 C 
ATOM     10  C   UNL     1      32.852 -21.661 -18.764  0.00  0.00    +0.122 C 
ENDROOT
BRANCH   6  11
ATOM     11  C   UNL     1      35.864 -23.398 -14.004  0.00  0.00    +0.001 C 
ATOM     12  C   UNL     1      35.829 -22.813 -12.738  0.00  0.00    +0.000 C 
ATOM     13  C   UNL     1      36.923 -24.237 -14.354  0.00  0.00    +0.000 C 
ATOM     14  C   UNL     1      36.850 -23.067 -11.822  0.00  0.00    +0.000 C 
ATOM     15  C   UNL     1      37.944 -24.491 -13.439  0.00  0.00    +0.000 C 
ATOM     16  C   UNL     1      37.908 -23.906 -12.173  0.00  0.00    +0.000 C 
ENDBRANCH   6  11
BRANCH   4  17
ATOM     17  N   UNL     1      31.077 -23.559 -15.341  0.00  0.00    -0.327 N 
ATOM     18  H   UNL     1      30.748 -24.444 -15.623  0.00  0.00    +0.147 HD
BRANCH  17  19
ATOM     19  C   UNL     1      30.175 -22.668 -14.677  0.00  0.00    +0.117 C 
BRANCH  19  22
ATOM     20  N   UNL     1      26.698 -21.561 -15.603  0.00  0.00    -0.223 NA
ATOM     21  N   UNL     1      27.502 -23.075 -17.296  0.00  0.00    -0.223 NA
ATOM     22  C   UNL     1      28.881 -22.520 -15.422  0.00  0.00    +0.036 C 
ATOM     23  C   UNL     1      27.873 -21.716 -14.958  0.00  0.00    +0.100 C 
ATOM     24  C   UNL     1      28.652 -23.184 -16.600  0.00  0.00    +0.100 C 
ATOM     25  C   UNL     1      26.582 -22.259 -16.748  0.00  0.00    +0.199 C 
ENDBRANCH  19  22
ENDBRANCH  17  19
ENDBRANCH   4  17
TORSDOF 4
ENDMDL
MODEL 9
REMARK VINA RESULT:      -9.6      1.711      2.959
REMARK  Name = 10249182
REMARK  4 active torsions:
REMARK  status: ('A' for Active; 'I' for Inactive)
REMARK    1  A    between atoms: C_4  and  N_17
REMARK    2  A    between atoms: C_6  and  C_11
REMARK    3  A    between atoms: N_17  and  C_19
REMARK    4  A    between atoms: C_19  and  C_22
REMARK                            x       y       z     vdW  Elec       q    Type
REMARK                         _______ _______ _______ _____ _____    ______ ____
ROOT
ATOM      1 BR   UNL     1      30.525 -22.750 -16.493  0.00  0.00    -0.031 Br
ATOM      2  N   UNL     1      33.451 -22.427 -16.670  0.00  0.00    -0.242 N 
ATOM      3  N   UNL     1      34.204 -23.546 -14.890  0.00  0.00    -0.225 NA
ATOM      4  C   UNL     1      35.859 -22.425 -16.408  0.00  0.00    +0.078 C 
ATOM      5  C   UNL     1      34.563 -22.829 -15.937  0.00  0.00    +0.153 C 
ATOM      6  C   UNL     1      34.723 -21.266 -18.293  0.00  0.00    +0.017 C 
ATOM      7  C   UNL     1      35.911 -21.678 -17.536  0.00  0.00    +0.018 C 
ATOM      8  C   UNL     1      33.520 -21.659 -17.826  0.00  0.00    +0.071 C 
ATOM      9  C   UNL     1      32.347 -22.926 -16.029  0.00  0.00    +0.111 C 
ATOM     10  C   UNL     1      32.836 -23.610 -14.942  0.00  0.00    +0.122 C 
ENDROOT
BRANCH   6  11
ATOM     11  C   UNL     1      34.791 -20.445 -19.515  0.00  0.00    +0.001 C 
ATOM     12  C   UNL     1      36.010 -19.908 -19.928  0.00  0.00    +0.000 C 
ATOM     13  C   UNL     1      33.637 -20.204 -20.261  0.00  0.00    +0.000 C 
ATOM     14  C   UNL     1      36.076 -19.131 -21.085  0.00  0.00    +0.000 C 
ATOM     15  C   UNL     1      33.701 -19.428 -21.417  0.00  0.00    +0.000 C 
ATOM     16  C   UNL     1      34.922 -18.891 -21.830  0.00  0.00    +0.000 C 
ENDBRANCH   6  11
BRANCH   4  17
ATOM     17  N   UNL     1      36.984 -22.796 -15.722  0.00  0.00    -0.327 N 
ATOM     18  H   UNL     1      37.678 -23.314 -16.191  0.00  0.00    +0.147 HD
BRANCH  17  19
ATOM     19  C   UNL     1      37.186 -22.461 -14.345  0.00  0.00    +0.117 C 
BRANCH  19  22
ATOM     20  N   UNL     1      37.020 -24.676 -11.305  0.00  0.00    -0.223 NA
ATOM     21  N   UNL     1      37.532 -26.039 -13.226  0.00  0.00    -0.223 NA
ATOM     22  C   UNL     1      37.224 -23.680 -13.469  0.00  0.00    +0.036 C 
ATOM     23  C   UNL     1      36.994 -23.601 -12.121  0.00  0.00    +0.100 C 
ATOM     24  C   UNL     1      37.489 -24.923 -13.983  0.00  0.00    +0.100 C 
ATOM     25  C   UNL     1      37.291 -25.846 -11.916  0.00  0.00    +0.199 C 
ENDBRANCH  19  22
ENDBRANCH  17  19
ENDBRANCH   4  17
TORSDOF 4
ENDMDL
