MODEL 1
REMARK VINA RESULT:     -11.5      0.000      0.000
REMARK  Name = 53340426
REMARK  11 active torsions:
REMARK  status: ('A' for Active; 'I' for Inactive)
REMARK    1  A    between atoms: N_1  and  C_9
REMARK    2  A    between atoms: N_1  and  C_15
REMARK    3  A    between atoms: C_4  and  C_23
REMARK    4  A    between atoms: N_22  and  C_25
REMARK    5  A    between atoms: C_25  and  C_26
REMARK    6  A    between atoms: C_26  and  C_27
REMARK    7  A    between atoms: C_27  and  C_28
REMARK    8  A    between atoms: C_28  and  C_29
REMARK    9  A    between atoms: C_29  and  C_30
REMARK   10  A    between atoms: C_30  and  C_33
REMARK   11  A    between atoms: N_32  and  O_35
REMARK                            x       y       z     vdW  Elec       q    Type
REMARK                         _______ _______ _______ _____ _____    ______ ____
ROOT
ATOM      1  N   UNL     1      34.311 -23.196 -14.509  0.00  0.00    -0.210 N 
ATOM      2  N   UNL     1      35.771 -21.926 -15.836  0.00  0.00    -0.202 NA
ATOM      3  N   UNL     1      33.729 -22.820 -16.751  0.00  0.00    -0.180 NA
ATOM      4  C   UNL     1      35.207 -21.521 -18.140  0.00  0.00    +0.076 C 
ATOM      5  C   UNL     1      34.619 -22.618 -15.761  0.00  0.00    +0.098 C 
ATOM      6  C   UNL     1      36.035 -21.389 -17.045  0.00  0.00    +0.170 C 
ATOM      7  C   UNL     1      34.055 -22.254 -17.932  0.00  0.00    +0.113 C 
ENDROOT
BRANCH   1   9
ATOM      8 CL   UNL     1      35.698 -25.861 -15.126  0.00  0.00    -0.081 Cl
ATOM      9  C   UNL     1      35.367 -23.626 -13.593  0.00  0.00    +0.076 C 
ATOM     10  C   UNL     1      36.055 -24.823 -13.791  0.00  0.00    +0.072 C 
ATOM     11  C   UNL     1      35.681 -22.813 -12.505  0.00  0.00    +0.017 C 
ATOM     12  C   UNL     1      37.058 -25.206 -12.901  0.00  0.00    +0.013 C 
ATOM     13  C   UNL     1      36.684 -23.196 -11.614  0.00  0.00    +0.001 C 
ATOM     14  C   UNL     1      37.372 -24.393 -11.812  0.00  0.00    +0.001 C 
ENDBRANCH   1   9
BRANCH   1  15
ATOM     15  C   UNL     1      32.923 -23.385 -14.085  0.00  0.00    +0.065 C 
ATOM     16  C   UNL     1      32.521 -24.605 -13.541  0.00  0.00    +0.016 C 
ATOM     17  C   UNL     1      32.003 -22.346 -14.223  0.00  0.00    +0.016 C 
ATOM     18  C   UNL     1      31.198 -24.786 -13.136  0.00  0.00    +0.001 C 
ATOM     19  C   UNL     1      30.681 -22.526 -13.819  0.00  0.00    +0.001 C 
ATOM     20  C   UNL     1      30.279 -23.747 -13.275  0.00  0.00    +0.000 C 
ENDBRANCH   1  15
BRANCH   4  23
ATOM     21  O   UNL     1      35.256 -21.528 -20.484  0.00  0.00    -0.270 OA
ATOM     22  N   UNL     1      36.113 -19.652 -19.421  0.00  0.00    -0.301 N 
ATOM     23  C   UNL     1      35.530 -20.914 -19.457  0.00  0.00    +0.245 C 
ATOM     24  H   UNL     1      36.295 -19.241 -18.546  0.00  0.00    +0.150 HD
BRANCH  22  25
ATOM     25  C   UNL     1      36.462 -18.926 -20.611  0.00  0.00    +0.090 C 
BRANCH  25  26
ATOM     26  C   UNL     1      35.244 -18.251 -21.232  0.00  0.00    +0.021 C 
BRANCH  26  27
ATOM     27  C   UNL     1      35.218 -18.439 -22.749  0.00  0.00    +0.002 C 
BRANCH  27  28
ATOM     28  C   UNL     1      33.791 -18.651 -23.259  0.00  0.00    +0.001 C 
BRANCH  28  29
ATOM     29  C   UNL     1      33.453 -17.668 -24.385  0.00  0.00    +0.010 C 
BRANCH  29  30
ATOM     30  C   UNL     1      34.188 -16.338 -24.237  0.00  0.00    +0.087 C 
BRANCH  30  33
ATOM     31  O   UNL     1      33.104 -14.876 -25.835  0.00  0.00    -0.273 OA
ATOM     32  N   UNL     1      32.990 -14.370 -23.584  0.00  0.00    -0.197 N 
ATOM     33  C   UNL     1      33.366 -15.133 -24.663  0.00  0.00    +0.244 C 
ATOM     34  H   UNL     1      33.224 -14.616 -22.660  0.00  0.00    +0.182 HD
BRANCH  32  35
ATOM     35  O   UNL     1      32.253 -13.216 -23.883  0.00  0.00    -0.295 OA
ATOM     36  H   UNL     1      32.855 -12.515 -24.178  0.00  0.00    +0.241 HD
ENDBRANCH  32  35
ENDBRANCH  30  33
ENDBRANCH  29  30
ENDBRANCH  28  29
ENDBRANCH  27  28
ENDBRANCH  26  27
ENDBRANCH  25  26
ENDBRANCH  22  25
ENDBRANCH   4  23
TORSDOF 11
ENDMDL
MODEL 2
REMARK VINA RESULT:     -10.7      1.253      1.752
REMARK  Name = 53340426
REMARK  11 active torsions:
REMARK  status: ('A' for Active; 'I' for Inactive)
REMARK    1  A    between atoms: N_1  and  C_9
REMARK    2  A    between atoms: N_1  and  C_15
REMARK    3  A    between atoms: C_4  and  C_23
REMARK    4  A    between atoms: N_22  and  C_25
REMARK    5  A    between atoms: C_25  and  C_26
REMARK    6  A    between atoms: C_26  and  C_27
REMARK    7  A    between atoms: C_27  and  C_28
REMARK    8  A    between atoms: C_28  and  C_29
REMARK    9  A    between atoms: C_29  and  C_30
REMARK   10  A    between atoms: C_30  and  C_33
REMARK   11  A    between atoms: N_32  and  O_35
REMARK                            x       y       z     vdW  Elec       q    Type
REMARK                         _______ _______ _______ _____ _____    ______ ____
ROOT
ATOM      1  N   UNL     1      34.225 -23.640 -15.023  0.00  0.00    -0.210 N 
ATOM      2  N   UNL     1      35.793 -22.436 -16.287  0.00  0.00    -0.202 NA
ATOM      3  N   UNL     1      33.512 -22.658 -17.031  0.00  0.00    -0.180 NA
ATOM      4  C   UNL     1      35.095 -21.415 -18.352  0.00  0.00    +0.076 C 
ATOM      5  C   UNL     1      34.525 -22.873 -16.171  0.00  0.00    +0.098 C 
ATOM      6  C   UNL     1      36.045 -21.707 -17.394  0.00  0.00    +0.170 C 
ATOM      7  C   UNL     1      33.833 -21.921 -18.115  0.00  0.00    +0.113 C 
ENDROOT
BRANCH   1   9
ATOM      8 CL   UNL     1      35.308 -22.696 -12.313  0.00  0.00    -0.081 Cl
ATOM      9  C   UNL     1      35.243 -24.474 -14.384  0.00  0.00    +0.076 C 
ATOM     10  C   UNL     1      35.795 -24.127 -13.151  0.00  0.00    +0.072 C 
ATOM     11  C   UNL     1      35.660 -25.637 -15.032  0.00  0.00    +0.017 C 
ATOM     12  C   UNL     1      36.763 -24.942 -12.566  0.00  0.00    +0.013 C 
ATOM     13  C   UNL     1      36.629 -26.452 -14.447  0.00  0.00    +0.001 C 
ATOM     14  C   UNL     1      37.181 -26.105 -13.214  0.00  0.00    +0.001 C 
ENDBRANCH   1   9
BRANCH   1  15
ATOM     15  C   UNL     1      32.886 -23.628 -14.433  0.00  0.00    +0.065 C 
ATOM     16  C   UNL     1      32.415 -24.749 -13.750  0.00  0.00    +0.016 C 
ATOM     17  C   UNL     1      32.081 -22.495 -14.553  0.00  0.00    +0.016 C 
ATOM     18  C   UNL     1      31.138 -24.738 -13.188  0.00  0.00    +0.001 C 
ATOM     19  C   UNL     1      30.805 -22.484 -13.991  0.00  0.00    +0.001 C 
ATOM     20  C   UNL     1      30.334 -23.605 -13.309  0.00  0.00    +0.000 C 
ENDBRANCH   1  15
BRANCH   4  23
ATOM     21  O   UNL     1      36.454 -20.821 -20.168  0.00  0.00    -0.270 OA
ATOM     22  N   UNL     1      34.457 -19.665 -19.928  0.00  0.00    -0.301 N 
ATOM     23  C   UNL     1      35.409 -20.608 -19.559  0.00  0.00    +0.245 C 
ATOM     24  H   UNL     1      33.649 -19.568 -19.375  0.00  0.00    +0.150 HD
BRANCH  22  25
ATOM     25  C   UNL     1      34.605 -18.825 -21.085  0.00  0.00    +0.090 C 
BRANCH  25  26
ATOM     26  C   UNL     1      33.716 -19.290 -22.232  0.00  0.00    +0.021 C 
BRANCH  26  27
ATOM     27  C   UNL     1      34.275 -18.846 -23.584  0.00  0.00    +0.002 C 
BRANCH  27  28
ATOM     28  C   UNL     1      33.415 -17.745 -24.207  0.00  0.00    +0.001 C 
BRANCH  28  29
ATOM     29  C   UNL     1      34.198 -16.433 -24.330  0.00  0.00    +0.010 C 
BRANCH  29  30
ATOM     30  C   UNL     1      34.253 -15.662 -23.013  0.00  0.00    +0.087 C 
BRANCH  30  33
ATOM     31  O   UNL     1      34.010 -13.355 -22.319  0.00  0.00    -0.273 OA
ATOM     32  N   UNL     1      32.834 -14.110 -24.158  0.00  0.00    -0.197 N 
ATOM     33  C   UNL     1      33.711 -14.246 -23.108  0.00  0.00    +0.244 C 
ATOM     34  H   UNL     1      32.625 -14.855 -24.766  0.00  0.00    +0.182 HD
BRANCH  32  35
ATOM     35  O   UNL     1      32.256 -12.842 -24.307  0.00  0.00    -0.295 OA
ATOM     36  H   UNL     1      31.427 -12.803 -23.804  0.00  0.00    +0.241 HD
ENDBRANCH  32  35
ENDBRANCH  30  33
ENDBRANCH  29  30
ENDBRANCH  28  29
ENDBRANCH  27  28
ENDBRANCH  26  27
ENDBRANCH  25  26
ENDBRANCH  22  25
ENDBRANCH   4  23
TORSDOF 11
ENDMDL
MODEL 3
REMARK VINA RESULT:     -10.4      2.049      4.037
REMARK  Name = 53340426
REMARK  11 active torsions:
REMARK  status: ('A' for Active; 'I' for Inactive)
REMARK    1  A    between atoms: N_1  and  C_9
REMARK    2  A    between atoms: N_1  and  C_15
REMARK    3  A    between atoms: C_4  and  C_23
REMARK    4  A    between atoms: N_22  and  C_25
REMARK    5  A    between atoms: C_25  and  C_26
REMARK    6  A    between atoms: C_26  and  C_27
REMARK    7  A    between atoms: C_27  and  C_28
REMARK    8  A    between atoms: C_28  and  C_29
REMARK    9  A    between atoms: C_29  and  C_30
REMARK   10  A    between atoms: C_30  and  C_33
REMARK   11  A    between atoms: N_32  and  O_35
REMARK                            x       y       z     vdW  Elec       q    Type
REMARK                         _______ _______ _______ _____ _____    ______ ____
ROOT
ATOM      1  N   UNL     1      34.333 -23.242 -15.730  0.00  0.00    -0.210 N 
ATOM      2  N   UNL     1      33.396 -22.248 -17.637  0.00  0.00    -0.202 NA
ATOM      3  N   UNL     1      35.727 -21.948 -17.104  0.00  0.00    -0.180 NA
ATOM      4  C   UNL     1      34.796 -20.914 -19.070  0.00  0.00    +0.076 C 
ATOM      5  C   UNL     1      34.493 -22.439 -16.881  0.00  0.00    +0.098 C 
ATOM      6  C   UNL     1      33.584 -21.477 -18.729  0.00  0.00    +0.170 C 
ATOM      7  C   UNL     1      35.844 -21.187 -18.212  0.00  0.00    +0.113 C 
ENDROOT
BRANCH   1   9
ATOM      8 CL   UNL     1      34.441 -23.251 -12.665  0.00  0.00    -0.081 Cl
ATOM      9  C   UNL     1      33.057 -23.296 -15.017  0.00  0.00    +0.076 C 
ATOM     10  C   UNL     1      33.005 -23.305 -13.623  0.00  0.00    +0.072 C 
ATOM     11  C   UNL     1      31.877 -23.342 -15.759  0.00  0.00    +0.017 C 
ATOM     12  C   UNL     1      31.772 -23.358 -12.972  0.00  0.00    +0.013 C 
ATOM     13  C   UNL     1      30.644 -23.395 -15.108  0.00  0.00    +0.001 C 
ATOM     14  C   UNL     1      30.592 -23.403 -13.714  0.00  0.00    +0.001 C 
ENDBRANCH   1   9
BRANCH   1  15
ATOM     15  C   UNL     1      35.439 -24.046 -15.208  0.00  0.00    +0.065 C 
ATOM     16  C   UNL     1      36.609 -23.424 -14.773  0.00  0.00    +0.016 C 
ATOM     17  C   UNL     1      35.323 -25.434 -15.145  0.00  0.00    +0.016 C 
ATOM     18  C   UNL     1      37.663 -24.190 -14.275  0.00  0.00    +0.001 C 
ATOM     19  C   UNL     1      36.376 -26.201 -14.648  0.00  0.00    +0.001 C 
ATOM     20  C   UNL     1      37.546 -25.578 -14.213  0.00  0.00    +0.000 C 
ENDBRANCH   1  15
BRANCH   4  23
ATOM     21  O   UNL     1      34.170 -20.186 -21.209  0.00  0.00    -0.270 OA
ATOM     22  N   UNL     1      36.029 -19.175 -20.258  0.00  0.00    -0.301 N 
ATOM     23  C   UNL     1      34.966 -20.071 -20.281  0.00  0.00    +0.245 C 
ATOM     24  H   UNL     1      36.614 -19.157 -19.467  0.00  0.00    +0.150 HD
BRANCH  22  25
ATOM     25  C   UNL     1      36.309 -18.276 -21.343  0.00  0.00    +0.090 C 
BRANCH  25  26
ATOM     26  C   UNL     1      35.256 -17.178 -21.447  0.00  0.00    +0.021 C 
BRANCH  26  27
ATOM     27  C   UNL     1      34.755 -17.023 -22.883  0.00  0.00    +0.002 C 
BRANCH  27  28
ATOM     28  C   UNL     1      34.152 -15.637 -23.115  0.00  0.00    +0.001 C 
BRANCH  28  29
ATOM     29  C   UNL     1      34.117 -14.823 -21.817  0.00  0.00    +0.010 C 
BRANCH  29  30
ATOM     30  C   UNL     1      33.700 -13.373 -22.050  0.00  0.00    +0.087 C 
BRANCH  30  33
ATOM     31  O   UNL     1      31.973 -13.595 -20.366  0.00  0.00    -0.273 OA
ATOM     32  N   UNL     1      31.829 -11.884 -21.911  0.00  0.00    -0.197 N 
ATOM     33  C   UNL     1      32.421 -12.980 -21.330  0.00  0.00    +0.244 C 
ATOM     34  H   UNL     1      32.226 -11.423 -22.685  0.00  0.00    +0.182 HD
BRANCH  32  35
ATOM     35  O   UNL     1      30.623 -11.466 -21.333  0.00  0.00    -0.295 OA
ATOM     36  H   UNL     1      30.365 -12.089 -20.635  0.00  0.00    +0.241 HD
ENDBRANCH  32  35
ENDBRANCH  30  33
ENDBRANCH  29  30
ENDBRANCH  28  29
ENDBRANCH  27  28
ENDBRANCH  26  27
ENDBRANCH  25  26
ENDBRANCH  22  25
ENDBRANCH   4  23
TORSDOF 11
ENDMDL
MODEL 4
REMARK VINA RESULT:     -10.1      8.797     16.576
REMARK  Name = 53340426
REMARK  11 active torsions:
REMARK  status: ('A' for Active; 'I' for Inactive)
REMARK    1  A    between atoms: N_1  and  C_9
REMARK    2  A    between atoms: N_1  and  C_15
REMARK    3  A    between atoms: C_4  and  C_23
REMARK    4  A    between atoms: N_22  and  C_25
REMARK    5  A    between atoms: C_25  and  C_26
REMARK    6  A    between atoms: C_26  and  C_27
REMARK    7  A    between atoms: C_27  and  C_28
REMARK    8  A    between atoms: C_28  and  C_29
REMARK    9  A    between atoms: C_29  and  C_30
REMARK   10  A    between atoms: C_30  and  C_33
REMARK   11  A    between atoms: N_32  and  O_35
REMARK                            x       y       z     vdW  Elec       q    Type
REMARK                         _______ _______ _______ _____ _____    ______ ____
ROOT
ATOM      1  N   UNL     1      31.860  -5.739 -23.541  0.00  0.00    -0.210 N 
ATOM      2  N   UNL     1      31.752  -8.083 -23.519  0.00  0.00    -0.202 NA
ATOM      3  N   UNL     1      31.681  -6.822 -21.467  0.00  0.00    -0.180 NA
ATOM      4  C   UNL     1      31.569  -9.226 -21.409  0.00  0.00    +0.076 C 
ATOM      5  C   UNL     1      31.759  -6.941 -22.806  0.00  0.00    +0.098 C 
ATOM      6  C   UNL     1      31.656  -9.211 -22.785  0.00  0.00    +0.170 C 
ATOM      7  C   UNL     1      31.586  -7.988 -20.796  0.00  0.00    +0.113 C 
ENDROOT
BRANCH   1   9
ATOM      8 CL   UNL     1      34.920  -5.917 -23.448  0.00  0.00    -0.081 Cl
ATOM      9  C   UNL     1      32.570  -5.691 -24.819  0.00  0.00    +0.076 C 
ATOM     10  C   UNL     1      33.962  -5.765 -24.878  0.00  0.00    +0.072 C 
ATOM     11  C   UNL     1      31.828  -5.568 -25.994  0.00  0.00    +0.017 C 
ATOM     12  C   UNL     1      34.611  -5.716 -26.111  0.00  0.00    +0.013 C 
ATOM     13  C   UNL     1      32.477  -5.520 -27.227  0.00  0.00    +0.001 C 
ATOM     14  C   UNL     1      33.869  -5.593 -27.286  0.00  0.00    +0.001 C 
ENDBRANCH   1   9
BRANCH   1  15
ATOM     15  C   UNL     1      31.257  -4.500 -23.050  0.00  0.00    +0.065 C 
ATOM     16  C   UNL     1      30.195  -4.550 -22.147  0.00  0.00    +0.016 C 
ATOM     17  C   UNL     1      31.744  -3.267 -23.485  0.00  0.00    +0.016 C 
ATOM     18  C   UNL     1      29.621  -3.368 -21.678  0.00  0.00    +0.001 C 
ATOM     19  C   UNL     1      31.170  -2.085 -23.018  0.00  0.00    +0.001 C 
ATOM     20  C   UNL     1      30.108  -2.136 -22.114  0.00  0.00    +0.000 C 
ENDBRANCH   1  15
BRANCH   4  23
ATOM     21  O   UNL     1      31.095 -10.447 -19.464  0.00  0.00    -0.270 OA
ATOM     22  N   UNL     1      31.777 -11.656 -21.322  0.00  0.00    -0.301 N 
ATOM     23  C   UNL     1      31.464 -10.489 -20.634  0.00  0.00    +0.245 C 
ATOM     24  H   UNL     1      32.064 -11.587 -22.261  0.00  0.00    +0.150 HD
BRANCH  22  25
ATOM     25  C   UNL     1      31.701 -12.957 -20.718  0.00  0.00    +0.090 C 
BRANCH  25  26
ATOM     26  C   UNL     1      33.063 -13.642 -20.688  0.00  0.00    +0.021 C 
BRANCH  26  27
ATOM     27  C   UNL     1      33.834 -13.402 -21.985  0.00  0.00    +0.002 C 
BRANCH  27  28
ATOM     28  C   UNL     1      33.429 -14.406 -23.066  0.00  0.00    +0.001 C 
BRANCH  28  29
ATOM     29  C   UNL     1      34.595 -15.333 -23.428  0.00  0.00    +0.010 C 
BRANCH  29  30
ATOM     30  C   UNL     1      34.372 -16.763 -22.941  0.00  0.00    +0.087 C 
BRANCH  30  33
ATOM     31  O   UNL     1      34.888 -16.768 -20.575  0.00  0.00    -0.273 OA
ATOM     32  N   UNL     1      36.296 -17.867 -22.038  0.00  0.00    -0.197 N 
ATOM     33  C   UNL     1      35.187 -17.126 -21.711  0.00  0.00    +0.244 C 
ATOM     34  H   UNL     1      36.495 -18.131 -22.966  0.00  0.00    +0.182 HD
BRANCH  32  35
ATOM     35  O   UNL     1      37.129 -18.222 -20.968  0.00  0.00    -0.295 OA
ATOM     36  H   UNL     1      37.956 -17.719 -21.021  0.00  0.00    +0.241 HD
ENDBRANCH  32  35
ENDBRANCH  30  33
ENDBRANCH  29  30
ENDBRANCH  28  29
ENDBRANCH  27  28
ENDBRANCH  26  27
ENDBRANCH  25  26
ENDBRANCH  22  25
ENDBRANCH   4  23
TORSDOF 11
ENDMDL
MODEL 5
REMARK VINA RESULT:      -9.9      1.828      3.931
REMARK  Name = 53340426
REMARK  11 active torsions:
REMARK  status: ('A' for Active; 'I' for Inactive)
REMARK    1  A    between atoms: N_1  and  C_9
REMARK    2  A    between atoms: N_1  and  C_15
REMARK    3  A    between atoms: C_4  and  C_23
REMARK    4  A    between atoms: N_22  and  C_25
REMARK    5  A    between atoms: C_25  and  C_26
REMARK    6  A    between atoms: C_26  and  C_27
REMARK    7  A    between atoms: C_27  and  C_28
REMARK    8  A    between atoms: C_28  and  C_29
REMARK    9  A    between atoms: C_29  and  C_30
REMARK   10  A    between atoms: C_30  and  C_33
REMARK   11  A    between atoms: N_32  and  O_35
REMARK                            x       y       z     vdW  Elec       q    Type
REMARK                         _______ _______ _______ _____ _____    ______ ____
ROOT
ATOM      1  N   UNL     1      34.326 -23.279 -15.628  0.00  0.00    -0.210 N 
ATOM      2  N   UNL     1      33.571 -22.276 -17.610  0.00  0.00    -0.202 NA
ATOM      3  N   UNL     1      35.832 -21.950 -16.841  0.00  0.00    -0.180 NA
ATOM      4  C   UNL     1      35.089 -20.906 -18.880  0.00  0.00    +0.076 C 
ATOM      5  C   UNL     1      34.590 -22.461 -16.749  0.00  0.00    +0.098 C 
ATOM      6  C   UNL     1      33.857 -21.490 -18.669  0.00  0.00    +0.170 C 
ATOM      7  C   UNL     1      36.049 -21.175 -17.924  0.00  0.00    +0.113 C 
ENDROOT
BRANCH   1   9
ATOM      8 CL   UNL     1      34.125 -23.339 -12.568  0.00  0.00    -0.081 Cl
ATOM      9  C   UNL     1      32.985 -23.359 -15.048  0.00  0.00    +0.076 C 
ATOM     10  C   UNL     1      32.793 -23.392 -13.667  0.00  0.00    +0.072 C 
ATOM     11  C   UNL     1      31.886 -23.404 -15.906  0.00  0.00    +0.017 C 
ATOM     12  C   UNL     1      31.503 -23.469 -13.144  0.00  0.00    +0.013 C 
ATOM     13  C   UNL     1      30.596 -23.481 -15.383  0.00  0.00    +0.001 C 
ATOM     14  C   UNL     1      30.404 -23.514 -14.002  0.00  0.00    +0.001 C 
ENDBRANCH   1   9
BRANCH   1  15
ATOM     15  C   UNL     1      35.385 -24.074 -15.005  0.00  0.00    +0.065 C 
ATOM     16  C   UNL     1      35.337 -25.467 -15.063  0.00  0.00    +0.016 C 
ATOM     17  C   UNL     1      36.443 -23.439 -14.355  0.00  0.00    +0.016 C 
ATOM     18  C   UNL     1      36.346 -26.225 -14.470  0.00  0.00    +0.001 C 
ATOM     19  C   UNL     1      37.453 -24.197 -13.762  0.00  0.00    +0.001 C 
ATOM     20  C   UNL     1      37.404 -25.590 -13.820  0.00  0.00    +0.000 C 
ENDBRANCH   1  15
BRANCH   4  23
ATOM     21  O   UNL     1      36.519 -19.955 -20.477  0.00  0.00    -0.270 OA
ATOM     22  N   UNL     1      34.268 -19.413 -20.626  0.00  0.00    -0.301 N 
ATOM     23  C   UNL     1      35.368 -20.046 -20.059  0.00  0.00    +0.245 C 
ATOM     24  H   UNL     1      33.383 -19.547 -20.218  0.00  0.00    +0.150 HD
BRANCH  22  25
ATOM     25  C   UNL     1      34.372 -18.568 -21.784  0.00  0.00    +0.090 C 
BRANCH  25  26
ATOM     26  C   UNL     1      35.126 -17.280 -21.472  0.00  0.00    +0.021 C 
BRANCH  26  27
ATOM     27  C   UNL     1      34.402 -16.059 -22.039  0.00  0.00    +0.002 C 
BRANCH  27  28
ATOM     28  C   UNL     1      34.123 -15.022 -20.950  0.00  0.00    +0.001 C 
BRANCH  28  29
ATOM     29  C   UNL     1      33.094 -13.988 -21.420  0.00  0.00    +0.010 C 
BRANCH  29  30
ATOM     30  C   UNL     1      33.729 -12.868 -22.242  0.00  0.00    +0.087 C 
BRANCH  30  33
ATOM     31  O   UNL     1      32.773 -11.550 -24.035  0.00  0.00    -0.273 OA
ATOM     32  N   UNL     1      32.840 -13.850 -24.238  0.00  0.00    -0.197 N 
ATOM     33  C   UNL     1      33.073 -12.657 -23.597  0.00  0.00    +0.244 C 
ATOM     34  H   UNL     1      33.100 -14.715 -23.846  0.00  0.00    +0.182 HD
BRANCH  32  35
ATOM     35  O   UNL     1      32.208 -13.757 -25.485  0.00  0.00    -0.295 OA
ATOM     36  H   UNL     1      32.729 -13.185 -26.070  0.00  0.00    +0.241 HD
ENDBRANCH  32  35
ENDBRANCH  30  33
ENDBRANCH  29  30
ENDBRANCH  28  29
ENDBRANCH  27  28
ENDBRANCH  26  27
ENDBRANCH  25  26
ENDBRANCH  22  25
ENDBRANCH   4  23
TORSDOF 11
ENDMDL
MODEL 6
REMARK VINA RESULT:      -9.4      2.112      3.385
REMARK  Name = 53340426
REMARK  11 active torsions:
REMARK  status: ('A' for Active; 'I' for Inactive)
REMARK    1  A    between atoms: N_1  and  C_9
REMARK    2  A    between atoms: N_1  and  C_15
REMARK    3  A    between atoms: C_4  and  C_23
REMARK    4  A    between atoms: N_22  and  C_25
REMARK    5  A    between atoms: C_25  and  C_26
REMARK    6  A    between atoms: C_26  and  C_27
REMARK    7  A    between atoms: C_27  and  C_28
REMARK    8  A    between atoms: C_28  and  C_29
REMARK    9  A    between atoms: C_29  and  C_30
REMARK   10  A    between atoms: C_30  and  C_33
REMARK   11  A    between atoms: N_32  and  O_35
REMARK                            x       y       z     vdW  Elec       q    Type
REMARK                         _______ _______ _______ _____ _____    ______ ____
ROOT
ATOM      1  N   UNL     1      36.328 -23.829 -13.797  0.00  0.00    -0.210 N 
ATOM      2  N   UNL     1      35.976 -22.944 -15.941  0.00  0.00    -0.202 NA
ATOM      3  N   UNL     1      34.121 -23.412 -14.475  0.00  0.00    -0.180 NA
ATOM      4  C   UNL     1      33.724 -22.504 -16.670  0.00  0.00    +0.076 C 
ATOM      5  C   UNL     1      35.430 -23.372 -14.787  0.00  0.00    +0.098 C 
ATOM      6  C   UNL     1      35.090 -22.516 -16.865  0.00  0.00    +0.170 C 
ATOM      7  C   UNL     1      33.292 -22.968 -15.443  0.00  0.00    +0.113 C 
ENDROOT
BRANCH   1   9
ATOM      8 CL   UNL     1      36.255 -26.733 -14.777  0.00  0.00    -0.081 Cl
ATOM      9  C   UNL     1      37.605 -24.443 -14.159  0.00  0.00    +0.076 C 
ATOM     10  C   UNL     1      37.672 -25.760 -14.615  0.00  0.00    +0.072 C 
ATOM     11  C   UNL     1      38.771 -23.686 -14.039  0.00  0.00    +0.017 C 
ATOM     12  C   UNL     1      38.905 -26.319 -14.952  0.00  0.00    +0.013 C 
ATOM     13  C   UNL     1      40.003 -24.245 -14.377  0.00  0.00    +0.001 C 
ATOM     14  C   UNL     1      40.070 -25.562 -14.833  0.00  0.00    +0.001 C 
ENDBRANCH   1   9
BRANCH   1  15
ATOM     15  C   UNL     1      36.012 -23.704 -12.373  0.00  0.00    +0.065 C 
ATOM     16  C   UNL     1      35.351 -24.739 -11.712  0.00  0.00    +0.016 C 
ATOM     17  C   UNL     1      36.373 -22.550 -11.677  0.00  0.00    +0.016 C 
ATOM     18  C   UNL     1      35.050 -24.620 -10.355  0.00  0.00    +0.001 C 
ATOM     19  C   UNL     1      36.072 -22.431 -10.321  0.00  0.00    +0.001 C 
ATOM     20  C   UNL     1      35.411 -23.466  -9.660  0.00  0.00    +0.000 C 
ENDBRANCH   1  15
BRANCH   4  23
ATOM     21  O   UNL     1      31.577 -22.226 -17.568  0.00  0.00    -0.270 OA
ATOM     22  N   UNL     1      33.345 -21.345 -18.784  0.00  0.00    -0.301 N 
ATOM     23  C   UNL     1      32.779 -22.024 -17.711  0.00  0.00    +0.245 C 
ATOM     24  H   UNL     1      34.323 -21.234 -18.809  0.00  0.00    +0.150 HD
BRANCH  22  25
ATOM     25  C   UNL     1      32.561 -20.800 -19.857  0.00  0.00    +0.090 C 
BRANCH  25  26
ATOM     26  C   UNL     1      33.341 -19.753 -20.645  0.00  0.00    +0.021 C 
BRANCH  26  27
ATOM     27  C   UNL     1      34.836 -19.824 -20.335  0.00  0.00    +0.002 C 
BRANCH  27  28
ATOM     28  C   UNL     1      35.619 -18.780 -21.132  0.00  0.00    +0.001 C 
BRANCH  28  29
ATOM     29  C   UNL     1      34.732 -18.105 -22.184  0.00  0.00    +0.010 C 
BRANCH  29  30
ATOM     30  C   UNL     1      34.965 -16.598 -22.262  0.00  0.00    +0.087 C 
BRANCH  30  33
ATOM     31  O   UNL     1      33.736 -14.716 -23.164  0.00  0.00    -0.273 OA
ATOM     32  N   UNL     1      33.681 -16.737 -24.279  0.00  0.00    -0.197 N 
ATOM     33  C   UNL     1      34.074 -15.892 -23.270  0.00  0.00    +0.244 C 
ATOM     34  H   UNL     1      33.978 -17.675 -24.322  0.00  0.00    +0.182 HD
BRANCH  32  35
ATOM     35  O   UNL     1      32.828 -16.182 -25.242  0.00  0.00    -0.295 OA
ATOM     36  H   UNL     1      33.146 -16.414 -26.128  0.00  0.00    +0.241 HD
ENDBRANCH  32  35
ENDBRANCH  30  33
ENDBRANCH  29  30
ENDBRANCH  28  29
ENDBRANCH  27  28
ENDBRANCH  26  27
ENDBRANCH  25  26
ENDBRANCH  22  25
ENDBRANCH   4  23
TORSDOF 11
ENDMDL
MODEL 7
REMARK VINA RESULT:      -9.3      1.801      2.288
REMARK  Name = 53340426
REMARK  11 active torsions:
REMARK  status: ('A' for Active; 'I' for Inactive)
REMARK    1  A    between atoms: N_1  and  C_9
REMARK    2  A    between atoms: N_1  and  C_15
REMARK    3  A    between atoms: C_4  and  C_23
REMARK    4  A    between atoms: N_22  and  C_25
REMARK    5  A    between atoms: C_25  and  C_26
REMARK    6  A    between atoms: C_26  and  C_27
REMARK    7  A    between atoms: C_27  and  C_28
REMARK    8  A    between atoms: C_28  and  C_29
REMARK    9  A    between atoms: C_29  and  C_30
REMARK   10  A    between atoms: C_30  and  C_33
REMARK   11  A    between atoms: N_32  and  O_35
REMARK                            x       y       z     vdW  Elec       q    Type
REMARK                         _______ _______ _______ _____ _____    ______ ____
ROOT
ATOM      1  N   UNL     1      34.041 -23.257 -14.524  0.00  0.00    -0.210 N 
ATOM      2  N   UNL     1      35.559 -22.008 -15.803  0.00  0.00    -0.202 NA
ATOM      3  N   UNL     1      33.554 -22.907 -16.792  0.00  0.00    -0.180 NA
ATOM      4  C   UNL     1      35.092 -21.629 -18.134  0.00  0.00    +0.076 C 
ATOM      5  C   UNL     1      34.403 -22.696 -15.768  0.00  0.00    +0.098 C 
ATOM      6  C   UNL     1      35.875 -21.486 -17.007  0.00  0.00    +0.170 C 
ATOM      7  C   UNL     1      33.931 -22.357 -17.965  0.00  0.00    +0.113 C 
ENDROOT
BRANCH   1   9
ATOM      8 CL   UNL     1      35.560 -25.850 -15.135  0.00  0.00    -0.081 Cl
ATOM      9  C   UNL     1      35.057 -23.679 -13.559  0.00  0.00    +0.076 C 
ATOM     10  C   UNL     1      35.799 -24.844 -13.751  0.00  0.00    +0.072 C 
ATOM     11  C   UNL     1      35.276 -22.890 -12.430  0.00  0.00    +0.017 C 
ATOM     12  C   UNL     1      36.761 -25.220 -12.814  0.00  0.00    +0.013 C 
ATOM     13  C   UNL     1      36.238 -23.266 -11.493  0.00  0.00    +0.001 C 
ATOM     14  C   UNL     1      36.981 -24.432 -11.684  0.00  0.00    +0.001 C 
ENDBRANCH   1   9
BRANCH   1  15
ATOM     15  C   UNL     1      32.636 -23.438 -14.155  0.00  0.00    +0.065 C 
ATOM     16  C   UNL     1      31.708 -22.433 -14.429  0.00  0.00    +0.016 C 
ATOM     17  C   UNL     1      32.225 -24.615 -13.530  0.00  0.00    +0.016 C 
ATOM     18  C   UNL     1      30.369 -22.605 -14.078  0.00  0.00    +0.001 C 
ATOM     19  C   UNL     1      30.886 -24.788 -13.179  0.00  0.00    +0.001 C 
ATOM     20  C   UNL     1      29.959 -23.782 -13.453  0.00  0.00    +0.000 C 
ENDBRANCH   1  15
BRANCH   4  23
ATOM     21  O   UNL     1      36.616 -21.192 -19.861  0.00  0.00    -0.270 OA
ATOM     22  N   UNL     1      34.466 -20.361 -20.122  0.00  0.00    -0.301 N 
ATOM     23  C   UNL     1      35.472 -21.039 -19.443  0.00  0.00    +0.245 C 
ATOM     24  H   UNL     1      33.578 -20.291 -19.704  0.00  0.00    +0.150 HD
BRANCH  22  25
ATOM     25  C   UNL     1      34.672 -19.756 -21.409  0.00  0.00    +0.090 C 
BRANCH  25  26
ATOM     26  C   UNL     1      33.348 -19.418 -22.087  0.00  0.00    +0.021 C 
BRANCH  26  27
ATOM     27  C   UNL     1      33.545 -19.112 -23.572  0.00  0.00    +0.002 C 
BRANCH  27  28
ATOM     28  C   UNL     1      33.080 -17.696 -23.915  0.00  0.00    +0.001 C 
BRANCH  28  29
ATOM     29  C   UNL     1      34.270 -16.743 -24.066  0.00  0.00    +0.010 C 
BRANCH  29  30
ATOM     30  C   UNL     1      34.471 -15.863 -22.833  0.00  0.00    +0.087 C 
BRANCH  30  33
ATOM     31  O   UNL     1      34.757 -16.482 -20.509  0.00  0.00    -0.273 OA
ATOM     32  N   UNL     1      36.226 -17.311 -22.087  0.00  0.00    -0.197 N 
ATOM     33  C   UNL     1      35.140 -16.580 -21.672  0.00  0.00    +0.244 C 
ATOM     34  H   UNL     1      36.496 -17.360 -23.033  0.00  0.00    +0.182 HD
BRANCH  32  35
ATOM     35  O   UNL     1      36.928 -17.984 -21.077  0.00  0.00    -0.295 OA
ATOM     36  H   UNL     1      37.856 -17.703 -21.086  0.00  0.00    +0.241 HD
ENDBRANCH  32  35
ENDBRANCH  30  33
ENDBRANCH  29  30
ENDBRANCH  28  29
ENDBRANCH  27  28
ENDBRANCH  26  27
ENDBRANCH  25  26
ENDBRANCH  22  25
ENDBRANCH   4  23
TORSDOF 11
ENDMDL
MODEL 8
REMARK VINA RESULT:      -9.1      9.148     16.979
REMARK  Name = 53340426
REMARK  11 active torsions:
REMARK  status: ('A' for Active; 'I' for Inactive)
REMARK    1  A    between atoms: N_1  and  C_9
REMARK    2  A    between atoms: N_1  and  C_15
REMARK    3  A    between atoms: C_4  and  C_23
REMARK    4  A    between atoms: N_22  and  C_25
REMARK    5  A    between atoms: C_25  and  C_26
REMARK    6  A    between atoms: C_26  and  C_27
REMARK    7  A    between atoms: C_27  and  C_28
REMARK    8  A    between atoms: C_28  and  C_29
REMARK    9  A    between atoms: C_29  and  C_30
REMARK   10  A    between atoms: C_30  and  C_33
REMARK   11  A    between atoms: N_32  and  O_35
REMARK                            x       y       z     vdW  Elec       q    Type
REMARK                         _______ _______ _______ _____ _____    ______ ____
ROOT
ATOM      1  N   UNL     1      31.921  -5.574 -23.684  0.00  0.00    -0.210 N 
ATOM      2  N   UNL     1      31.679  -6.628 -21.602  0.00  0.00    -0.202 NA
ATOM      3  N   UNL     1      31.762  -7.915 -23.638  0.00  0.00    -0.180 NA
ATOM      4  C   UNL     1      31.514  -9.028 -21.517  0.00  0.00    +0.076 C 
ATOM      5  C   UNL     1      31.781  -6.765 -22.937  0.00  0.00    +0.098 C 
ATOM      6  C   UNL     1      31.546  -7.785 -20.920  0.00  0.00    +0.170 C 
ATOM      7  C   UNL     1      31.628  -9.032 -22.893  0.00  0.00    +0.113 C 
ENDROOT
BRANCH   1   9
ATOM      8 CL   UNL     1      33.109  -2.980 -24.806  0.00  0.00    -0.081 Cl
ATOM      9  C   UNL     1      31.335  -4.317 -23.220  0.00  0.00    +0.076 C 
ATOM     10  C   UNL     1      31.809  -3.086 -23.674  0.00  0.00    +0.072 C 
ATOM     11  C   UNL     1      30.283  -4.365 -22.305  0.00  0.00    +0.017 C 
ATOM     12  C   UNL     1      31.230  -1.903 -23.213  0.00  0.00    +0.013 C 
ATOM     13  C   UNL     1      29.705  -3.182 -21.844  0.00  0.00    +0.001 C 
ATOM     14  C   UNL     1      30.179  -1.951 -22.298  0.00  0.00    +0.001 C 
ENDBRANCH   1   9
BRANCH   1  15
ATOM     15  C   UNL     1      32.656  -5.557 -24.949  0.00  0.00    +0.065 C 
ATOM     16  C   UNL     1      34.049  -5.630 -24.947  0.00  0.00    +0.016 C 
ATOM     17  C   UNL     1      31.964  -5.467 -26.157  0.00  0.00    +0.016 C 
ATOM     18  C   UNL     1      34.750  -5.613 -26.153  0.00  0.00    +0.001 C 
ATOM     19  C   UNL     1      32.664  -5.451 -27.363  0.00  0.00    +0.001 C 
ATOM     20  C   UNL     1      34.058  -5.524 -27.360  0.00  0.00    +0.000 C 
ENDBRANCH   1  15
BRANCH   4  23
ATOM     21  O   UNL     1      30.831 -10.238 -19.628  0.00  0.00    -0.270 OA
ATOM     22  N   UNL     1      31.840 -11.440 -21.338  0.00  0.00    -0.301 N 
ATOM     23  C   UNL     1      31.367 -10.281 -20.732  0.00  0.00    +0.245 C 
ATOM     24  H   UNL     1      32.256 -11.372 -22.227  0.00  0.00    +0.150 HD
BRANCH  22  25
ATOM     25  C   UNL     1      31.748 -12.732 -20.716  0.00  0.00    +0.090 C 
BRANCH  25  26
ATOM     26  C   UNL     1      33.089 -13.458 -20.733  0.00  0.00    +0.021 C 
BRANCH  26  27
ATOM     27  C   UNL     1      33.774 -13.330 -22.094  0.00  0.00    +0.002 C 
BRANCH  27  28
ATOM     28  C   UNL     1      33.383 -14.481 -23.023  0.00  0.00    +0.001 C 
BRANCH  28  29
ATOM     29  C   UNL     1      34.605 -15.320 -23.410  0.00  0.00    +0.010 C 
BRANCH  29  30
ATOM     30  C   UNL     1      34.455 -16.786 -23.008  0.00  0.00    +0.087 C 
BRANCH  30  33
ATOM     31  O   UNL     1      34.838 -16.810 -20.616  0.00  0.00    -0.273 OA
ATOM     32  N   UNL     1      36.339 -17.878 -22.010  0.00  0.00    -0.197 N 
ATOM     33  C   UNL     1      35.204 -17.152 -21.738  0.00  0.00    +0.244 C 
ATOM     34  H   UNL     1      36.592 -18.130 -22.927  0.00  0.00    +0.182 HD
BRANCH  32  35
ATOM     35  O   UNL     1      37.114 -18.235 -20.899  0.00  0.00    -0.295 OA
ATOM     36  H   UNL     1      37.978 -17.797 -20.952  0.00  0.00    +0.241 HD
ENDBRANCH  32  35
ENDBRANCH  30  33
ENDBRANCH  29  30
ENDBRANCH  28  29
ENDBRANCH  27  28
ENDBRANCH  26  27
ENDBRANCH  25  26
ENDBRANCH  22  25
ENDBRANCH   4  23
TORSDOF 11
ENDMDL
MODEL 9
REMARK VINA RESULT:      -9.1      7.699     15.583
REMARK  Name = 53340426
REMARK  11 active torsions:
REMARK  status: ('A' for Active; 'I' for Inactive)
REMARK    1  A    between atoms: N_1  and  C_9
REMARK    2  A    between atoms: N_1  and  C_15
REMARK    3  A    between atoms: C_4  and  C_23
REMARK    4  A    between atoms: N_22  and  C_25
REMARK    5  A    between atoms: C_25  and  C_26
REMARK    6  A    between atoms: C_26  and  C_27
REMARK    7  A    between atoms: C_27  and  C_28
REMARK    8  A    between atoms: C_28  and  C_29
REMARK    9  A    between atoms: C_29  and  C_30
REMARK   10  A    between atoms: C_30  and  C_33
REMARK   11  A    between atoms: N_32  and  O_35
REMARK                            x       y       z     vdW  Elec       q    Type
REMARK                         _______ _______ _______ _____ _____    ______ ____
ROOT
ATOM      1  N   UNL     1      31.999  -7.148 -23.140  0.00  0.00    -0.210 N 
ATOM      2  N   UNL     1      32.114  -8.803 -21.481  0.00  0.00    -0.202 NA
ATOM      3  N   UNL     1      32.156  -9.389 -23.818  0.00  0.00    -0.180 NA
ATOM      4  C   UNL     1      32.276 -11.112 -22.141  0.00  0.00    +0.076 C 
ATOM      5  C   UNL     1      32.095  -8.515 -22.796  0.00  0.00    +0.098 C 
ATOM      6  C   UNL     1      32.206 -10.117 -21.188  0.00  0.00    +0.170 C 
ATOM      7  C   UNL     1      32.247 -10.685 -23.453  0.00  0.00    +0.113 C 
ENDROOT
BRANCH   1   9
ATOM      8 CL   UNL     1      33.491  -6.184 -20.641  0.00  0.00    -0.081 Cl
ATOM      9  C   UNL     1      31.304  -6.196 -22.274  0.00  0.00    +0.076 C 
ATOM     10  C   UNL     1      31.901  -5.702 -21.115  0.00  0.00    +0.072 C 
ATOM     11  C   UNL     1      30.018  -5.785 -22.626  0.00  0.00    +0.017 C 
ATOM     12  C   UNL     1      31.214  -4.795 -20.308  0.00  0.00    +0.013 C 
ATOM     13  C   UNL     1      29.330  -4.878 -21.819  0.00  0.00    +0.001 C 
ATOM     14  C   UNL     1      29.928  -4.383 -20.660  0.00  0.00    +0.001 C 
ENDBRANCH   1   9
BRANCH   1  15
ATOM     15  C   UNL     1      32.591  -6.636 -24.376  0.00  0.00    +0.065 C 
ATOM     16  C   UNL     1      31.781  -6.376 -25.482  0.00  0.00    +0.016 C 
ATOM     17  C   UNL     1      33.965  -6.406 -24.449  0.00  0.00    +0.016 C 
ATOM     18  C   UNL     1      32.345  -5.888 -26.661  0.00  0.00    +0.001 C 
ATOM     19  C   UNL     1      34.529  -5.918 -25.627  0.00  0.00    +0.001 C 
ATOM     20  C   UNL     1      33.719  -5.659 -26.733  0.00  0.00    +0.000 C 
ENDBRANCH   1  15
BRANCH   4  23
ATOM     21  O   UNL     1      31.419 -13.103 -21.248  0.00  0.00    -0.270 OA
ATOM     22  N   UNL     1      33.574 -13.178 -22.103  0.00  0.00    -0.301 N 
ATOM     23  C   UNL     1      32.377 -12.550 -21.780  0.00  0.00    +0.245 C 
ATOM     24  H   UNL     1      34.286 -12.648 -22.529  0.00  0.00    +0.150 HD
BRANCH  22  25
ATOM     25  C   UNL     1      33.815 -14.570 -21.839  0.00  0.00    +0.090 C 
BRANCH  25  26
ATOM     26  C   UNL     1      34.421 -15.272 -23.049  0.00  0.00    +0.021 C 
BRANCH  26  27
ATOM     27  C   UNL     1      34.569 -16.774 -22.804  0.00  0.00    +0.002 C 
BRANCH  27  28
ATOM     28  C   UNL     1      34.917 -17.067 -21.344  0.00  0.00    +0.001 C 
BRANCH  28  29
ATOM     29  C   UNL     1      35.107 -18.570 -21.110  0.00  0.00    +0.010 C 
BRANCH  29  30
ATOM     30  C   UNL     1      33.793 -19.343 -21.200  0.00  0.00    +0.087 C 
BRANCH  30  33
ATOM     31  O   UNL     1      34.441 -20.715 -19.313  0.00  0.00    -0.273 OA
ATOM     32  N   UNL     1      32.207 -20.551 -19.874  0.00  0.00    -0.197 N 
ATOM     33  C   UNL     1      33.543 -20.267 -20.020  0.00  0.00    +0.244 C 
ATOM     34  H   UNL     1      31.521 -20.167 -20.467  0.00  0.00    +0.182 HD
BRANCH  32  35
ATOM     35  O   UNL     1      31.881 -21.424 -18.827  0.00  0.00    -0.295 OA
ATOM     36  H   UNL     1      31.007 -21.195 -18.474  0.00  0.00    +0.241 HD
ENDBRANCH  32  35
ENDBRANCH  30  33
ENDBRANCH  29  30
ENDBRANCH  28  29
ENDBRANCH  27  28
ENDBRANCH  26  27
ENDBRANCH  25  26
ENDBRANCH  22  25
ENDBRANCH   4  23
TORSDOF 11
ENDMDL
