MODEL 1
REMARK VINA RESULT:     -12.7      0.000      0.000
REMARK  Name = 4369497
REMARK  6 active torsions:
REMARK  status: ('A' for Active; 'I' for Inactive)
REMARK    1  A    between atoms: N_2  and  C_9
REMARK    2  A    between atoms: C_5  and  C_21
REMARK    3  A    between atoms: C_8  and  S_14
REMARK    4  A    between atoms: C_12  and  O_19
REMARK    5  A    between atoms: S_14  and  C_17
REMARK    6  A    between atoms: C_22  and  C_28
REMARK                            x       y       z     vdW  Elec       q    Type
REMARK                         _______ _______ _______ _____ _____    ______ ____
ROOT
ATOM      1  O   UNL     1      33.936 -20.266 -20.057  0.00  0.00    -0.424 OA
ATOM      2  N   UNL     1      33.738 -21.659 -18.241  0.00  0.00    -0.265 N 
ATOM      3  N   UNL     1      35.829 -20.660 -18.884  0.00  0.00    -0.193 NA
ATOM      4  C   UNL     1      34.542 -20.889 -19.009  0.00  0.00    +0.293 C 
ATOM      5  C   UNL     1      34.954 -19.582 -20.639  0.00  0.00    +0.168 C 
ATOM      6  C   UNL     1      36.099 -19.818 -19.933  0.00  0.00    +0.141 C 
ATOM      7  H   UNL     1      32.822 -21.771 -18.583  0.00  0.00    +0.157 HD
ENDROOT
BRANCH   2   9
ATOM      8  C   UNL     1      35.587 -23.022 -15.338  0.00  0.00    +0.107 C 
ATOM      9  C   UNL     1      34.006 -22.331 -17.015  0.00  0.00    +0.087 C 
ATOM     10  C   UNL     1      35.310 -22.366 -16.537  0.00  0.00    +0.036 C 
ATOM     11  C   UNL     1      34.557 -23.638 -14.627  0.00  0.00    +0.022 C 
ATOM     12  C   UNL     1      32.975 -22.942 -16.313  0.00  0.00    +0.152 C 
ATOM     13  C   UNL     1      33.251 -23.598 -15.114  0.00  0.00    +0.040 C 
BRANCH   8  14
ATOM     14  S   UNL     1      37.222 -23.073 -14.727  0.00  0.00    +0.009 S 
ATOM     15  O   UNL     1      38.103 -22.553 -15.763  0.00  0.00    -0.169 OA
ATOM     16  O   UNL     1      37.247 -22.487 -13.394  0.00  0.00    -0.169 OA
BRANCH  14  17
ATOM     17  C   UNL     1      37.567 -24.808 -14.536  0.00  0.00    +0.156 C 
ATOM     18  C   UNL     1      39.035 -25.055 -14.270  0.00  0.00    +0.028 C 
ENDBRANCH  14  17
ENDBRANCH   8  14
BRANCH  12  19
ATOM     19  O   UNL     1      31.692 -22.915 -16.773  0.00  0.00    -0.470 OA
ATOM     20  C   UNL     1      30.662 -22.704 -15.809  0.00  0.00    +0.253 C 
ENDBRANCH  12  19
ENDBRANCH   2   9
BRANCH   5  21
ATOM     21  C   UNL     1      34.609 -18.807 -21.806  0.00  0.00    +0.036 C 
ATOM     22  C   UNL     1      34.086 -16.681 -22.828  0.00  0.00    +0.018 C 
ATOM     23  C   UNL     1      34.422 -17.429 -21.699  0.00  0.00    +0.005 C 
ATOM     24  C   UNL     1      34.459 -19.437 -23.041  0.00  0.00    +0.003 C 
ATOM     25  C   UNL     1      33.937 -17.311 -24.063  0.00  0.00    +0.001 C 
ATOM     26  C   UNL     1      34.124 -18.689 -24.170  0.00  0.00    +0.000 C 
BRANCH  22  28
ATOM     27  N   UNL     1      33.584 -14.628 -23.875  0.00  0.00    -0.244 NA
ATOM     28  C   UNL     1      33.892 -15.251 -22.717  0.00  0.00    +0.081 C 
ATOM     29  C   UNL     1      34.022 -14.609 -21.497  0.00  0.00    +0.019 C 
ATOM     30  C   UNL     1      33.821 -13.234 -21.464  0.00  0.00    +0.003 C 
ATOM     31  C   UNL     1      33.396 -13.291 -23.804  0.00  0.00    +0.099 C 
ATOM     32  C   UNL     1      33.503 -12.555 -22.635  0.00  0.00    +0.021 C 
ENDBRANCH  22  28
ENDBRANCH   5  21
TORSDOF 6
ENDMDL
MODEL 2
REMARK VINA RESULT:     -12.0      5.350     10.227
REMARK  Name = 4369497
REMARK  6 active torsions:
REMARK  status: ('A' for Active; 'I' for Inactive)
REMARK    1  A    between atoms: N_2  and  C_9
REMARK    2  A    between atoms: C_5  and  C_21
REMARK    3  A    between atoms: C_8  and  S_14
REMARK    4  A    between atoms: C_12  and  O_19
REMARK    5  A    between atoms: S_14  and  C_17
REMARK    6  A    between atoms: C_22  and  C_28
REMARK                            x       y       z     vdW  Elec       q    Type
REMARK                         _______ _______ _______ _____ _____    ______ ____
ROOT
ATOM      1  O   UNL     1      32.977 -10.972 -22.751  0.00  0.00    -0.424 OA
ATOM      2  N   UNL     1      33.729 -13.076 -23.283  0.00  0.00    -0.265 N 
ATOM      3  N   UNL     1      31.679 -12.698 -22.082  0.00  0.00    -0.193 NA
ATOM      4  C   UNL     1      32.774 -12.317 -22.698  0.00  0.00    +0.293 C 
ATOM      5  C   UNL     1      31.895 -10.471 -22.103  0.00  0.00    +0.168 C 
ATOM      6  C   UNL     1      31.109 -11.511 -21.697  0.00  0.00    +0.141 C 
ATOM      7  H   UNL     1      34.520 -12.580 -23.594  0.00  0.00    +0.157 HD
ENDROOT
BRANCH   2   9
ATOM      8  C   UNL     1      34.461 -16.677 -22.833  0.00  0.00    +0.107 C 
ATOM      9  C   UNL     1      33.768 -14.478 -23.524  0.00  0.00    +0.087 C 
ATOM     10  C   UNL     1      34.414 -15.301 -22.609  0.00  0.00    +0.036 C 
ATOM     11  C   UNL     1      33.861 -17.219 -23.970  0.00  0.00    +0.022 C 
ATOM     12  C   UNL     1      33.169 -15.010 -24.659  0.00  0.00    +0.152 C 
ATOM     13  C   UNL     1      33.215 -16.386 -24.883  0.00  0.00    +0.040 C 
BRANCH   8  14
ATOM     14  S   UNL     1      35.270 -17.721 -21.692  0.00  0.00    +0.009 S 
ATOM     15  O   UNL     1      36.542 -18.123 -22.276  0.00  0.00    -0.169 OA
ATOM     16  O   UNL     1      35.244 -17.095 -20.377  0.00  0.00    -0.169 OA
BRANCH  14  17
ATOM     17  C   UNL     1      34.231 -19.163 -21.599  0.00  0.00    +0.156 C 
ATOM     18  C   UNL     1      34.557 -20.004 -20.385  0.00  0.00    +0.028 C 
ENDBRANCH  14  17
ENDBRANCH   8  14
BRANCH  12  19
ATOM     19  O   UNL     1      32.534 -14.212 -25.563  0.00  0.00    -0.470 OA
ATOM     20  C   UNL     1      33.332 -13.253 -26.255  0.00  0.00    +0.253 C 
ENDBRANCH  12  19
ENDBRANCH   2   9
BRANCH   5  21
ATOM     21  C   UNL     1      31.830  -9.033 -21.996  0.00  0.00    +0.036 C 
ATOM     22  C   UNL     1      32.207  -6.845 -22.948  0.00  0.00    +0.018 C 
ATOM     23  C   UNL     1      32.268  -8.235 -23.053  0.00  0.00    +0.005 C 
ATOM     24  C   UNL     1      31.333  -8.443 -20.835  0.00  0.00    +0.003 C 
ATOM     25  C   UNL     1      31.709  -6.254 -21.787  0.00  0.00    +0.001 C 
ATOM     26  C   UNL     1      31.271  -7.053 -20.731  0.00  0.00    +0.000 C 
BRANCH  22  28
ATOM     27  N   UNL     1      31.927  -6.114 -25.173  0.00  0.00    -0.244 NA
ATOM     28  C   UNL     1      32.662  -6.016 -24.043  0.00  0.00    +0.081 C 
ATOM     29  C   UNL     1      33.770  -5.198 -23.903  0.00  0.00    +0.019 C 
ATOM     30  C   UNL     1      34.150  -4.428 -24.997  0.00  0.00    +0.003 C 
ATOM     31  C   UNL     1      32.327  -5.351 -26.215  0.00  0.00    +0.099 C 
ATOM     32  C   UNL     1      33.421  -4.501 -26.178  0.00  0.00    +0.021 C 
ENDBRANCH  22  28
ENDBRANCH   5  21
TORSDOF 6
ENDMDL
MODEL 3
REMARK VINA RESULT:     -11.1      2.757      5.087
REMARK  Name = 4369497
REMARK  6 active torsions:
REMARK  status: ('A' for Active; 'I' for Inactive)
REMARK    1  A    between atoms: N_2  and  C_9
REMARK    2  A    between atoms: C_5  and  C_21
REMARK    3  A    between atoms: C_8  and  S_14
REMARK    4  A    between atoms: C_12  and  O_19
REMARK    5  A    between atoms: S_14  and  C_17
REMARK    6  A    between atoms: C_22  and  C_28
REMARK                            x       y       z     vdW  Elec       q    Type
REMARK                         _______ _______ _______ _____ _____    ______ ____
ROOT
ATOM      1  O   UNL     1      34.027 -21.047 -18.304  0.00  0.00    -0.424 OA
ATOM      2  N   UNL     1      33.180 -22.256 -16.545  0.00  0.00    -0.265 N 
ATOM      3  N   UNL     1      31.852 -21.645 -18.455  0.00  0.00    -0.193 NA
ATOM      4  C   UNL     1      32.958 -21.680 -17.748  0.00  0.00    +0.293 C 
ATOM      5  C   UNL     1      33.530 -20.573 -19.475  0.00  0.00    +0.168 C 
ATOM      6  C   UNL     1      32.216 -20.932 -19.569  0.00  0.00    +0.141 C 
ATOM      7  H   UNL     1      34.061 -22.067 -16.150  0.00  0.00    +0.157 HD
ENDROOT
BRANCH   2   9
ATOM      8  C   UNL     1      30.135 -23.894 -15.220  0.00  0.00    +0.107 C 
ATOM      9  C   UNL     1      32.341 -23.095 -15.759  0.00  0.00    +0.087 C 
ATOM     10  C   UNL     1      30.969 -23.077 -15.984  0.00  0.00    +0.036 C 
ATOM     11  C   UNL     1      30.679 -24.721 -14.238  0.00  0.00    +0.022 C 
ATOM     12  C   UNL     1      32.890 -23.916 -14.782  0.00  0.00    +0.152 C 
ATOM     13  C   UNL     1      32.056 -24.733 -14.019  0.00  0.00    +0.040 C 
BRANCH   8  14
ATOM     14  S   UNL     1      28.410 -23.880 -15.493  0.00  0.00    +0.009 S 
ATOM     15  O   UNL     1      28.177 -24.176 -16.899  0.00  0.00    -0.169 OA
ATOM     16  O   UNL     1      27.764 -24.685 -14.467  0.00  0.00    -0.169 OA
BRANCH  14  17
ATOM     17  C   UNL     1      27.931 -22.191 -15.204  0.00  0.00    +0.156 C 
ATOM     18  C   UNL     1      26.583 -21.884 -15.816  0.00  0.00    +0.028 C 
ENDBRANCH  14  17
ENDBRANCH   8  14
BRANCH  12  19
ATOM     19  O   UNL     1      34.233 -23.941 -14.552  0.00  0.00    -0.470 OA
ATOM     20  C   UNL     1      34.668 -23.658 -13.224  0.00  0.00    +0.253 C 
ENDBRANCH  12  19
ENDBRANCH   2   9
BRANCH   5  21
ATOM     21  C   UNL     1      34.455 -19.838 -20.303  0.00  0.00    +0.036 C 
ATOM     22  C   UNL     1      34.880 -18.138 -21.967  0.00  0.00    +0.018 C 
ATOM     23  C   UNL     1      33.985 -18.846 -21.164  0.00  0.00    +0.005 C 
ATOM     24  C   UNL     1      35.819 -20.122 -20.245  0.00  0.00    +0.003 C 
ATOM     25  C   UNL     1      36.244 -18.421 -21.908  0.00  0.00    +0.001 C 
ATOM     26  C   UNL     1      36.714 -19.413 -21.047  0.00  0.00    +0.000 C 
BRANCH  22  28
ATOM     27  N   UNL     1      33.803 -17.567 -23.985  0.00  0.00    -0.244 NA
ATOM     28  C   UNL     1      34.393 -17.109 -22.860  0.00  0.00    +0.081 C 
ATOM     29  C   UNL     1      34.540 -15.768 -22.547  0.00  0.00    +0.019 C 
ATOM     30  C   UNL     1      34.048 -14.833 -23.451  0.00  0.00    +0.003 C 
ATOM     31  C   UNL     1      33.337 -16.629 -24.841  0.00  0.00    +0.099 C 
ATOM     32  C   UNL     1      33.435 -15.264 -24.622  0.00  0.00    +0.021 C 
ENDBRANCH  22  28
ENDBRANCH   5  21
TORSDOF 6
ENDMDL
MODEL 4
REMARK VINA RESULT:     -11.1      6.650     12.709
REMARK  Name = 4369497
REMARK  6 active torsions:
REMARK  status: ('A' for Active; 'I' for Inactive)
REMARK    1  A    between atoms: N_2  and  C_9
REMARK    2  A    between atoms: C_5  and  C_21
REMARK    3  A    between atoms: C_8  and  S_14
REMARK    4  A    between atoms: C_12  and  O_19
REMARK    5  A    between atoms: S_14  and  C_17
REMARK    6  A    between atoms: C_22  and  C_28
REMARK                            x       y       z     vdW  Elec       q    Type
REMARK                         _______ _______ _______ _____ _____    ______ ____
ROOT
ATOM      1  O   UNL     1      32.852 -13.113 -22.997  0.00  0.00    -0.424 OA
ATOM      2  N   UNL     1      32.104 -10.943 -22.921  0.00  0.00    -0.265 N 
ATOM      3  N   UNL     1      33.469 -11.903 -21.189  0.00  0.00    -0.193 NA
ATOM      4  C   UNL     1      32.813 -11.929 -22.326  0.00  0.00    +0.293 C 
ATOM      5  C   UNL     1      33.610 -13.899 -22.191  0.00  0.00    +0.168 C 
ATOM      6  C   UNL     1      33.985 -13.171 -21.097  0.00  0.00    +0.141 C 
ATOM      7  H   UNL     1      31.604 -11.217 -23.723  0.00  0.00    +0.157 HD
ENDROOT
BRANCH   2   9
ATOM      8  C   UNL     1      32.326  -7.252 -23.112  0.00  0.00    +0.107 C 
ATOM      9  C   UNL     1      31.967  -9.570 -22.572  0.00  0.00    +0.087 C 
ATOM     10  C   UNL     1      32.453  -8.601 -23.442  0.00  0.00    +0.036 C 
ATOM     11  C   UNL     1      31.716  -6.883 -21.913  0.00  0.00    +0.022 C 
ATOM     12  C   UNL     1      31.359  -9.210 -21.376  0.00  0.00    +0.152 C 
ATOM     13  C   UNL     1      31.232  -7.861 -21.045  0.00  0.00    +0.040 C 
BRANCH   8  14
ATOM     14  S   UNL     1      32.932  -6.026 -24.197  0.00  0.00    +0.009 S 
ATOM     15  O   UNL     1      32.833  -4.740 -23.521  0.00  0.00    -0.169 OA
ATOM     16  O   UNL     1      34.212  -6.463 -24.736  0.00  0.00    -0.169 OA
BRANCH  14  17
ATOM     17  C   UNL     1      31.775  -6.022 -25.549  0.00  0.00    +0.156 C 
ATOM     18  C   UNL     1      32.475  -5.837 -26.877  0.00  0.00    +0.028 C 
ENDBRANCH  14  17
ENDBRANCH   8  14
BRANCH  12  19
ATOM     19  O   UNL     1      30.880 -10.151 -20.514  0.00  0.00    -0.470 OA
ATOM     20  C   UNL     1      31.228 -10.006 -19.138  0.00  0.00    +0.253 C 
ENDBRANCH  12  19
ENDBRANCH   2   9
BRANCH   5  21
ATOM     21  C   UNL     1      33.833 -15.249 -22.650  0.00  0.00    +0.036 C 
ATOM     22  C   UNL     1      34.432 -17.544 -22.191  0.00  0.00    +0.018 C 
ATOM     23  C   UNL     1      34.215 -16.240 -21.746  0.00  0.00    +0.005 C 
ATOM     24  C   UNL     1      33.669 -15.561 -23.999  0.00  0.00    +0.003 C 
ATOM     25  C   UNL     1      34.267 -17.856 -23.540  0.00  0.00    +0.001 C 
ATOM     26  C   UNL     1      33.885 -16.865 -24.445  0.00  0.00    +0.000 C 
BRANCH  22  28
ATOM     27  N   UNL     1      36.082 -18.446 -20.769  0.00  0.00    -0.244 NA
ATOM     28  C   UNL     1      34.828 -18.572 -21.254  0.00  0.00    +0.081 C 
ATOM     29  C   UNL     1      33.957 -19.592 -20.908  0.00  0.00    +0.019 C 
ATOM     30  C   UNL     1      34.404 -20.546 -20.001  0.00  0.00    +0.003 C 
ATOM     31  C   UNL     1      36.482 -19.393 -19.890  0.00  0.00    +0.099 C 
ATOM     32  C   UNL     1      35.689 -20.452 -19.478  0.00  0.00    +0.021 C 
ENDBRANCH  22  28
ENDBRANCH   5  21
TORSDOF 6
ENDMDL
MODEL 5
REMARK VINA RESULT:     -10.9      2.259      3.134
REMARK  Name = 4369497
REMARK  6 active torsions:
REMARK  status: ('A' for Active; 'I' for Inactive)
REMARK    1  A    between atoms: N_2  and  C_9
REMARK    2  A    between atoms: C_5  and  C_21
REMARK    3  A    between atoms: C_8  and  S_14
REMARK    4  A    between atoms: C_12  and  O_19
REMARK    5  A    between atoms: S_14  and  C_17
REMARK    6  A    between atoms: C_22  and  C_28
REMARK                            x       y       z     vdW  Elec       q    Type
REMARK                         _______ _______ _______ _____ _____    ______ ____
ROOT
ATOM      1  O   UNL     1      35.716 -20.689 -18.212  0.00  0.00    -0.424 OA
ATOM      2  N   UNL     1      35.668 -21.869 -16.241  0.00  0.00    -0.265 N 
ATOM      3  N   UNL     1      34.262 -22.419 -18.115  0.00  0.00    -0.193 NA
ATOM      4  C   UNL     1      35.181 -21.715 -17.494  0.00  0.00    +0.293 C 
ATOM      5  C   UNL     1      35.060 -20.768 -19.397  0.00  0.00    +0.168 C 
ATOM      6  C   UNL     1      34.181 -21.811 -19.342  0.00  0.00    +0.141 C 
ATOM      7  H   UNL     1      36.281 -21.158 -15.945  0.00  0.00    +0.157 HD
ENDROOT
BRANCH   2   9
ATOM      8  C   UNL     1      36.277 -24.730 -13.972  0.00  0.00    +0.107 C 
ATOM      9  C   UNL     1      35.435 -22.896 -15.285  0.00  0.00    +0.087 C 
ATOM     10  C   UNL     1      36.491 -23.718 -14.908  0.00  0.00    +0.036 C 
ATOM     11  C   UNL     1      35.008 -24.913 -13.422  0.00  0.00    +0.022 C 
ATOM     12  C   UNL     1      34.169 -23.073 -14.742  0.00  0.00    +0.152 C 
ATOM     13  C   UNL     1      33.954 -24.085 -13.807  0.00  0.00    +0.040 C 
BRANCH   8  14
ATOM     14  S   UNL     1      37.595 -25.768 -13.490  0.00  0.00    +0.009 S 
ATOM     15  O   UNL     1      37.387 -26.139 -12.098  0.00  0.00    -0.169 OA
ATOM     16  O   UNL     1      37.771 -26.805 -14.497  0.00  0.00    -0.169 OA
BRANCH  14  17
ATOM     17  C   UNL     1      39.032 -24.722 -13.568  0.00  0.00    +0.156 C 
ATOM     18  C   UNL     1      39.972 -25.152 -14.672  0.00  0.00    +0.028 C 
ENDBRANCH  14  17
ENDBRANCH   8  14
BRANCH  12  19
ATOM     19  O   UNL     1      33.126 -22.274 -15.106  0.00  0.00    -0.470 OA
ATOM     20  C   UNL     1      31.812 -22.775 -14.866  0.00  0.00    +0.253 C 
ENDBRANCH  12  19
ENDBRANCH   2   9
BRANCH   5  21
ATOM     21  C   UNL     1      35.423 -19.783 -20.388  0.00  0.00    +0.036 C 
ATOM     22  C   UNL     1      34.869 -18.482 -22.347  0.00  0.00    +0.018 C 
ATOM     23  C   UNL     1      34.516 -19.432 -21.388  0.00  0.00    +0.005 C 
ATOM     24  C   UNL     1      36.682 -19.185 -20.346  0.00  0.00    +0.003 C 
ATOM     25  C   UNL     1      36.128 -17.883 -22.305  0.00  0.00    +0.001 C 
ATOM     26  C   UNL     1      37.034 -18.234 -21.304  0.00  0.00    +0.000 C 
BRANCH  22  28
ATOM     27  N   UNL     1      33.937 -16.810 -23.725  0.00  0.00    -0.244 NA
ATOM     28  C   UNL     1      33.929 -18.117 -23.385  0.00  0.00    +0.081 C 
ATOM     29  C   UNL     1      33.103 -19.068 -23.960  0.00  0.00    +0.019 C 
ATOM     30  C   UNL     1      32.224 -18.647 -24.952  0.00  0.00    +0.003 C 
ATOM     31  C   UNL     1      33.069 -16.439 -24.693  0.00  0.00    +0.099 C 
ATOM     32  C   UNL     1      32.200 -17.310 -25.331  0.00  0.00    +0.021 C 
ENDBRANCH  22  28
ENDBRANCH   5  21
TORSDOF 6
ENDMDL
MODEL 6
REMARK VINA RESULT:     -10.8      1.624      1.997
REMARK  Name = 4369497
REMARK  6 active torsions:
REMARK  status: ('A' for Active; 'I' for Inactive)
REMARK    1  A    between atoms: N_2  and  C_9
REMARK    2  A    between atoms: C_5  and  C_21
REMARK    3  A    between atoms: C_8  and  S_14
REMARK    4  A    between atoms: C_12  and  O_19
REMARK    5  A    between atoms: S_14  and  C_17
REMARK    6  A    between atoms: C_22  and  C_28
REMARK                            x       y       z     vdW  Elec       q    Type
REMARK                         _______ _______ _______ _____ _____    ______ ____
ROOT
ATOM      1  O   UNL     1      35.279 -20.307 -19.102  0.00  0.00    -0.424 OA
ATOM      2  N   UNL     1      35.612 -21.462 -17.145  0.00  0.00    -0.265 N 
ATOM      3  N   UNL     1      33.800 -21.956 -18.648  0.00  0.00    -0.193 NA
ATOM      4  C   UNL     1      34.867 -21.296 -18.262  0.00  0.00    +0.293 C 
ATOM      5  C   UNL     1      34.373 -20.363 -20.111  0.00  0.00    +0.168 C 
ATOM      6  C   UNL     1      33.478 -21.358 -19.840  0.00  0.00    +0.141 C 
ATOM      7  H   UNL     1      36.310 -20.782 -17.007  0.00  0.00    +0.157 HD
ENDROOT
BRANCH   2   9
ATOM      8  C   UNL     1      36.679 -24.027 -14.697  0.00  0.00    +0.107 C 
ATOM      9  C   UNL     1      35.547 -22.467 -16.139  0.00  0.00    +0.087 C 
ATOM     10  C   UNL     1      36.728 -23.041 -15.682  0.00  0.00    +0.036 C 
ATOM     11  C   UNL     1      35.450 -24.432 -14.177  0.00  0.00    +0.022 C 
ATOM     12  C   UNL     1      34.319 -22.865 -15.627  0.00  0.00    +0.152 C 
ATOM     13  C   UNL     1      34.270 -23.852 -14.642  0.00  0.00    +0.040 C 
BRANCH   8  14
ATOM     14  S   UNL     1      38.156 -24.755 -14.116  0.00  0.00    +0.009 S 
ATOM     15  O   UNL     1      38.222 -26.113 -14.639  0.00  0.00    -0.169 OA
ATOM     16  O   UNL     1      39.260 -23.835 -14.350  0.00  0.00    -0.169 OA
BRANCH  14  17
ATOM     17  C   UNL     1      37.932 -24.859 -12.354  0.00  0.00    +0.156 C 
ATOM     18  C   UNL     1      37.806 -23.487 -11.729  0.00  0.00    +0.028 C 
ENDBRANCH  14  17
ENDBRANCH   8  14
BRANCH  12  19
ATOM     19  O   UNL     1      33.155 -22.311 -16.068  0.00  0.00    -0.470 OA
ATOM     20  C   UNL     1      31.947 -22.781 -15.473  0.00  0.00    +0.253 C 
ENDBRANCH  12  19
ENDBRANCH   2   9
BRANCH   5  21
ATOM     21  C   UNL     1      34.555 -19.408 -21.178  0.00  0.00    +0.036 C 
ATOM     22  C   UNL     1      34.480 -17.133 -21.987  0.00  0.00    +0.018 C 
ATOM     23  C   UNL     1      34.307 -18.054 -20.954  0.00  0.00    +0.005 C 
ATOM     24  C   UNL     1      34.974 -19.842 -22.435  0.00  0.00    +0.003 C 
ATOM     25  C   UNL     1      34.901 -17.566 -23.244  0.00  0.00    +0.001 C 
ATOM     26  C   UNL     1      35.149 -18.920 -23.468  0.00  0.00    +0.000 C 
BRANCH  22  28
ATOM     27  N   UNL     1      34.105 -15.379 -20.455  0.00  0.00    -0.244 NA
ATOM     28  C   UNL     1      34.224 -15.728 -21.755  0.00  0.00    +0.081 C 
ATOM     29  C   UNL     1      34.115 -14.841 -22.813  0.00  0.00    +0.019 C 
ATOM     30  C   UNL     1      33.868 -13.505 -22.516  0.00  0.00    +0.003 C 
ATOM     31  C   UNL     1      33.865 -14.072 -20.206  0.00  0.00    +0.099 C 
ATOM     32  C   UNL     1      33.738 -13.106 -21.191  0.00  0.00    +0.021 C 
ENDBRANCH  22  28
ENDBRANCH   5  21
TORSDOF 6
ENDMDL
MODEL 7
REMARK VINA RESULT:     -10.6      1.829      3.804
REMARK  Name = 4369497
REMARK  6 active torsions:
REMARK  status: ('A' for Active; 'I' for Inactive)
REMARK    1  A    between atoms: N_2  and  C_9
REMARK    2  A    between atoms: C_5  and  C_21
REMARK    3  A    between atoms: C_8  and  S_14
REMARK    4  A    between atoms: C_12  and  O_19
REMARK    5  A    between atoms: S_14  and  C_17
REMARK    6  A    between atoms: C_22  and  C_28
REMARK                            x       y       z     vdW  Elec       q    Type
REMARK                         _______ _______ _______ _____ _____    ______ ____
ROOT
ATOM      1  O   UNL     1      35.040 -20.447 -18.981  0.00  0.00    -0.424 OA
ATOM      2  N   UNL     1      35.235 -21.593 -17.000  0.00  0.00    -0.265 N 
ATOM      3  N   UNL     1      33.226 -21.626 -18.322  0.00  0.00    -0.193 NA
ATOM      4  C   UNL     1      34.461 -21.266 -18.059  0.00  0.00    +0.293 C 
ATOM      5  C   UNL     1      34.061 -20.287 -19.908  0.00  0.00    +0.168 C 
ATOM      6  C   UNL     1      32.964 -20.998 -19.513  0.00  0.00    +0.141 C 
ATOM      7  H   UNL     1      36.098 -21.121 -16.955  0.00  0.00    +0.157 HD
ENDROOT
BRANCH   2   9
ATOM      8  C   UNL     1      33.455 -23.619 -14.463  0.00  0.00    +0.107 C 
ATOM      9  C   UNL     1      35.001 -22.515 -15.941  0.00  0.00    +0.087 C 
ATOM     10  C   UNL     1      33.698 -22.719 -15.501  0.00  0.00    +0.036 C 
ATOM     11  C   UNL     1      34.516 -24.306 -13.874  0.00  0.00    +0.022 C 
ATOM     12  C   UNL     1      36.063 -23.195 -15.358  0.00  0.00    +0.152 C 
ATOM     13  C   UNL     1      35.819 -24.095 -14.321  0.00  0.00    +0.040 C 
BRANCH   8  14
ATOM     14  S   UNL     1      31.823 -23.884 -13.902  0.00  0.00    +0.009 S 
ATOM     15  O   UNL     1      31.655 -25.313 -13.673  0.00  0.00    -0.169 OA
ATOM     16  O   UNL     1      31.533 -22.941 -12.831  0.00  0.00    -0.169 OA
BRANCH  14  17
ATOM     17  C   UNL     1      30.801 -23.428 -15.285  0.00  0.00    +0.156 C 
ATOM     18  C   UNL     1      29.877 -22.283 -14.938  0.00  0.00    +0.028 C 
ENDBRANCH  14  17
ENDBRANCH   8  14
BRANCH  12  19
ATOM     19  O   UNL     1      37.344 -23.001 -15.780  0.00  0.00    -0.470 OA
ATOM     20  C   UNL     1      38.379 -23.610 -15.010  0.00  0.00    +0.253 C 
ENDBRANCH  12  19
ENDBRANCH   2   9
BRANCH   5  21
ATOM     21  C   UNL     1      34.389 -19.447 -21.034  0.00  0.00    +0.036 C 
ATOM     22  C   UNL     1      34.475 -17.261 -22.062  0.00  0.00    +0.018 C 
ATOM     23  C   UNL     1      34.160 -18.072 -20.971  0.00  0.00    +0.005 C 
ATOM     24  C   UNL     1      34.931 -20.011 -22.189  0.00  0.00    +0.003 C 
ATOM     25  C   UNL     1      35.018 -17.825 -23.215  0.00  0.00    +0.001 C 
ATOM     26  C   UNL     1      35.247 -19.200 -23.279  0.00  0.00    +0.000 C 
BRANCH  22  28
ATOM     27  N   UNL     1      34.121 -15.336 -20.747  0.00  0.00    -0.244 NA
ATOM     28  C   UNL     1      34.238 -15.836 -21.996  0.00  0.00    +0.081 C 
ATOM     29  C   UNL     1      34.144 -15.077 -23.151  0.00  0.00    +0.019 C 
ATOM     30  C   UNL     1      33.915 -13.713 -23.014  0.00  0.00    +0.003 C 
ATOM     31  C   UNL     1      33.898 -14.006 -20.653  0.00  0.00    +0.099 C 
ATOM     32  C   UNL     1      33.788 -13.159 -21.744  0.00  0.00    +0.021 C 
ENDBRANCH  22  28
ENDBRANCH   5  21
TORSDOF 6
ENDMDL
MODEL 8
REMARK VINA RESULT:     -10.4      7.986     13.878
REMARK  Name = 4369497
REMARK  6 active torsions:
REMARK  status: ('A' for Active; 'I' for Inactive)
REMARK    1  A    between atoms: N_2  and  C_9
REMARK    2  A    between atoms: C_5  and  C_21
REMARK    3  A    between atoms: C_8  and  S_14
REMARK    4  A    between atoms: C_12  and  O_19
REMARK    5  A    between atoms: S_14  and  C_17
REMARK    6  A    between atoms: C_22  and  C_28
REMARK                            x       y       z     vdW  Elec       q    Type
REMARK                         _______ _______ _______ _____ _____    ______ ____
ROOT
ATOM      1  O   UNL     1      32.665 -10.763 -23.324  0.00  0.00    -0.424 OA
ATOM      2  N   UNL     1      32.314  -8.585 -22.685  0.00  0.00    -0.265 N 
ATOM      3  N   UNL     1      31.150 -10.433 -21.677  0.00  0.00    -0.193 NA
ATOM      4  C   UNL     1      32.004  -9.890 -22.514  0.00  0.00    +0.293 C 
ATOM      5  C   UNL     1      32.169 -11.969 -22.946  0.00  0.00    +0.168 C 
ATOM      6  C   UNL     1      31.253 -11.773 -21.952  0.00  0.00    +0.141 C 
ATOM      7  H   UNL     1      32.908  -8.396 -23.447  0.00  0.00    +0.157 HD
ENDROOT
BRANCH   2   9
ATOM      8  C   UNL     1      31.194  -5.147 -21.888  0.00  0.00    +0.107 C 
ATOM      9  C   UNL     1      31.921  -7.442 -21.934  0.00  0.00    +0.087 C 
ATOM     10  C   UNL     1      31.581  -6.276 -22.611  0.00  0.00    +0.036 C 
ATOM     11  C   UNL     1      31.151  -5.194 -20.494  0.00  0.00    +0.022 C 
ATOM     12  C   UNL     1      31.881  -7.496 -20.547  0.00  0.00    +0.152 C 
ATOM     13  C   UNL     1      31.494  -6.367 -19.824  0.00  0.00    +0.040 C 
BRANCH   8  14
ATOM     14  S   UNL     1      30.765  -3.677 -22.726  0.00  0.00    +0.009 S 
ATOM     15  O   UNL     1      29.525  -3.178 -22.148  0.00  0.00    -0.169 OA
ATOM     16  O   UNL     1      31.934  -2.811 -22.789  0.00  0.00    -0.169 OA
BRANCH  14  17
ATOM     17  C   UNL     1      30.420  -4.203 -24.390  0.00  0.00    +0.156 C 
ATOM     18  C   UNL     1      31.499  -3.753 -25.349  0.00  0.00    +0.028 C 
ENDBRANCH  14  17
ENDBRANCH   8  14
BRANCH  12  19
ATOM     19  O   UNL     1      32.213  -8.633 -19.873  0.00  0.00    -0.470 OA
ATOM     20  C   UNL     1      31.453  -8.940 -18.706  0.00  0.00    +0.253 C 
ENDBRANCH  12  19
ENDBRANCH   2   9
BRANCH   5  21
ATOM     21  C   UNL     1      32.695 -13.116 -23.646  0.00  0.00    +0.036 C 
ATOM     22  C   UNL     1      33.691 -15.317 -23.606  0.00  0.00    +0.018 C 
ATOM     23  C   UNL     1      33.181 -14.209 -22.928  0.00  0.00    +0.005 C 
ATOM     24  C   UNL     1      32.720 -13.130 -25.040  0.00  0.00    +0.003 C 
ATOM     25  C   UNL     1      33.715 -15.331 -25.000  0.00  0.00    +0.001 C 
ATOM     26  C   UNL     1      33.229 -14.239 -25.718  0.00  0.00    +0.000 C 
BRANCH  22  28
ATOM     27  N   UNL     1      34.102 -17.637 -23.502  0.00  0.00    -0.244 NA
ATOM     28  C   UNL     1      34.195 -16.451 -22.862  0.00  0.00    +0.081 C 
ATOM     29  C   UNL     1      34.725 -16.290 -21.593  0.00  0.00    +0.019 C 
ATOM     30  C   UNL     1      35.191 -17.423 -20.936  0.00  0.00    +0.003 C 
ATOM     31  C   UNL     1      34.565 -18.717 -22.832  0.00  0.00    +0.099 C 
ATOM     32  C   UNL     1      35.113 -18.663 -21.561  0.00  0.00    +0.021 C 
ENDBRANCH  22  28
ENDBRANCH   5  21
TORSDOF 6
ENDMDL
MODEL 9
REMARK VINA RESULT:     -10.3     10.148     16.624
REMARK  Name = 4369497
REMARK  6 active torsions:
REMARK  status: ('A' for Active; 'I' for Inactive)
REMARK    1  A    between atoms: N_2  and  C_9
REMARK    2  A    between atoms: C_5  and  C_21
REMARK    3  A    between atoms: C_8  and  S_14
REMARK    4  A    between atoms: C_12  and  O_19
REMARK    5  A    between atoms: S_14  and  C_17
REMARK    6  A    between atoms: C_22  and  C_28
REMARK                            x       y       z     vdW  Elec       q    Type
REMARK                         _______ _______ _______ _____ _____    ______ ____
ROOT
ATOM      1  O   UNL     1      31.415  -7.821 -23.587  0.00  0.00    -0.424 OA
ATOM      2  N   UNL     1      31.144  -5.774 -24.594  0.00  0.00    -0.265 N 
ATOM      3  N   UNL     1      33.296  -6.611 -23.919  0.00  0.00    -0.193 NA
ATOM      4  C   UNL     1      31.992  -6.680 -24.055  0.00  0.00    +0.293 C 
ATOM      5  C   UNL     1      32.471  -8.529 -23.114  0.00  0.00    +0.168 C 
ATOM      6  C   UNL     1      33.610  -7.801 -23.313  0.00  0.00    +0.141 C 
ATOM      7  H   UNL     1      30.189  -5.990 -24.495  0.00  0.00    +0.157 HD
ENDROOT
BRANCH   2   9
ATOM      8  C   UNL     1      32.477  -3.409 -27.112  0.00  0.00    +0.107 C 
ATOM      9  C   UNL     1      31.415  -4.558 -25.282  0.00  0.00    +0.087 C 
ATOM     10  C   UNL     1      32.202  -4.593 -26.428  0.00  0.00    +0.036 C 
ATOM     11  C   UNL     1      31.962  -2.200 -26.645  0.00  0.00    +0.022 C 
ATOM     12  C   UNL     1      30.899  -3.358 -24.811  0.00  0.00    +0.152 C 
ATOM     13  C   UNL     1      31.174  -2.174 -25.495  0.00  0.00    +0.040 C 
BRANCH   8  14
ATOM     14  S   UNL     1      33.464  -3.440 -28.551  0.00  0.00    +0.009 S 
ATOM     15  O   UNL     1      32.618  -3.089 -29.683  0.00  0.00    -0.169 OA
ATOM     16  O   UNL     1      34.687  -2.690 -28.301  0.00  0.00    -0.169 OA
BRANCH  14  17
ATOM     17  C   UNL     1      33.932  -5.148 -28.728  0.00  0.00    +0.156 C 
ATOM     18  C   UNL     1      33.285  -5.777 -29.941  0.00  0.00    +0.028 C 
ENDBRANCH  14  17
ENDBRANCH   8  14
BRANCH  12  19
ATOM     19  O   UNL     1      30.128  -3.311 -23.689  0.00  0.00    -0.470 OA
ATOM     20  C   UNL     1      30.731  -2.782 -22.510  0.00  0.00    +0.253 C 
ENDBRANCH  12  19
ENDBRANCH   2   9
BRANCH   5  21
ATOM     21  C   UNL     1      32.164  -9.817 -22.541  0.00  0.00    +0.036 C 
ATOM     22  C   UNL     1      32.450 -12.216 -22.509  0.00  0.00    +0.018 C 
ATOM     23  C   UNL     1      32.750 -10.971 -23.062  0.00  0.00    +0.005 C 
ATOM     24  C   UNL     1      31.277  -9.909 -21.468  0.00  0.00    +0.003 C 
ATOM     25  C   UNL     1      31.565 -12.307 -21.436  0.00  0.00    +0.001 C 
ATOM     26  C   UNL     1      30.979 -11.154 -20.915  0.00  0.00    +0.000 C 
BRANCH  22  28
ATOM     27  N   UNL     1      32.765 -13.665 -24.342  0.00  0.00    -0.244 NA
ATOM     28  C   UNL     1      33.058 -13.413 -23.048  0.00  0.00    +0.081 C 
ATOM     29  C   UNL     1      33.873 -14.212 -22.264  0.00  0.00    +0.019 C 
ATOM     30  C   UNL     1      34.424 -15.347 -22.847  0.00  0.00    +0.003 C 
ATOM     31  C   UNL     1      33.319 -14.778 -24.876  0.00  0.00    +0.099 C 
ATOM     32  C   UNL     1      34.146 -15.643 -24.178  0.00  0.00    +0.021 C 
ENDBRANCH  22  28
ENDBRANCH   5  21
TORSDOF 6
ENDMDL
