MODEL 1
REMARK VINA RESULT:     -12.7      0.000      0.000
REMARK  Name = 25114442
REMARK  7 active torsions:
REMARK  status: ('A' for Active; 'I' for Inactive)
REMARK    1  A    between atoms: C_3  and  C_15
REMARK    2  A    between atoms: C_3  and  C_18
REMARK    3  A    between atoms: C_6  and  C_8
REMARK    4  A    between atoms: C_15  and  O_16
REMARK    5  A    between atoms: C_18  and  O_19
REMARK    6  A    between atoms: O_19  and  C_20
REMARK    7  A    between atoms: C_28  and  O_30
REMARK                            x       y       z     vdW  Elec       q    Type
REMARK                         _______ _______ _______ _____ _____    ______ ____
ROOT
ATOM      1  O   UNL     1      31.743 -22.546 -12.312  0.00  0.00    -0.270 OA
ATOM      2  N   UNL     1      33.130 -23.443 -13.915  0.00  0.00    -0.275 N 
ATOM      3  C   UNL     1      34.945 -23.437 -14.858  0.00  0.00    +0.166 C 
ATOM      4  C   UNL     1      33.580 -24.075 -15.141  0.00  0.00    +0.110 C 
ATOM      5  C   UNL     1      34.468 -23.165 -13.427  0.00  0.00    +0.110 C 
ATOM      6  C   UNL     1      31.910 -23.088 -13.401  0.00  0.00    +0.249 C 
ENDROOT
BRANCH   6   8
ATOM      7  F   UNL     1      27.417 -24.127 -16.586  0.00  0.00    -0.204 F 
ATOM      8  C   UNL     1      30.727 -23.360 -14.239  0.00  0.00    +0.054 C 
ATOM      9  C   UNL     1      30.358 -22.462 -15.240  0.00  0.00    +0.007 C 
ATOM     10  C   UNL     1      29.978 -24.519 -14.031  0.00  0.00    +0.007 C 
ATOM     11  C   UNL     1      29.241 -22.720 -16.032  0.00  0.00    +0.030 C 
ATOM     12  C   UNL     1      28.859 -24.777 -14.824  0.00  0.00    +0.030 C 
ATOM     13  C   UNL     1      28.491 -23.878 -15.825  0.00  0.00    +0.140 C 
ENDBRANCH   6   8
BRANCH   3  15
ATOM     14  O   UNL     1      36.161 -25.593 -15.008  0.00  0.00    -0.250 OA
ATOM     15  C   UNL     1      36.179 -24.364 -15.008  0.00  0.00    +0.320 C 
BRANCH  15  16
ATOM     16  O   UNL     1      37.339 -23.663 -15.148  0.00  0.00    -0.480 OA
ATOM     17  H   UNL     1      38.139 -24.009 -14.805  0.00  0.00    +0.295 HD
ENDBRANCH  15  16
ENDBRANCH   3  15
BRANCH   3  18
ATOM     18  C   UNL     1      35.140 -22.153 -15.639  0.00  0.00    +0.219 C 
BRANCH  18  19
ATOM     19  O   UNL     1      35.611 -22.480 -16.946  0.00  0.00    -0.475 OA
BRANCH  19  20
ATOM     20  C   UNL     1      35.125 -21.743 -17.982  0.00  0.00    +0.139 C 
ATOM     21  C   UNL     1      35.976 -20.898 -18.694  0.00  0.00    +0.037 C 
ATOM     22  C   UNL     1      33.780 -21.833 -18.329  0.00  0.00    +0.037 C 
ATOM     23  C   UNL     1      35.491 -20.130 -19.766  0.00  0.00    +0.003 C 
ATOM     24  C   UNL     1      34.124 -20.221 -20.119  0.00  0.00    +0.003 C 
ATOM     25  C   UNL     1      33.281 -21.077 -19.391  0.00  0.00    +0.003 C 
ATOM     26  C   UNL     1      36.334 -19.274 -20.494  0.00  0.00    +0.003 C 
ATOM     27  C   UNL     1      33.639 -19.453 -21.191  0.00  0.00    +0.037 C 
ATOM     28  C   UNL     1      34.490 -18.608 -21.903  0.00  0.00    +0.139 C 
ATOM     29  C   UNL     1      35.835 -18.517 -21.555  0.00  0.00    +0.037 C 
BRANCH  28  30
ATOM     30  O   UNL     1      34.004 -17.869 -22.938  0.00  0.00    -0.471 OA
ATOM     31  C   UNL     1      34.437 -16.512 -23.025  0.00  0.00    +0.252 C 
ENDBRANCH  28  30
ENDBRANCH  19  20
ENDBRANCH  18  19
ENDBRANCH   3  18
TORSDOF 7
ENDMDL
MODEL 2
REMARK VINA RESULT:     -11.7      4.262      9.680
REMARK  Name = 25114442
REMARK  7 active torsions:
REMARK  status: ('A' for Active; 'I' for Inactive)
REMARK    1  A    between atoms: C_3  and  C_15
REMARK    2  A    between atoms: C_3  and  C_18
REMARK    3  A    between atoms: C_6  and  C_8
REMARK    4  A    between atoms: C_15  and  O_16
REMARK    5  A    between atoms: C_18  and  O_19
REMARK    6  A    between atoms: O_19  and  C_20
REMARK    7  A    between atoms: C_28  and  O_30
REMARK                            x       y       z     vdW  Elec       q    Type
REMARK                         _______ _______ _______ _____ _____    ______ ____
ROOT
ATOM      1  O   UNL     1      33.062 -15.013 -24.511  0.00  0.00    -0.270 OA
ATOM      2  N   UNL     1      34.286 -15.875 -22.763  0.00  0.00    -0.275 N 
ATOM      3  C   UNL     1      35.094 -17.507 -21.831  0.00  0.00    +0.166 C 
ATOM      4  C   UNL     1      34.853 -16.045 -21.438  0.00  0.00    +0.110 C 
ATOM      5  C   UNL     1      34.844 -17.107 -23.290  0.00  0.00    +0.110 C 
ATOM      6  C   UNL     1      33.425 -14.978 -23.338  0.00  0.00    +0.249 C 
ENDROOT
BRANCH   6   8
ATOM      7  F   UNL     1      31.389 -10.934 -20.035  0.00  0.00    -0.204 F 
ATOM      8  C   UNL     1      32.888 -13.914 -22.468  0.00  0.00    +0.054 C 
ATOM      9  C   UNL     1      32.810 -14.112 -21.090  0.00  0.00    +0.007 C 
ATOM     10  C   UNL     1      32.460 -12.708 -23.025  0.00  0.00    +0.007 C 
ATOM     11  C   UNL     1      32.304 -13.106 -20.268  0.00  0.00    +0.030 C 
ATOM     12  C   UNL     1      31.952 -11.702 -22.202  0.00  0.00    +0.030 C 
ATOM     13  C   UNL     1      31.875 -11.900 -20.824  0.00  0.00    +0.140 C 
ENDBRANCH   6   8
BRANCH   3  15
ATOM     14  O   UNL     1      37.373 -18.347 -22.324  0.00  0.00    -0.250 OA
ATOM     15  C   UNL     1      36.496 -18.083 -21.505  0.00  0.00    +0.320 C 
BRANCH  15  16
ATOM     16  O   UNL     1      36.678 -18.278 -20.170  0.00  0.00    -0.480 OA
ATOM     17  H   UNL     1      36.202 -18.951 -19.726  0.00  0.00    +0.295 HD
ENDBRANCH  15  16
ENDBRANCH   3  15
BRANCH   3  18
ATOM     18  C   UNL     1      34.003 -18.420 -21.305  0.00  0.00    +0.219 C 
BRANCH  18  19
ATOM     19  O   UNL     1      34.504 -19.755 -21.269  0.00  0.00    -0.475 OA
BRANCH  19  20
ATOM     20  C   UNL     1      34.300 -20.462 -20.124  0.00  0.00    +0.139 C 
ATOM     21  C   UNL     1      35.364 -20.701 -19.254  0.00  0.00    +0.037 C 
ATOM     22  C   UNL     1      33.031 -20.949 -19.823  0.00  0.00    +0.037 C 
ATOM     23  C   UNL     1      35.170 -21.429 -18.068  0.00  0.00    +0.003 C 
ATOM     24  C   UNL     1      33.880 -21.923 -17.762  0.00  0.00    +0.003 C 
ATOM     25  C   UNL     1      32.821 -21.674 -18.650  0.00  0.00    +0.003 C 
ATOM     26  C   UNL     1      36.230 -21.677 -17.181  0.00  0.00    +0.003 C 
ATOM     27  C   UNL     1      33.688 -22.651 -16.576  0.00  0.00    +0.037 C 
ATOM     28  C   UNL     1      34.751 -22.889 -15.706  0.00  0.00    +0.139 C 
ATOM     29  C   UNL     1      36.020 -22.404 -16.007  0.00  0.00    +0.037 C 
BRANCH  28  30
ATOM     30  O   UNL     1      34.547 -23.598 -14.562  0.00  0.00    -0.471 OA
ATOM     31  C   UNL     1      35.419 -24.702 -14.320  0.00  0.00    +0.252 C 
ENDBRANCH  28  30
ENDBRANCH  19  20
ENDBRANCH  18  19
ENDBRANCH   3  18
TORSDOF 7
ENDMDL
MODEL 3
REMARK VINA RESULT:     -11.3      4.297     10.082
REMARK  Name = 25114442
REMARK  7 active torsions:
REMARK  status: ('A' for Active; 'I' for Inactive)
REMARK    1  A    between atoms: C_3  and  C_15
REMARK    2  A    between atoms: C_3  and  C_18
REMARK    3  A    between atoms: C_6  and  C_8
REMARK    4  A    between atoms: C_15  and  O_16
REMARK    5  A    between atoms: C_18  and  O_19
REMARK    6  A    between atoms: O_19  and  C_20
REMARK    7  A    between atoms: C_28  and  O_30
REMARK                            x       y       z     vdW  Elec       q    Type
REMARK                         _______ _______ _______ _____ _____    ______ ____
ROOT
ATOM      1  O   UNL     1      33.005 -16.286 -25.195  0.00  0.00    -0.270 OA
ATOM      2  N   UNL     1      34.403 -16.493 -23.379  0.00  0.00    -0.275 N 
ATOM      3  C   UNL     1      35.247 -17.689 -21.950  0.00  0.00    +0.166 C 
ATOM      4  C   UNL     1      35.128 -16.175 -22.164  0.00  0.00    +0.110 C 
ATOM      5  C   UNL     1      34.830 -17.880 -23.413  0.00  0.00    +0.110 C 
ATOM      6  C   UNL     1      33.518 -15.821 -24.181  0.00  0.00    +0.249 C 
ENDROOT
BRANCH   6   8
ATOM      7  F   UNL     1      32.119 -10.623 -22.621  0.00  0.00    -0.204 F 
ATOM      8  C   UNL     1      33.148 -14.453 -23.770  0.00  0.00    +0.054 C 
ATOM      9  C   UNL     1      33.022 -14.142 -22.417  0.00  0.00    +0.007 C 
ATOM     10  C   UNL     1      32.928 -13.471 -24.736  0.00  0.00    +0.007 C 
ATOM     11  C   UNL     1      32.675 -12.848 -22.028  0.00  0.00    +0.030 C 
ATOM     12  C   UNL     1      32.579 -12.177 -24.347  0.00  0.00    +0.030 C 
ATOM     13  C   UNL     1      32.453 -11.865 -22.994  0.00  0.00    +0.140 C 
ENDBRANCH   6   8
BRANCH   3  15
ATOM     14  O   UNL     1      37.557 -18.500 -22.341  0.00  0.00    -0.250 OA
ATOM     15  C   UNL     1      36.651 -18.218 -21.560  0.00  0.00    +0.320 C 
BRANCH  15  16
ATOM     16  O   UNL     1      36.799 -18.347 -20.212  0.00  0.00    -0.480 OA
ATOM     17  H   UNL     1      37.634 -18.194 -19.815  0.00  0.00    +0.295 HD
ENDBRANCH  15  16
ENDBRANCH   3  15
BRANCH   3  18
ATOM     18  C   UNL     1      34.192 -18.208 -20.993  0.00  0.00    +0.219 C 
BRANCH  18  19
ATOM     19  O   UNL     1      34.099 -19.624 -21.142  0.00  0.00    -0.475 OA
BRANCH  19  20
ATOM     20  C   UNL     1      34.127 -20.370 -20.004  0.00  0.00    +0.139 C 
ATOM     21  C   UNL     1      32.932 -20.767 -19.402  0.00  0.00    +0.037 C 
ATOM     22  C   UNL     1      35.346 -20.735 -19.440  0.00  0.00    +0.037 C 
ATOM     23  C   UNL     1      32.943 -21.536 -18.227  0.00  0.00    +0.003 C 
ATOM     24  C   UNL     1      34.183 -21.908 -17.654  0.00  0.00    +0.003 C 
ATOM     25  C   UNL     1      35.376 -21.499 -18.273  0.00  0.00    +0.003 C 
ATOM     26  C   UNL     1      31.750 -21.945 -17.609  0.00  0.00    +0.003 C 
ATOM     27  C   UNL     1      34.193 -22.677 -16.479  0.00  0.00    +0.037 C 
ATOM     28  C   UNL     1      32.999 -23.074 -15.878  0.00  0.00    +0.139 C 
ATOM     29  C   UNL     1      31.779 -22.709 -16.441  0.00  0.00    +0.037 C 
BRANCH  28  30
ATOM     30  O   UNL     1      33.027 -23.818 -14.738  0.00  0.00    -0.471 OA
ATOM     31  C   UNL     1      31.802 -23.946 -14.018  0.00  0.00    +0.252 C 
ENDBRANCH  28  30
ENDBRANCH  19  20
ENDBRANCH  18  19
ENDBRANCH   3  18
TORSDOF 7
ENDMDL
MODEL 4
REMARK VINA RESULT:     -11.0      5.161      9.708
REMARK  Name = 25114442
REMARK  7 active torsions:
REMARK  status: ('A' for Active; 'I' for Inactive)
REMARK    1  A    between atoms: C_3  and  C_15
REMARK    2  A    between atoms: C_3  and  C_18
REMARK    3  A    between atoms: C_6  and  C_8
REMARK    4  A    between atoms: C_15  and  O_16
REMARK    5  A    between atoms: C_18  and  O_19
REMARK    6  A    between atoms: O_19  and  C_20
REMARK    7  A    between atoms: C_28  and  O_30
REMARK                            x       y       z     vdW  Elec       q    Type
REMARK                         _______ _______ _______ _____ _____    ______ ____
ROOT
ATOM      1  O   UNL     1      36.816 -19.115 -20.712  0.00  0.00    -0.270 OA
ATOM      2  N   UNL     1      35.062 -18.373 -22.005  0.00  0.00    -0.275 N 
ATOM      3  C   UNL     1      34.205 -16.865 -23.089  0.00  0.00    +0.166 C 
ATOM      4  C   UNL     1      33.720 -18.208 -22.531  0.00  0.00    +0.110 C 
ATOM      5  C   UNL     1      35.642 -17.331 -22.831  0.00  0.00    +0.110 C 
ATOM      6  C   UNL     1      35.623 -19.122 -21.004  0.00  0.00    +0.249 C 
ENDROOT
BRANCH   6   8
ATOM      7  F   UNL     1      32.165 -22.359 -18.009  0.00  0.00    -0.204 F 
ATOM      8  C   UNL     1      34.713 -19.975 -20.216  0.00  0.00    +0.054 C 
ATOM      9  C   UNL     1      35.233 -20.938 -19.352  0.00  0.00    +0.007 C 
ATOM     10  C   UNL     1      33.332 -19.817 -20.334  0.00  0.00    +0.007 C 
ATOM     11  C   UNL     1      34.373 -21.743 -18.606  0.00  0.00    +0.030 C 
ATOM     12  C   UNL     1      32.471 -20.623 -19.589  0.00  0.00    +0.030 C 
ATOM     13  C   UNL     1      32.991 -21.586 -18.724  0.00  0.00    +0.140 C 
ENDBRANCH   6   8
BRANCH   3  15
ATOM     14  O   UNL     1      32.890 -17.048 -25.183  0.00  0.00    -0.250 OA
ATOM     15  C   UNL     1      33.833 -16.561 -24.564  0.00  0.00    +0.320 C 
BRANCH  15  16
ATOM     16  O   UNL     1      34.683 -15.664 -25.137  0.00  0.00    -0.480 OA
ATOM     17  H   UNL     1      35.159 -15.062 -24.601  0.00  0.00    +0.295 HD
ENDBRANCH  15  16
ENDBRANCH   3  15
BRANCH   3  18
ATOM     18  C   UNL     1      33.820 -15.708 -22.189  0.00  0.00    +0.219 C 
BRANCH  18  19
ATOM     19  O   UNL     1      33.382 -14.622 -23.004  0.00  0.00    -0.475 OA
BRANCH  19  20
ATOM     20  C   UNL     1      32.893 -13.524 -22.364  0.00  0.00    +0.139 C 
ATOM     21  C   UNL     1      32.798 -12.308 -23.041  0.00  0.00    +0.037 C 
ATOM     22  C   UNL     1      32.491 -13.616 -21.034  0.00  0.00    +0.037 C 
ATOM     23  C   UNL     1      32.296 -11.167 -22.395  0.00  0.00    +0.003 C 
ATOM     24  C   UNL     1      31.886 -11.259 -21.043  0.00  0.00    +0.003 C 
ATOM     25  C   UNL     1      31.990 -12.492 -20.377  0.00  0.00    +0.003 C 
ATOM     26  C   UNL     1      32.192  -9.934 -23.061  0.00  0.00    +0.003 C 
ATOM     27  C   UNL     1      31.384 -10.117 -20.398  0.00  0.00    +0.037 C 
ATOM     28  C   UNL     1      31.288  -8.902 -21.075  0.00  0.00    +0.139 C 
ATOM     29  C   UNL     1      31.692  -8.809 -22.404  0.00  0.00    +0.037 C 
BRANCH  28  30
ATOM     30  O   UNL     1      30.802  -7.803 -20.434  0.00  0.00    -0.471 OA
ATOM     31  C   UNL     1      31.755  -6.846 -19.974  0.00  0.00    +0.252 C 
ENDBRANCH  28  30
ENDBRANCH  19  20
ENDBRANCH  18  19
ENDBRANCH   3  18
TORSDOF 7
ENDMDL
MODEL 5
REMARK VINA RESULT:     -10.6      0.939      1.616
REMARK  Name = 25114442
REMARK  7 active torsions:
REMARK  status: ('A' for Active; 'I' for Inactive)
REMARK    1  A    between atoms: C_3  and  C_15
REMARK    2  A    between atoms: C_3  and  C_18
REMARK    3  A    between atoms: C_6  and  C_8
REMARK    4  A    between atoms: C_15  and  O_16
REMARK    5  A    between atoms: C_18  and  O_19
REMARK    6  A    between atoms: O_19  and  C_20
REMARK    7  A    between atoms: C_28  and  O_30
REMARK                            x       y       z     vdW  Elec       q    Type
REMARK                         _______ _______ _______ _____ _____    ______ ____
ROOT
ATOM      1  O   UNL     1      32.784 -22.696 -12.030  0.00  0.00    -0.270 OA
ATOM      2  N   UNL     1      33.956 -23.905 -13.599  0.00  0.00    -0.275 N 
ATOM      3  C   UNL     1      35.680 -24.180 -14.665  0.00  0.00    +0.166 C 
ATOM      4  C   UNL     1      34.249 -24.721 -14.762  0.00  0.00    +0.110 C 
ATOM      5  C   UNL     1      35.348 -23.691 -13.251  0.00  0.00    +0.110 C 
ATOM      6  C   UNL     1      32.815 -23.381 -13.049  0.00  0.00    +0.249 C 
ENDROOT
BRANCH   6   8
ATOM      7  F   UNL     1      28.002 -24.394 -15.735  0.00  0.00    -0.204 F 
ATOM      8  C   UNL     1      31.548 -23.646 -13.755  0.00  0.00    +0.054 C 
ATOM      9  C   UNL     1      31.201 -22.890 -14.874  0.00  0.00    +0.007 C 
ATOM     10  C   UNL     1      30.697 -24.656 -13.305  0.00  0.00    +0.007 C 
ATOM     11  C   UNL     1      30.004 -23.142 -15.543  0.00  0.00    +0.030 C 
ATOM     12  C   UNL     1      29.499 -24.908 -13.974  0.00  0.00    +0.030 C 
ATOM     13  C   UNL     1      29.152 -24.151 -15.093  0.00  0.00    +0.140 C 
ENDBRANCH   6   8
BRANCH   3  15
ATOM     14  O   UNL     1      36.671 -26.441 -14.881  0.00  0.00    -0.250 OA
ATOM     15  C   UNL     1      36.818 -25.225 -14.783  0.00  0.00    +0.320 C 
BRANCH  15  16
ATOM     16  O   UNL     1      38.053 -24.650 -14.770  0.00  0.00    -0.480 OA
ATOM     17  H   UNL     1      38.161 -23.767 -15.062  0.00  0.00    +0.295 HD
ENDBRANCH  15  16
ENDBRANCH   3  15
BRANCH   3  18
ATOM     18  C   UNL     1      35.911 -23.024 -15.618  0.00  0.00    +0.219 C 
BRANCH  18  19
ATOM     19  O   UNL     1      34.698 -22.763 -16.322  0.00  0.00    -0.475 OA
BRANCH  19  20
ATOM     20  C   UNL     1      34.781 -21.976 -17.430  0.00  0.00    +0.139 C 
ATOM     21  C   UNL     1      33.629 -21.672 -18.156  0.00  0.00    +0.037 C 
ATOM     22  C   UNL     1      36.014 -21.475 -17.837  0.00  0.00    +0.037 C 
ATOM     23  C   UNL     1      33.697 -20.861 -19.301  0.00  0.00    +0.003 C 
ATOM     24  C   UNL     1      34.951 -20.352 -19.715  0.00  0.00    +0.003 C 
ATOM     25  C   UNL     1      36.100 -20.668 -18.972  0.00  0.00    +0.003 C 
ATOM     26  C   UNL     1      32.548 -20.545 -20.043  0.00  0.00    +0.003 C 
ATOM     27  C   UNL     1      35.018 -19.542 -20.860  0.00  0.00    +0.037 C 
ATOM     28  C   UNL     1      33.867 -19.237 -21.586  0.00  0.00    +0.139 C 
ATOM     29  C   UNL     1      32.633 -19.738 -21.179  0.00  0.00    +0.037 C 
BRANCH  28  30
ATOM     30  O   UNL     1      33.950 -18.452 -22.695  0.00  0.00    -0.471 OA
ATOM     31  C   UNL     1      34.987 -17.473 -22.719  0.00  0.00    +0.252 C 
ENDBRANCH  28  30
ENDBRANCH  19  20
ENDBRANCH  18  19
ENDBRANCH   3  18
TORSDOF 7
ENDMDL
MODEL 6
REMARK VINA RESULT:     -10.4      3.600      7.293
REMARK  Name = 25114442
REMARK  7 active torsions:
REMARK  status: ('A' for Active; 'I' for Inactive)
REMARK    1  A    between atoms: C_3  and  C_15
REMARK    2  A    between atoms: C_3  and  C_18
REMARK    3  A    between atoms: C_6  and  C_8
REMARK    4  A    between atoms: C_15  and  O_16
REMARK    5  A    between atoms: C_18  and  O_19
REMARK    6  A    between atoms: O_19  and  C_20
REMARK    7  A    between atoms: C_28  and  O_30
REMARK                            x       y       z     vdW  Elec       q    Type
REMARK                         _______ _______ _______ _____ _____    ______ ____
ROOT
ATOM      1  O   UNL     1      36.390 -21.292 -18.305  0.00  0.00    -0.270 OA
ATOM      2  N   UNL     1      34.949 -20.536 -19.932  0.00  0.00    -0.275 N 
ATOM      3  C   UNL     1      34.500 -19.141 -21.359  0.00  0.00    +0.166 C 
ATOM      4  C   UNL     1      33.723 -20.261 -20.657  0.00  0.00    +0.110 C 
ATOM      5  C   UNL     1      35.793 -19.772 -20.831  0.00  0.00    +0.110 C 
ATOM      6  C   UNL     1      35.254 -21.164 -18.752  0.00  0.00    +0.249 C 
ENDROOT
BRANCH   6   8
ATOM      7  F   UNL     1      30.965 -23.191 -15.768  0.00  0.00    -0.204 F 
ATOM      8  C   UNL     1      34.125 -21.699 -17.967  0.00  0.00    +0.054 C 
ATOM      9  C   UNL     1      34.365 -22.361 -16.764  0.00  0.00    +0.007 C 
ATOM     10  C   UNL     1      32.818 -21.539 -18.427  0.00  0.00    +0.007 C 
ATOM     11  C   UNL     1      33.298 -22.865 -16.020  0.00  0.00    +0.030 C 
ATOM     12  C   UNL     1      31.751 -22.044 -17.684  0.00  0.00    +0.030 C 
ATOM     13  C   UNL     1      31.990 -22.707 -16.481  0.00  0.00    +0.140 C 
ENDBRANCH   6   8
BRANCH   3  15
ATOM     14  O   UNL     1      35.160 -19.480 -23.723  0.00  0.00    -0.250 OA
ATOM     15  C   UNL     1      34.350 -19.063 -22.900  0.00  0.00    +0.320 C 
BRANCH  15  16
ATOM     16  O   UNL     1      33.186 -18.464 -23.277  0.00  0.00    -0.480 OA
ATOM     17  H   UNL     1      32.607 -18.115 -22.628  0.00  0.00    +0.295 HD
ENDBRANCH  15  16
ENDBRANCH   3  15
BRANCH   3  18
ATOM     18  C   UNL     1      34.236 -17.789 -20.724  0.00  0.00    +0.219 C 
BRANCH  18  19
ATOM     19  O   UNL     1      35.028 -16.809 -21.394  0.00  0.00    -0.475 OA
BRANCH  19  20
ATOM     20  C   UNL     1      34.405 -15.658 -21.765  0.00  0.00    +0.139 C 
ATOM     21  C   UNL     1      33.653 -14.941 -20.834  0.00  0.00    +0.037 C 
ATOM     22  C   UNL     1      34.517 -15.197 -23.074  0.00  0.00    +0.037 C 
ATOM     23  C   UNL     1      33.002 -13.752 -21.201  0.00  0.00    +0.003 C 
ATOM     24  C   UNL     1      33.116 -13.282 -22.532  0.00  0.00    +0.003 C 
ATOM     25  C   UNL     1      33.878 -14.016 -23.456  0.00  0.00    +0.003 C 
ATOM     26  C   UNL     1      32.242 -13.018 -20.276  0.00  0.00    +0.003 C 
ATOM     27  C   UNL     1      32.466 -12.093 -22.898  0.00  0.00    +0.037 C 
ATOM     28  C   UNL     1      31.714 -11.376 -21.967  0.00  0.00    +0.139 C 
ATOM     29  C   UNL     1      31.601 -11.838 -20.659  0.00  0.00    +0.037 C 
BRANCH  28  30
ATOM     30  O   UNL     1      31.088 -10.226 -22.340  0.00  0.00    -0.471 OA
ATOM     31  C   UNL     1      31.875  -9.036 -22.358  0.00  0.00    +0.252 C 
ENDBRANCH  28  30
ENDBRANCH  19  20
ENDBRANCH  18  19
ENDBRANCH   3  18
TORSDOF 7
ENDMDL
MODEL 7
REMARK VINA RESULT:      -9.7      9.022     15.156
REMARK  Name = 25114442
REMARK  7 active torsions:
REMARK  status: ('A' for Active; 'I' for Inactive)
REMARK    1  A    between atoms: C_3  and  C_15
REMARK    2  A    between atoms: C_3  and  C_18
REMARK    3  A    between atoms: C_6  and  C_8
REMARK    4  A    between atoms: C_15  and  O_16
REMARK    5  A    between atoms: C_18  and  O_19
REMARK    6  A    between atoms: O_19  and  C_20
REMARK    7  A    between atoms: C_28  and  O_30
REMARK                            x       y       z     vdW  Elec       q    Type
REMARK                         _______ _______ _______ _____ _____    ______ ____
ROOT
ATOM      1  O   UNL     1      33.532  -5.861 -21.987  0.00  0.00    -0.270 OA
ATOM      2  N   UNL     1      32.248  -7.674 -22.589  0.00  0.00    -0.275 N 
ATOM      3  C   UNL     1      31.757  -9.639 -22.307  0.00  0.00    +0.166 C 
ATOM      4  C   UNL     1      31.471  -8.597 -23.395  0.00  0.00    +0.110 C 
ATOM      5  C   UNL     1      32.202  -8.493 -21.392  0.00  0.00    +0.110 C 
ATOM      6  C   UNL     1      32.920  -6.505 -22.835  0.00  0.00    +0.249 C 
ENDROOT
BRANCH   6   8
ATOM      7  F   UNL     1      32.915  -4.627 -28.115  0.00  0.00    -0.204 F 
ATOM      8  C   UNL     1      32.918  -6.012 -24.225  0.00  0.00    +0.054 C 
ATOM      9  C   UNL     1      31.789  -5.372 -24.736  0.00  0.00    +0.007 C 
ATOM     10  C   UNL     1      34.047  -6.183 -25.027  0.00  0.00    +0.007 C 
ATOM     11  C   UNL     1      31.788  -4.904 -26.050  0.00  0.00    +0.030 C 
ATOM     12  C   UNL     1      34.045  -5.715 -26.342  0.00  0.00    +0.030 C 
ATOM     13  C   UNL     1      32.916  -5.076 -26.853  0.00  0.00    +0.140 C 
ENDBRANCH   6   8
BRANCH   3  15
ATOM     14  O   UNL     1      29.361 -10.183 -21.978  0.00  0.00    -0.250 OA
ATOM     15  C   UNL     1      30.544 -10.476 -21.824  0.00  0.00    +0.320 C 
BRANCH  15  16
ATOM     16  O   UNL     1      30.925 -11.617 -21.185  0.00  0.00    -0.480 OA
ATOM     17  H   UNL     1      31.454 -11.568 -20.414  0.00  0.00    +0.295 HD
ENDBRANCH  15  16
ENDBRANCH   3  15
BRANCH   3  18
ATOM     18  C   UNL     1      32.917 -10.541 -22.681  0.00  0.00    +0.219 C 
BRANCH  18  19
ATOM     19  O   UNL     1      32.537 -11.327 -23.811  0.00  0.00    -0.475 OA
BRANCH  19  20
ATOM     20  C   UNL     1      32.934 -12.629 -23.821  0.00  0.00    +0.139 C 
ATOM     21  C   UNL     1      33.407 -13.221 -22.649  0.00  0.00    +0.037 C 
ATOM     22  C   UNL     1      32.870 -13.367 -24.999  0.00  0.00    +0.037 C 
ATOM     23  C   UNL     1      33.821 -14.564 -22.642  0.00  0.00    +0.003 C 
ATOM     24  C   UNL     1      33.755 -15.315 -23.840  0.00  0.00    +0.003 C 
ATOM     25  C   UNL     1      33.277 -14.702 -25.010  0.00  0.00    +0.003 C 
ATOM     26  C   UNL     1      34.299 -15.176 -21.472  0.00  0.00    +0.003 C 
ATOM     27  C   UNL     1      34.170 -16.657 -23.832  0.00  0.00    +0.037 C 
ATOM     28  C   UNL     1      34.641 -17.249 -22.661  0.00  0.00    +0.139 C 
ATOM     29  C   UNL     1      34.707 -16.511 -21.483  0.00  0.00    +0.037 C 
BRANCH  28  30
ATOM     30  O   UNL     1      35.041 -18.551 -22.671  0.00  0.00    -0.471 OA
ATOM     31  C   UNL     1      34.528 -19.395 -21.643  0.00  0.00    +0.252 C 
ENDBRANCH  28  30
ENDBRANCH  19  20
ENDBRANCH  18  19
ENDBRANCH   3  18
TORSDOF 7
ENDMDL
