MODEL 1
REMARK VINA RESULT:     -10.8      0.000      0.000
REMARK  Name = 86705695
REMARK  6 active torsions:
REMARK  status: ('A' for Active; 'I' for Inactive)
REMARK    1  A    between atoms: N_2  and  C_28
REMARK    2  A    between atoms: N_3  and  C_18
REMARK    3  A    between atoms: C_9  and  C_30
REMARK    4  A    between atoms: C_21  and  O_24
REMARK    5  A    between atoms: C_22  and  O_26
REMARK    6  A    between atoms: C_30  and  N_32
REMARK                            x       y       z     vdW  Elec       q    Type
REMARK                         _______ _______ _______ _____ _____    ______ ____
ROOT
ATOM      1  O   UNL     1      32.461 -11.299 -20.484  0.00  0.00    -0.252 OA
ATOM      2  N   UNL     1      33.065 -13.343 -21.384  0.00  0.00    -0.243 N 
ATOM      3  N   UNL     1      32.610 -11.454 -22.802  0.00  0.00    -0.234 N 
ATOM      4  N   UNL     1      34.886 -17.281 -23.416  0.00  0.00    -0.303 N 
ATOM      5  N   UNL     1      34.043 -15.620 -24.907  0.00  0.00    -0.229 NA
ATOM      6  C   UNL     1      33.422 -14.148 -22.511  0.00  0.00    +0.057 C 
ATOM      7  C   UNL     1      34.033 -15.432 -22.453  0.00  0.00    +0.046 C 
ATOM      8  C   UNL     1      33.151 -13.644 -23.788  0.00  0.00    +0.031 C 
ATOM      9  C   UNL     1      35.023 -17.452 -22.069  0.00  0.00    +0.005 C 
ATOM     10  C   UNL     1      32.437 -12.344 -23.947  0.00  0.00    +0.129 C 
ATOM     11  C   UNL     1      34.299 -16.071 -23.667  0.00  0.00    +0.133 C 
ATOM     12  C   UNL     1      34.512 -16.332 -21.450  0.00  0.00    +0.012 C 
ATOM     13  C   UNL     1      32.694 -11.978 -21.492  0.00  0.00    +0.315 C 
ATOM     14  C   UNL     1      33.463 -14.407 -24.913  0.00  0.00    +0.099 C 
ATOM     15  H   UNL     1      35.167 -17.930 -24.101  0.00  0.00    +0.153 HD
ENDROOT
BRANCH   3  18
ATOM     16  F   UNL     1      30.221 -10.098 -22.287  0.00  0.00    -0.200 F 
ATOM     17  F   UNL     1      34.724  -9.904 -23.778  0.00  0.00    -0.200 F 
ATOM     18  C   UNL     1      32.476 -10.033 -23.028  0.00  0.00    +0.117 C 
ATOM     19  C   UNL     1      31.263  -9.397 -22.758  0.00  0.00    +0.190 C 
ATOM     20  C   UNL     1      33.556  -9.298 -23.517  0.00  0.00    +0.190 C 
ATOM     21  C   UNL     1      33.424  -7.926 -23.736  0.00  0.00    +0.170 C 
ATOM     22  C   UNL     1      31.132  -8.025 -22.976  0.00  0.00    +0.170 C 
ATOM     23  C   UNL     1      32.213  -7.291 -23.466  0.00  0.00    +0.079 C 
BRANCH  21  24
ATOM     24  O   UNL     1      34.477  -7.208 -24.213  0.00  0.00    -0.469 OA
ATOM     25  C   UNL     1      34.179  -6.136 -25.107  0.00  0.00    +0.253 C 
ENDBRANCH  21  24
BRANCH  22  26
ATOM     26  O   UNL     1      29.951  -7.402 -22.714  0.00  0.00    -0.469 OA
ATOM     27  C   UNL     1      29.973  -5.978 -22.622  0.00  0.00    +0.253 C 
ENDBRANCH  22  26
ENDBRANCH   3  18
BRANCH   2  28
ATOM     28  C   UNL     1      33.141 -13.920 -20.047  0.00  0.00    +0.100 C 
ATOM     29  C   UNL     1      31.787 -14.412 -19.577  0.00  0.00    +0.024 C 
ENDBRANCH   2  28
BRANCH   9  30
ATOM     30  C   UNL     1      35.627 -18.673 -21.505  0.00  0.00    -0.035 C 
BRANCH  30  32
ATOM     31  O   UNL     1      33.260 -21.487 -19.481  0.00  0.00    -0.358 OA
ATOM     32  N   UNL     1      34.789 -19.308 -20.490  0.00  0.00    +0.394 N 
ATOM     33  C   UNL     1      33.466 -19.638 -21.038  0.00  0.00    -0.044 C 
ATOM     34  C   UNL     1      35.432 -20.520 -19.965  0.00  0.00    -0.044 C 
ATOM     35  C   UNL     1      32.614 -20.309 -19.965  0.00  0.00    +0.119 C 
ATOM     36  C   UNL     1      34.534 -21.172 -18.918  0.00  0.00    +0.119 C 
ATOM     37  H   UNL     1      34.669 -18.644 -19.725  0.00  0.00    -0.079 HD
ENDBRANCH  30  32
ENDBRANCH   9  30
TORSDOF 6
ENDMDL
MODEL 2
REMARK VINA RESULT:     -10.8      0.022      2.150
REMARK  Name = 86705695
REMARK  6 active torsions:
REMARK  status: ('A' for Active; 'I' for Inactive)
REMARK    1  A    between atoms: N_2  and  C_28
REMARK    2  A    between atoms: N_3  and  C_18
REMARK    3  A    between atoms: C_9  and  C_30
REMARK    4  A    between atoms: C_21  and  O_24
REMARK    5  A    between atoms: C_22  and  O_26
REMARK    6  A    between atoms: C_30  and  N_32
REMARK                            x       y       z     vdW  Elec       q    Type
REMARK                         _______ _______ _______ _____ _____    ______ ____
ROOT
ATOM      1  O   UNL     1      32.449 -11.295 -20.492  0.00  0.00    -0.252 OA
ATOM      2  N   UNL     1      33.049 -13.339 -21.394  0.00  0.00    -0.243 N 
ATOM      3  N   UNL     1      32.589 -11.451 -22.810  0.00  0.00    -0.234 N 
ATOM      4  N   UNL     1      34.861 -17.277 -23.434  0.00  0.00    -0.303 N 
ATOM      5  N   UNL     1      34.013 -15.616 -24.922  0.00  0.00    -0.229 NA
ATOM      6  C   UNL     1      33.402 -14.144 -22.523  0.00  0.00    +0.057 C 
ATOM      7  C   UNL     1      34.013 -15.428 -22.468  0.00  0.00    +0.046 C 
ATOM      8  C   UNL     1      33.126 -13.640 -23.799  0.00  0.00    +0.031 C 
ATOM      9  C   UNL     1      35.004 -17.448 -22.087  0.00  0.00    +0.005 C 
ATOM     10  C   UNL     1      32.411 -12.340 -23.955  0.00  0.00    +0.129 C 
ATOM     11  C   UNL     1      34.274 -16.067 -23.683  0.00  0.00    +0.133 C 
ATOM     12  C   UNL     1      34.495 -16.328 -21.467  0.00  0.00    +0.012 C 
ATOM     13  C   UNL     1      32.678 -11.975 -21.500  0.00  0.00    +0.315 C 
ATOM     14  C   UNL     1      33.433 -14.403 -24.925  0.00  0.00    +0.099 C 
ATOM     15  H   UNL     1      35.140 -17.926 -24.120  0.00  0.00    +0.153 HD
ENDROOT
BRANCH   3  18
ATOM     16  F   UNL     1      34.703  -9.902 -23.784  0.00  0.00    -0.200 F 
ATOM     17  F   UNL     1      30.199 -10.092 -22.296  0.00  0.00    -0.200 F 
ATOM     18  C   UNL     1      32.454 -10.029 -23.035  0.00  0.00    +0.117 C 
ATOM     19  C   UNL     1      33.536  -9.295 -23.522  0.00  0.00    +0.190 C 
ATOM     20  C   UNL     1      31.243  -9.391 -22.764  0.00  0.00    +0.190 C 
ATOM     21  C   UNL     1      31.114  -8.019 -22.981  0.00  0.00    +0.170 C 
ATOM     22  C   UNL     1      33.406  -7.923 -23.739  0.00  0.00    +0.170 C 
ATOM     23  C   UNL     1      32.195  -7.285 -23.467  0.00  0.00    +0.079 C 
BRANCH  21  24
ATOM     24  O   UNL     1      29.933  -7.396 -22.717  0.00  0.00    -0.469 OA
ATOM     25  C   UNL     1      29.957  -5.971 -22.634  0.00  0.00    +0.253 C 
ENDBRANCH  21  24
BRANCH  22  26
ATOM     26  O   UNL     1      34.461  -7.204 -24.213  0.00  0.00    -0.469 OA
ATOM     27  C   UNL     1      34.167  -6.138 -25.115  0.00  0.00    +0.253 C 
ENDBRANCH  22  26
ENDBRANCH   3  18
BRANCH   2  28
ATOM     28  C   UNL     1      33.131 -13.917 -20.057  0.00  0.00    +0.100 C 
ATOM     29  C   UNL     1      31.777 -14.400 -19.579  0.00  0.00    +0.024 C 
ENDBRANCH   2  28
BRANCH   9  30
ATOM     30  C   UNL     1      35.610 -18.669 -21.527  0.00  0.00    -0.035 C 
BRANCH  30  32
ATOM     31  O   UNL     1      33.253 -21.478 -19.484  0.00  0.00    -0.358 OA
ATOM     32  N   UNL     1      34.777 -19.302 -20.505  0.00  0.00    +0.394 N 
ATOM     33  C   UNL     1      33.451 -19.632 -21.044  0.00  0.00    -0.044 C 
ATOM     34  C   UNL     1      35.423 -20.514 -19.983  0.00  0.00    -0.044 C 
ATOM     35  C   UNL     1      32.605 -20.300 -19.964  0.00  0.00    +0.119 C 
ATOM     36  C   UNL     1      34.531 -21.164 -18.929  0.00  0.00    +0.119 C 
ATOM     37  H   UNL     1      34.663 -18.637 -19.740  0.00  0.00    -0.079 HD
ENDBRANCH  30  32
ENDBRANCH   9  30
TORSDOF 6
ENDMDL
MODEL 3
REMARK VINA RESULT:      -9.9      6.643     13.842
REMARK  Name = 86705695
REMARK  6 active torsions:
REMARK  status: ('A' for Active; 'I' for Inactive)
REMARK    1  A    between atoms: N_2  and  C_28
REMARK    2  A    between atoms: N_3  and  C_18
REMARK    3  A    between atoms: C_9  and  C_30
REMARK    4  A    between atoms: C_21  and  O_24
REMARK    5  A    between atoms: C_22  and  O_26
REMARK    6  A    between atoms: C_30  and  N_32
REMARK                            x       y       z     vdW  Elec       q    Type
REMARK                         _______ _______ _______ _____ _____    ______ ____
ROOT
ATOM      1  O   UNL     1      33.880 -24.207 -15.576  0.00  0.00    -0.252 OA
ATOM      2  N   UNL     1      34.391 -22.483 -17.031  0.00  0.00    -0.243 N 
ATOM      3  N   UNL     1      35.796 -22.960 -15.139  0.00  0.00    -0.234 N 
ATOM      4  N   UNL     1      35.960 -19.288 -20.238  0.00  0.00    -0.303 N 
ATOM      5  N   UNL     1      37.163 -19.393 -18.179  0.00  0.00    -0.229 NA
ATOM      6  C   UNL     1      35.281 -21.457 -17.478  0.00  0.00    +0.057 C 
ATOM      7  C   UNL     1      35.218 -20.793 -18.736  0.00  0.00    +0.046 C 
ATOM      8  C   UNL     1      36.306 -21.056 -16.614  0.00  0.00    +0.031 C 
ATOM      9  C   UNL     1      34.895 -19.915 -20.818  0.00  0.00    +0.005 C 
ATOM     10  C   UNL     1      36.401 -21.635 -15.242  0.00  0.00    +0.129 C 
ATOM     11  C   UNL     1      36.174 -19.806 -18.989  0.00  0.00    +0.133 C 
ATOM     12  C   UNL     1      34.420 -20.847 -19.922  0.00  0.00    +0.012 C 
ATOM     13  C   UNL     1      34.641 -23.282 -15.887  0.00  0.00    +0.315 C 
ATOM     14  C   UNL     1      37.181 -20.043 -17.002  0.00  0.00    +0.099 C 
ATOM     15  H   UNL     1      36.493 -18.573 -20.655  0.00  0.00    +0.153 HD
ENDROOT
BRANCH   3  18
ATOM     16  F   UNL     1      38.107 -24.498 -15.469  0.00  0.00    -0.200 F 
ATOM     17  F   UNL     1      34.477 -23.225 -12.688  0.00  0.00    -0.200 F 
ATOM     18  C   UNL     1      36.281 -23.841 -14.102  0.00  0.00    +0.117 C 
ATOM     19  C   UNL     1      37.439 -24.592 -14.309  0.00  0.00    +0.190 C 
ATOM     20  C   UNL     1      35.591 -23.944 -12.893  0.00  0.00    +0.190 C 
ATOM     21  C   UNL     1      36.059 -24.796 -11.893  0.00  0.00    +0.170 C 
ATOM     22  C   UNL     1      37.907 -25.443 -13.308  0.00  0.00    +0.170 C 
ATOM     23  C   UNL     1      37.216 -25.546 -12.100  0.00  0.00    +0.079 C 
BRANCH  21  24
ATOM     24  O   UNL     1      35.386 -24.896 -10.714  0.00  0.00    -0.469 OA
ATOM     25  C   UNL     1      35.568 -23.839  -9.772  0.00  0.00    +0.253 C 
ENDBRANCH  21  24
BRANCH  22  26
ATOM     26  O   UNL     1      39.036 -26.176 -13.509  0.00  0.00    -0.469 OA
ATOM     27  C   UNL     1      40.196 -25.474 -13.954  0.00  0.00    +0.253 C 
ENDBRANCH  22  26
ENDBRANCH   3  18
BRANCH   2  28
ATOM     28  C   UNL     1      33.195 -22.776 -17.814  0.00  0.00    +0.100 C 
ATOM     29  C   UNL     1      31.975 -22.081 -17.245  0.00  0.00    +0.024 C 
ENDBRANCH   2  28
BRANCH   9  30
ATOM     30  C   UNL     1      34.435 -19.556 -22.171  0.00  0.00    -0.035 C 
BRANCH  30  32
ATOM     31  O   UNL     1      33.845 -15.469 -22.922  0.00  0.00    -0.358 OA
ATOM     32  N   UNL     1      34.687 -18.156 -22.508  0.00  0.00    +0.394 N 
ATOM     33  C   UNL     1      33.930 -17.764 -23.705  0.00  0.00    -0.044 C 
ATOM     34  C   UNL     1      34.339 -17.278 -21.383  0.00  0.00    -0.044 C 
ATOM     35  C   UNL     1      34.200 -16.298 -24.030  0.00  0.00    +0.119 C 
ATOM     36  C   UNL     1      34.598 -15.823 -21.762  0.00  0.00    +0.119 C 
ATOM     37  H   UNL     1      35.683 -18.057 -22.704  0.00  0.00    -0.079 HD
ENDBRANCH  30  32
ENDBRANCH   9  30
TORSDOF 6
ENDMDL
MODEL 4
REMARK VINA RESULT:      -9.9      6.635     13.665
REMARK  Name = 86705695
REMARK  6 active torsions:
REMARK  status: ('A' for Active; 'I' for Inactive)
REMARK    1  A    between atoms: N_2  and  C_28
REMARK    2  A    between atoms: N_3  and  C_18
REMARK    3  A    between atoms: C_9  and  C_30
REMARK    4  A    between atoms: C_21  and  O_24
REMARK    5  A    between atoms: C_22  and  O_26
REMARK    6  A    between atoms: C_30  and  N_32
REMARK                            x       y       z     vdW  Elec       q    Type
REMARK                         _______ _______ _______ _____ _____    ______ ____
ROOT
ATOM      1  O   UNL     1      33.873 -24.201 -15.591  0.00  0.00    -0.252 OA
ATOM      2  N   UNL     1      34.386 -22.477 -17.045  0.00  0.00    -0.243 N 
ATOM      3  N   UNL     1      35.787 -22.954 -15.151  0.00  0.00    -0.234 N 
ATOM      4  N   UNL     1      35.961 -19.281 -20.248  0.00  0.00    -0.303 N 
ATOM      5  N   UNL     1      37.159 -19.385 -18.187  0.00  0.00    -0.229 NA
ATOM      6  C   UNL     1      35.277 -21.450 -17.491  0.00  0.00    +0.057 C 
ATOM      7  C   UNL     1      35.216 -20.786 -18.749  0.00  0.00    +0.046 C 
ATOM      8  C   UNL     1      36.299 -21.049 -16.624  0.00  0.00    +0.031 C 
ATOM      9  C   UNL     1      34.898 -19.908 -20.830  0.00  0.00    +0.005 C 
ATOM     10  C   UNL     1      36.392 -21.628 -15.252  0.00  0.00    +0.129 C 
ATOM     11  C   UNL     1      36.172 -19.799 -19.000  0.00  0.00    +0.133 C 
ATOM     12  C   UNL     1      34.420 -20.840 -19.936  0.00  0.00    +0.012 C 
ATOM     13  C   UNL     1      34.634 -23.276 -15.901  0.00  0.00    +0.315 C 
ATOM     14  C   UNL     1      37.175 -20.035 -17.010  0.00  0.00    +0.099 C 
ATOM     15  H   UNL     1      36.495 -18.565 -20.664  0.00  0.00    +0.153 HD
ENDROOT
BRANCH   3  18
ATOM     16  F   UNL     1      34.461 -23.216 -12.704  0.00  0.00    -0.200 F 
ATOM     17  F   UNL     1      38.100 -24.493 -15.473  0.00  0.00    -0.200 F 
ATOM     18  C   UNL     1      36.270 -23.835 -14.112  0.00  0.00    +0.117 C 
ATOM     19  C   UNL     1      35.577 -23.935 -12.905  0.00  0.00    +0.190 C 
ATOM     20  C   UNL     1      37.429 -24.585 -14.314  0.00  0.00    +0.190 C 
ATOM     21  C   UNL     1      37.894 -25.434 -13.310  0.00  0.00    +0.170 C 
ATOM     22  C   UNL     1      36.042 -24.784 -11.902  0.00  0.00    +0.170 C 
ATOM     23  C   UNL     1      37.202 -25.534 -12.104  0.00  0.00    +0.079 C 
BRANCH  21  24
ATOM     24  O   UNL     1      39.025 -26.166 -13.507  0.00  0.00    -0.469 OA
ATOM     25  C   UNL     1      40.189 -25.458 -13.933  0.00  0.00    +0.253 C 
ENDBRANCH  21  24
BRANCH  22  26
ATOM     26  O   UNL     1      35.368 -24.883 -10.723  0.00  0.00    -0.469 OA
ATOM     27  C   UNL     1      35.585 -23.852  -9.762  0.00  0.00    +0.253 C 
ENDBRANCH  22  26
ENDBRANCH   3  18
BRANCH   2  28
ATOM     28  C   UNL     1      33.192 -22.770 -17.831  0.00  0.00    +0.100 C 
ATOM     29  C   UNL     1      31.964 -22.106 -17.243  0.00  0.00    +0.024 C 
ENDBRANCH   2  28
BRANCH   9  30
ATOM     30  C   UNL     1      34.440 -19.549 -22.185  0.00  0.00    -0.035 C 
BRANCH  30  32
ATOM     31  O   UNL     1      33.835 -15.464 -22.933  0.00  0.00    -0.358 OA
ATOM     32  N   UNL     1      34.687 -18.148 -22.519  0.00  0.00    +0.394 N 
ATOM     33  C   UNL     1      33.933 -17.757 -23.718  0.00  0.00    -0.044 C 
ATOM     34  C   UNL     1      34.332 -17.273 -21.394  0.00  0.00    -0.044 C 
ATOM     35  C   UNL     1      34.199 -16.289 -24.040  0.00  0.00    +0.119 C 
ATOM     36  C   UNL     1      34.586 -15.816 -21.770  0.00  0.00    +0.119 C 
ATOM     37  H   UNL     1      35.684 -18.044 -22.711  0.00  0.00    -0.079 HD
ENDBRANCH  30  32
ENDBRANCH   9  30
TORSDOF 6
ENDMDL
MODEL 5
REMARK VINA RESULT:      -9.8      1.123      2.576
REMARK  Name = 86705695
REMARK  6 active torsions:
REMARK  status: ('A' for Active; 'I' for Inactive)
REMARK    1  A    between atoms: N_2  and  C_28
REMARK    2  A    between atoms: N_3  and  C_18
REMARK    3  A    between atoms: C_9  and  C_30
REMARK    4  A    between atoms: C_21  and  O_24
REMARK    5  A    between atoms: C_22  and  O_26
REMARK    6  A    between atoms: C_30  and  N_32
REMARK                            x       y       z     vdW  Elec       q    Type
REMARK                         _______ _______ _______ _____ _____    ______ ____
ROOT
ATOM      1  O   UNL     1      32.525 -10.811 -20.659  0.00  0.00    -0.252 OA
ATOM      2  N   UNL     1      32.852 -12.705 -21.945  0.00  0.00    -0.243 N 
ATOM      3  N   UNL     1      32.342 -10.590 -22.968  0.00  0.00    -0.234 N 
ATOM      4  N   UNL     1      34.092 -16.337 -24.813  0.00  0.00    -0.303 N 
ATOM      5  N   UNL     1      33.172 -14.415 -25.886  0.00  0.00    -0.229 NA
ATOM      6  C   UNL     1      32.993 -13.330 -23.225  0.00  0.00    +0.057 C 
ATOM      7  C   UNL     1      33.513 -14.634 -23.459  0.00  0.00    +0.046 C 
ATOM      8  C   UNL     1      32.585 -12.611 -24.353  0.00  0.00    +0.031 C 
ATOM      9  C   UNL     1      34.401 -16.734 -23.544  0.00  0.00    +0.005 C 
ATOM     10  C   UNL     1      31.950 -11.269 -24.200  0.00  0.00    +0.129 C 
ATOM     11  C   UNL     1      33.563 -15.076 -24.783  0.00  0.00    +0.133 C 
ATOM     12  C   UNL     1      34.060 -15.709 -22.690  0.00  0.00    +0.012 C 
ATOM     13  C   UNL     1      32.568 -11.326 -21.783  0.00  0.00    +0.315 C 
ATOM     14  C   UNL     1      32.684 -13.192 -25.617  0.00  0.00    +0.099 C 
ATOM     15  H   UNL     1      34.229 -16.877 -25.625  0.00  0.00    +0.153 HD
ENDROOT
BRANCH   3  18
ATOM     16  F   UNL     1      34.562  -9.006 -23.580  0.00  0.00    -0.200 F 
ATOM     17  F   UNL     1      29.993  -9.221 -22.313  0.00  0.00    -0.200 F 
ATOM     18  C   UNL     1      32.279  -9.146 -22.947  0.00  0.00    +0.117 C 
ATOM     19  C   UNL     1      33.412  -8.394 -23.259  0.00  0.00    +0.190 C 
ATOM     20  C   UNL     1      31.086  -8.503 -22.613  0.00  0.00    +0.190 C 
ATOM     21  C   UNL     1      31.027  -7.110 -22.592  0.00  0.00    +0.170 C 
ATOM     22  C   UNL     1      33.352  -7.001 -23.237  0.00  0.00    +0.170 C 
ATOM     23  C   UNL     1      32.159  -6.359 -22.904  0.00  0.00    +0.079 C 
BRANCH  21  24
ATOM     24  O   UNL     1      29.863  -6.483 -22.267  0.00  0.00    -0.469 OA
ATOM     25  C   UNL     1      29.900  -5.059 -22.167  0.00  0.00    +0.253 C 
ENDBRANCH  21  24
BRANCH  22  26
ATOM     26  O   UNL     1      34.457  -6.265 -23.541  0.00  0.00    -0.469 OA
ATOM     27  C   UNL     1      34.258  -5.084 -24.317  0.00  0.00    +0.253 C 
ENDBRANCH  22  26
ENDBRANCH   3  18
BRANCH   2  28
ATOM     28  C   UNL     1      33.071 -13.498 -20.741  0.00  0.00    +0.100 C 
ATOM     29  C   UNL     1      31.765 -13.820 -20.044  0.00  0.00    +0.024 C 
ENDBRANCH   2  28
BRANCH   9  30
ATOM     30  C   UNL     1      34.989 -18.059 -23.274  0.00  0.00    -0.035 C 
BRANCH  30  32
ATOM     31  O   UNL     1      35.451 -20.200 -19.693  0.00  0.00    -0.358 OA
ATOM     32  N   UNL     1      34.972 -18.411 -21.855  0.00  0.00    +0.394 N 
ATOM     33  C   UNL     1      34.112 -19.579 -21.618  0.00  0.00    -0.044 C 
ATOM     34  C   UNL     1      36.332 -18.682 -21.369  0.00  0.00    -0.044 C 
ATOM     35  C   UNL     1      34.120 -19.934 -20.134  0.00  0.00    +0.119 C 
ATOM     36  C   UNL     1      36.288 -19.060 -19.891  0.00  0.00    +0.119 C 
ATOM     37  H   UNL     1      34.594 -17.616 -21.341  0.00  0.00    -0.079 HD
ENDBRANCH  30  32
ENDBRANCH   9  30
TORSDOF 6
ENDMDL
MODEL 6
REMARK VINA RESULT:      -8.5      5.595     12.638
REMARK  Name = 86705695
REMARK  6 active torsions:
REMARK  status: ('A' for Active; 'I' for Inactive)
REMARK    1  A    between atoms: N_2  and  C_28
REMARK    2  A    between atoms: N_3  and  C_18
REMARK    3  A    between atoms: C_9  and  C_30
REMARK    4  A    between atoms: C_21  and  O_24
REMARK    5  A    between atoms: C_22  and  O_26
REMARK    6  A    between atoms: C_30  and  N_32
REMARK                            x       y       z     vdW  Elec       q    Type
REMARK                         _______ _______ _______ _____ _____    ______ ____
ROOT
ATOM      1  O   UNL     1      36.292 -22.211 -15.859  0.00  0.00    -0.252 OA
ATOM      2  N   UNL     1      35.439 -21.403 -17.851  0.00  0.00    -0.243 N 
ATOM      3  N   UNL     1      34.036 -22.582 -16.295  0.00  0.00    -0.234 N 
ATOM      4  N   UNL     1      33.338 -19.295 -21.606  0.00  0.00    -0.303 N 
ATOM      5  N   UNL     1      31.984 -20.810 -20.354  0.00  0.00    -0.229 NA
ATOM      6  C   UNL     1      34.328 -21.154 -18.718  0.00  0.00    +0.057 C 
ATOM      7  C   UNL     1      34.332 -20.281 -19.842  0.00  0.00    +0.046 C 
ATOM      8  C   UNL     1      33.128 -21.823 -18.453  0.00  0.00    +0.031 C 
ATOM      9  C   UNL     1      34.613 -18.809 -21.564  0.00  0.00    +0.005 C 
ATOM     10  C   UNL     1      33.053 -22.822 -17.347  0.00  0.00    +0.129 C 
ATOM     11  C   UNL     1      33.148 -20.176 -20.576  0.00  0.00    +0.133 C 
ATOM     12  C   UNL     1      35.247 -19.393 -20.489  0.00  0.00    +0.012 C 
ATOM     13  C   UNL     1      35.318 -22.079 -16.611  0.00  0.00    +0.315 C 
ATOM     14  C   UNL     1      32.028 -21.626 -19.287  0.00  0.00    +0.099 C 
ATOM     15  H   UNL     1      32.659 -19.048 -22.275  0.00  0.00    +0.153 HD
ENDROOT
BRANCH   3  18
ATOM     16  F   UNL     1      31.551 -22.155 -15.089  0.00  0.00    -0.200 F 
ATOM     17  F   UNL     1      35.908 -24.017 -14.790  0.00  0.00    -0.200 F 
ATOM     18  C   UNL     1      33.736 -23.075 -14.969  0.00  0.00    +0.117 C 
ATOM     19  C   UNL     1      32.482 -22.838 -14.405  0.00  0.00    +0.190 C 
ATOM     20  C   UNL     1      34.700 -23.786 -14.253  0.00  0.00    +0.190 C 
ATOM     21  C   UNL     1      34.409 -24.259 -12.974  0.00  0.00    +0.170 C 
ATOM     22  C   UNL     1      32.192 -23.312 -13.126  0.00  0.00    +0.170 C 
ATOM     23  C   UNL     1      33.156 -24.023 -12.410  0.00  0.00    +0.079 C 
BRANCH  21  24
ATOM     24  O   UNL     1      35.349 -24.953 -12.275  0.00  0.00    -0.469 OA
ATOM     25  C   UNL     1      35.999 -24.266 -11.205  0.00  0.00    +0.253 C 
ENDBRANCH  21  24
BRANCH  22  26
ATOM     26  O   UNL     1      30.969 -23.082 -12.574  0.00  0.00    -0.469 OA
ATOM     27  C   UNL     1      29.966 -24.077 -12.778  0.00  0.00    +0.253 C 
ENDBRANCH  22  26
ENDBRANCH   3  18
BRANCH   2  28
ATOM     28  C   UNL     1      36.754 -20.888 -18.217  0.00  0.00    +0.100 C 
ATOM     29  C   UNL     1      37.217 -19.815 -17.254  0.00  0.00    +0.024 C 
ENDBRANCH   2  28
BRANCH   9  30
ATOM     30  C   UNL     1      35.099 -17.837 -22.558  0.00  0.00    -0.035 C 
BRANCH  30  32
ATOM     31  O   UNL     1      33.719 -13.930 -23.230  0.00  0.00    -0.358 OA
ATOM     32  N   UNL     1      34.212 -16.686 -22.713  0.00  0.00    +0.394 N 
ATOM     33  C   UNL     1      34.525 -15.649 -21.719  0.00  0.00    -0.044 C 
ATOM     34  C   UNL     1      34.311 -16.129 -24.069  0.00  0.00    -0.044 C 
ATOM     35  C   UNL     1      33.595 -14.454 -21.907  0.00  0.00    +0.119 C 
ATOM     36  C   UNL     1      33.386 -14.922 -24.202  0.00  0.00    +0.119 C 
ATOM     37  H   UNL     1      33.256 -17.006 -22.560  0.00  0.00    -0.079 HD
ENDBRANCH  30  32
ENDBRANCH   9  30
TORSDOF 6
ENDMDL
MODEL 7
REMARK VINA RESULT:      -8.5      5.593     12.791
REMARK  Name = 86705695
REMARK  6 active torsions:
REMARK  status: ('A' for Active; 'I' for Inactive)
REMARK    1  A    between atoms: N_2  and  C_28
REMARK    2  A    between atoms: N_3  and  C_18
REMARK    3  A    between atoms: C_9  and  C_30
REMARK    4  A    between atoms: C_21  and  O_24
REMARK    5  A    between atoms: C_22  and  O_26
REMARK    6  A    between atoms: C_30  and  N_32
REMARK                            x       y       z     vdW  Elec       q    Type
REMARK                         _______ _______ _______ _____ _____    ______ ____
ROOT
ATOM      1  O   UNL     1      36.291 -22.199 -15.858  0.00  0.00    -0.252 OA
ATOM      2  N   UNL     1      35.437 -21.397 -17.852  0.00  0.00    -0.243 N 
ATOM      3  N   UNL     1      34.037 -22.577 -16.294  0.00  0.00    -0.234 N 
ATOM      4  N   UNL     1      33.331 -19.300 -21.610  0.00  0.00    -0.303 N 
ATOM      5  N   UNL     1      31.981 -20.816 -20.356  0.00  0.00    -0.229 NA
ATOM      6  C   UNL     1      34.326 -21.152 -18.719  0.00  0.00    +0.057 C 
ATOM      7  C   UNL     1      34.327 -20.280 -19.845  0.00  0.00    +0.046 C 
ATOM      8  C   UNL     1      33.127 -21.824 -18.454  0.00  0.00    +0.031 C 
ATOM      9  C   UNL     1      34.605 -18.811 -21.569  0.00  0.00    +0.005 C 
ATOM     10  C   UNL     1      33.054 -22.820 -17.346  0.00  0.00    +0.129 C 
ATOM     11  C   UNL     1      33.143 -20.179 -20.579  0.00  0.00    +0.133 C 
ATOM     12  C   UNL     1      35.241 -19.392 -20.494  0.00  0.00    +0.012 C 
ATOM     13  C   UNL     1      35.318 -22.071 -16.611  0.00  0.00    +0.315 C 
ATOM     14  C   UNL     1      32.027 -21.631 -19.288  0.00  0.00    +0.099 C 
ATOM     15  H   UNL     1      32.652 -19.056 -22.281  0.00  0.00    +0.153 HD
ENDROOT
BRANCH   3  18
ATOM     16  F   UNL     1      35.907 -24.016 -14.796  0.00  0.00    -0.200 F 
ATOM     17  F   UNL     1      31.555 -22.143 -15.080  0.00  0.00    -0.200 F 
ATOM     18  C   UNL     1      33.738 -23.068 -14.968  0.00  0.00    +0.117 C 
ATOM     19  C   UNL     1      34.702 -23.783 -14.256  0.00  0.00    +0.190 C 
ATOM     20  C   UNL     1      32.486 -22.830 -14.400  0.00  0.00    +0.190 C 
ATOM     21  C   UNL     1      32.198 -23.306 -13.121  0.00  0.00    +0.170 C 
ATOM     22  C   UNL     1      34.413 -24.258 -12.976  0.00  0.00    +0.170 C 
ATOM     23  C   UNL     1      33.161 -24.020 -12.409  0.00  0.00    +0.079 C 
BRANCH  21  24
ATOM     24  O   UNL     1      30.977 -23.073 -12.566  0.00  0.00    -0.469 OA
ATOM     25  C   UNL     1      29.970 -24.063 -12.777  0.00  0.00    +0.253 C 
ENDBRANCH  21  24
BRANCH  22  26
ATOM     26  O   UNL     1      35.352 -24.956 -12.280  0.00  0.00    -0.469 OA
ATOM     27  C   UNL     1      36.021 -24.269 -11.223  0.00  0.00    +0.253 C 
ENDBRANCH  22  26
ENDBRANCH   3  18
BRANCH   2  28
ATOM     28  C   UNL     1      36.751 -20.880 -18.219  0.00  0.00    +0.100 C 
ATOM     29  C   UNL     1      37.217 -19.814 -17.249  0.00  0.00    +0.024 C 
ENDBRANCH   2  28
BRANCH   9  30
ATOM     30  C   UNL     1      35.090 -17.839 -22.565  0.00  0.00    -0.035 C 
BRANCH  30  32
ATOM     31  O   UNL     1      33.728 -13.924 -23.222  0.00  0.00    -0.358 OA
ATOM     32  N   UNL     1      34.209 -16.682 -22.709  0.00  0.00    +0.394 N 
ATOM     33  C   UNL     1      34.542 -15.647 -21.721  0.00  0.00    -0.044 C 
ATOM     34  C   UNL     1      34.293 -16.127 -24.067  0.00  0.00    -0.044 C 
ATOM     35  C   UNL     1      33.618 -14.446 -21.898  0.00  0.00    +0.119 C 
ATOM     36  C   UNL     1      33.376 -14.913 -24.188  0.00  0.00    +0.119 C 
ATOM     37  H   UNL     1      33.252 -16.995 -22.543  0.00  0.00    -0.079 HD
ENDBRANCH  30  32
ENDBRANCH   9  30
TORSDOF 6
ENDMDL
MODEL 8
REMARK VINA RESULT:      -8.5      3.165     10.323
REMARK  Name = 86705695
REMARK  6 active torsions:
REMARK  status: ('A' for Active; 'I' for Inactive)
REMARK    1  A    between atoms: N_2  and  C_28
REMARK    2  A    between atoms: N_3  and  C_18
REMARK    3  A    between atoms: C_9  and  C_30
REMARK    4  A    between atoms: C_21  and  O_24
REMARK    5  A    between atoms: C_22  and  O_26
REMARK    6  A    between atoms: C_30  and  N_32
REMARK                            x       y       z     vdW  Elec       q    Type
REMARK                         _______ _______ _______ _____ _____    ______ ____
ROOT
ATOM      1  O   UNL     1      31.573 -13.372 -20.729  0.00  0.00    -0.252 OA
ATOM      2  N   UNL     1      31.766 -11.199 -21.496  0.00  0.00    -0.243 N 
ATOM      3  N   UNL     1      33.251 -12.921 -22.276  0.00  0.00    -0.234 N 
ATOM      4  N   UNL     1      31.949  -6.931 -23.666  0.00  0.00    -0.303 N 
ATOM      5  N   UNL     1      33.726  -8.444 -24.165  0.00  0.00    -0.229 NA
ATOM      6  C   UNL     1      32.360 -10.239 -22.375  0.00  0.00    +0.057 C 
ATOM      7  C   UNL     1      31.855  -8.936 -22.644  0.00  0.00    +0.046 C 
ATOM      8  C   UNL     1      33.544 -10.595 -23.030  0.00  0.00    +0.031 C 
ATOM      9  C   UNL     1      30.816  -6.921 -22.906  0.00  0.00    +0.005 C 
ATOM     10  C   UNL     1      34.193 -11.909 -22.747  0.00  0.00    +0.129 C 
ATOM     11  C   UNL     1      32.584  -8.135 -23.527  0.00  0.00    +0.133 C 
ATOM     12  C   UNL     1      30.729  -8.139 -22.268  0.00  0.00    +0.012 C 
ATOM     13  C   UNL     1      32.161 -12.560 -21.453  0.00  0.00    +0.315 C 
ATOM     14  C   UNL     1      34.167  -9.681 -23.877  0.00  0.00    +0.099 C 
ATOM     15  H   UNL     1      32.261  -6.186 -24.229  0.00  0.00    +0.153 HD
ENDROOT
BRANCH   3  18
ATOM     16  F   UNL     1      34.482 -14.470 -20.302  0.00  0.00    -0.200 F 
ATOM     17  F   UNL     1      32.715 -14.210 -24.700  0.00  0.00    -0.200 F 
ATOM     18  C   UNL     1      33.590 -14.309 -22.496  0.00  0.00    +0.117 C 
ATOM     19  C   UNL     1      34.205 -15.044 -21.482  0.00  0.00    +0.190 C 
ATOM     20  C   UNL     1      33.306 -14.913 -23.721  0.00  0.00    +0.190 C 
ATOM     21  C   UNL     1      33.635 -16.252 -23.932  0.00  0.00    +0.170 C 
ATOM     22  C   UNL     1      34.533 -16.384 -21.694  0.00  0.00    +0.170 C 
ATOM     23  C   UNL     1      34.249 -16.987 -22.919  0.00  0.00    +0.079 C 
BRANCH  21  24
ATOM     24  O   UNL     1      33.357 -16.841 -25.127  0.00  0.00    -0.469 OA
ATOM     25  C   UNL     1      32.480 -17.968 -25.105  0.00  0.00    +0.253 C 
ENDBRANCH  21  24
BRANCH  22  26
ATOM     26  O   UNL     1      35.133 -17.103 -20.706  0.00  0.00    -0.469 OA
ATOM     27  C   UNL     1      35.940 -18.210 -21.106  0.00  0.00    +0.253 C 
ENDBRANCH  22  26
ENDBRANCH   3  18
BRANCH   2  28
ATOM     28  C   UNL     1      30.656 -10.788 -20.643  0.00  0.00    +0.100 C 
ATOM     29  C   UNL     1      31.145 -10.053 -19.412  0.00  0.00    +0.024 C 
ENDBRANCH   2  28
BRANCH   9  30
ATOM     30  C   UNL     1      29.930  -5.744 -22.861  0.00  0.00    -0.035 C 
BRANCH  30  32
ATOM     31  O   UNL     1      30.667  -1.786 -24.046  0.00  0.00    -0.358 OA
ATOM     32  N   UNL     1      30.622  -4.496 -23.179  0.00  0.00    +0.394 N 
ATOM     33  C   UNL     1      30.427  -4.137 -24.591  0.00  0.00    -0.044 C 
ATOM     34  C   UNL     1      30.154  -3.405 -22.313  0.00  0.00    -0.044 C 
ATOM     35  C   UNL     1      31.148  -2.827 -24.896  0.00  0.00    +0.119 C 
ATOM     36  C   UNL     1      30.880  -2.112 -22.673  0.00  0.00    +0.119 C 
ATOM     37  H   UNL     1      31.617  -4.641 -23.013  0.00  0.00    -0.079 HD
ENDBRANCH  30  32
ENDBRANCH   9  30
TORSDOF 6
ENDMDL
MODEL 9
REMARK VINA RESULT:      -8.4      3.166     10.320
REMARK  Name = 86705695
REMARK  6 active torsions:
REMARK  status: ('A' for Active; 'I' for Inactive)
REMARK    1  A    between atoms: N_2  and  C_28
REMARK    2  A    between atoms: N_3  and  C_18
REMARK    3  A    between atoms: C_9  and  C_30
REMARK    4  A    between atoms: C_21  and  O_24
REMARK    5  A    between atoms: C_22  and  O_26
REMARK    6  A    between atoms: C_30  and  N_32
REMARK                            x       y       z     vdW  Elec       q    Type
REMARK                         _______ _______ _______ _____ _____    ______ ____
ROOT
ATOM      1  O   UNL     1      31.539 -13.349 -20.725  0.00  0.00    -0.252 OA
ATOM      2  N   UNL     1      31.744 -11.179 -21.499  0.00  0.00    -0.243 N 
ATOM      3  N   UNL     1      33.246 -12.903 -22.242  0.00  0.00    -0.234 N 
ATOM      4  N   UNL     1      31.965  -6.922 -23.687  0.00  0.00    -0.303 N 
ATOM      5  N   UNL     1      33.752  -8.436 -24.144  0.00  0.00    -0.229 NA
ATOM      6  C   UNL     1      32.354 -10.223 -22.371  0.00  0.00    +0.057 C 
ATOM      7  C   UNL     1      31.853  -8.921 -22.656  0.00  0.00    +0.046 C 
ATOM      8  C   UNL     1      33.550 -10.581 -23.003  0.00  0.00    +0.031 C 
ATOM      9  C   UNL     1      30.817  -6.909 -22.948  0.00  0.00    +0.005 C 
ATOM     10  C   UNL     1      34.195 -11.892 -22.700  0.00  0.00    +0.129 C 
ATOM     11  C   UNL     1      32.598  -8.125 -23.530  0.00  0.00    +0.133 C 
ATOM     12  C   UNL     1      30.719  -8.124 -22.306  0.00  0.00    +0.012 C 
ATOM     13  C   UNL     1      32.140 -12.539 -21.441  0.00  0.00    +0.315 C 
ATOM     14  C   UNL     1      34.189  -9.671 -23.842  0.00  0.00    +0.099 C 
ATOM     15  H   UNL     1      32.286  -6.179 -24.248  0.00  0.00    +0.153 HD
ENDROOT
BRANCH   3  18
ATOM     16  F   UNL     1      32.756 -14.201 -24.669  0.00  0.00    -0.200 F 
ATOM     17  F   UNL     1      34.440 -14.445 -20.237  0.00  0.00    -0.200 F 
ATOM     18  C   UNL     1      33.590 -14.292 -22.448  0.00  0.00    +0.117 C 
ATOM     19  C   UNL     1      33.327 -14.900 -23.676  0.00  0.00    +0.190 C 
ATOM     20  C   UNL     1      34.184 -15.025 -21.420  0.00  0.00    +0.190 C 
ATOM     21  C   UNL     1      34.515 -16.365 -21.620  0.00  0.00    +0.170 C 
ATOM     22  C   UNL     1      33.658 -16.241 -23.875  0.00  0.00    +0.170 C 
ATOM     23  C   UNL     1      34.252 -16.973 -22.847  0.00  0.00    +0.079 C 
BRANCH  21  24
ATOM     24  O   UNL     1      35.095 -17.080 -20.617  0.00  0.00    -0.469 OA
ATOM     25  C   UNL     1      35.643 -18.352 -20.962  0.00  0.00    +0.253 C 
ENDBRANCH  21  24
BRANCH  22  26
ATOM     26  O   UNL     1      33.402 -16.836 -25.072  0.00  0.00    -0.469 OA
ATOM     27  C   UNL     1      32.699 -18.077 -25.043  0.00  0.00    +0.253 C 
ENDBRANCH  22  26
ENDBRANCH   3  18
BRANCH   2  28
ATOM     28  C   UNL     1      30.618 -10.765 -20.669  0.00  0.00    +0.100 C 
ATOM     29  C   UNL     1      31.085 -10.061 -19.412  0.00  0.00    +0.024 C 
ENDBRANCH   2  28
BRANCH   9  30
ATOM     30  C   UNL     1      29.929  -5.733 -22.926  0.00  0.00    -0.035 C 
BRANCH  30  32
ATOM     31  O   UNL     1      30.688  -1.786 -24.134  0.00  0.00    -0.358 OA
ATOM     32  N   UNL     1      30.626  -4.486 -23.236  0.00  0.00    +0.394 N 
ATOM     33  C   UNL     1      30.476  -4.145 -24.658  0.00  0.00    -0.044 C 
ATOM     34  C   UNL     1      30.125  -3.386 -22.400  0.00  0.00    -0.044 C 
ATOM     35  C   UNL     1      31.202  -2.836 -24.955  0.00  0.00    +0.119 C 
ATOM     36  C   UNL     1      30.857  -2.094 -22.751  0.00  0.00    +0.119 C 
ATOM     37  H   UNL     1      31.616  -4.624 -23.036  0.00  0.00    -0.079 HD
ENDBRANCH  30  32
ENDBRANCH   9  30
TORSDOF 6
ENDMDL
