MODEL 1
REMARK VINA RESULT:     -13.4      0.000      0.000
REMARK  Name = 16041426
REMARK  5 active torsions:
REMARK  status: ('A' for Active; 'I' for Inactive)
REMARK    1  A    between atoms: C_1  and  C_5
REMARK    2  A    between atoms: C_1  and  O_15
REMARK    3  A    between atoms: C_7  and  C_9
REMARK    4  A    between atoms: O_15  and  C_19
REMARK    5  A    between atoms: C_20  and  C_23
REMARK                            x       y       z     vdW  Elec       q    Type
REMARK                         _______ _______ _______ _____ _____    ______ ____
ROOT
ATOM      1  C   UNL     1      34.784 -18.928 -22.724  0.00  0.00    +0.212 C 
ATOM      2  C   UNL     1      33.570 -18.494 -23.563  0.00  0.00    +0.054 C 
ENDROOT
BRANCH   1   5
ATOM      3  O   UNL     1      33.156 -20.330 -19.872  0.00  0.00    -0.354 OA
ATOM      4  N   UNL     1      33.143 -19.645 -21.081  0.00  0.00    -0.078 NA
ATOM      5  C   UNL     1      34.421 -19.594 -21.464  0.00  0.00    +0.140 C 
ATOM      6  C   UNL     1      35.279 -20.226 -20.546  0.00  0.00    +0.062 C 
ATOM      7  C   UNL     1      34.433 -20.667 -19.572  0.00  0.00    +0.177 C 
BRANCH   7   9
ATOM      8 CL   UNL     1      37.560 -22.142 -15.743  0.00  0.00    -0.082 Cl
ATOM      9  C   UNL     1      34.607 -21.389 -18.335  0.00  0.00    +0.038 C 
ATOM     10  C   UNL     1      35.854 -21.412 -17.709  0.00  0.00    +0.015 C 
ATOM     11  C   UNL     1      33.529 -22.066 -17.765  0.00  0.00    +0.003 C 
ATOM     12  C   UNL     1      36.022 -22.111 -16.515  0.00  0.00    +0.058 C 
ATOM     13  C   UNL     1      33.696 -22.765 -16.570  0.00  0.00    +0.001 C 
ATOM     14  C   UNL     1      34.943 -22.787 -15.945  0.00  0.00    +0.011 C 
ENDBRANCH   7   9
ENDBRANCH   1   5
BRANCH   1  15
ATOM     15  O   UNL     1      35.576 -17.737 -22.540  0.00  0.00    -0.444 OA
BRANCH  15  19
ATOM     16  N   UNL     1      34.422 -15.664 -22.526  0.00  0.00    -0.264 N 
ATOM     17  N   UNL     1      34.845 -16.624 -20.606  0.00  0.00    -0.092 NA
ATOM     18  N   UNL     1      34.173 -15.442 -20.364  0.00  0.00    -0.126 NA
ATOM     19  C   UNL     1      34.967 -16.708 -21.889  0.00  0.00    +0.320 A 
ATOM     20  C   UNL     1      33.928 -14.882 -21.526  0.00  0.00    +0.169 A 
ATOM     21  C   UNL     1      34.366 -15.418 -23.948  0.00  0.00    +0.137 C 
BRANCH  20  23
ATOM     22  N   UNL     1      31.928 -11.199 -22.155  0.00  0.00    -0.242 NA
ATOM     23  C   UNL     1      33.247 -13.629 -21.740  0.00  0.00    +0.039 C 
ATOM     24  C   UNL     1      32.225 -13.235 -20.883  0.00  0.00    +0.024 C 
ATOM     25  C   UNL     1      33.610 -12.810 -22.803  0.00  0.00    +0.024 C 
ATOM     26  C   UNL     1      31.602 -12.022 -21.132  0.00  0.00    +0.099 C 
ATOM     27  C   UNL     1      32.926 -11.616 -22.966  0.00  0.00    +0.099 C 
ENDBRANCH  20  23
ENDBRANCH  15  19
ENDBRANCH   1  15
TORSDOF 5
ENDMDL
MODEL 2
REMARK VINA RESULT:     -13.3      0.953      1.332
REMARK  Name = 16041426
REMARK  5 active torsions:
REMARK  status: ('A' for Active; 'I' for Inactive)
REMARK    1  A    between atoms: C_1  and  C_5
REMARK    2  A    between atoms: C_1  and  O_15
REMARK    3  A    between atoms: C_7  and  C_9
REMARK    4  A    between atoms: O_15  and  C_19
REMARK    5  A    between atoms: C_20  and  C_23
REMARK                            x       y       z     vdW  Elec       q    Type
REMARK                         _______ _______ _______ _____ _____    ______ ____
ROOT
ATOM      1  C   UNL     1      34.787 -19.032 -22.626  0.00  0.00    +0.212 C 
ATOM      2  C   UNL     1      33.491 -18.650 -23.359  0.00  0.00    +0.054 C 
ENDROOT
BRANCH   1   5
ATOM      3  O   UNL     1      33.461 -20.443 -19.626  0.00  0.00    -0.354 OA
ATOM      4  N   UNL     1      33.316 -19.813 -20.856  0.00  0.00    -0.078 NA
ATOM      5  C   UNL     1      34.560 -19.672 -21.321  0.00  0.00    +0.140 C 
ATOM      6  C   UNL     1      35.523 -20.190 -20.437  0.00  0.00    +0.062 C 
ATOM      7  C   UNL     1      34.778 -20.659 -19.395  0.00  0.00    +0.177 C 
BRANCH   7   9
ATOM      8 CL   UNL     1      33.169 -23.492 -15.395  0.00  0.00    -0.082 Cl
ATOM      9  C   UNL     1      35.088 -21.310 -18.146  0.00  0.00    +0.038 C 
ATOM     10  C   UNL     1      34.094 -22.006 -17.456  0.00  0.00    +0.015 C 
ATOM     11  C   UNL     1      36.380 -21.242 -17.626  0.00  0.00    +0.003 C 
ATOM     12  C   UNL     1      34.394 -22.635 -16.248  0.00  0.00    +0.058 C 
ATOM     13  C   UNL     1      36.680 -21.870 -16.417  0.00  0.00    +0.001 C 
ATOM     14  C   UNL     1      35.686 -22.567 -15.728  0.00  0.00    +0.011 C 
ENDBRANCH   7   9
ENDBRANCH   1   5
BRANCH   1  15
ATOM     15  O   UNL     1      35.561 -17.817 -22.546  0.00  0.00    -0.444 OA
BRANCH  15  19
ATOM     16  N   UNL     1      34.424 -15.735 -22.551  0.00  0.00    -0.264 N 
ATOM     17  N   UNL     1      34.868 -16.666 -20.621  0.00  0.00    -0.092 NA
ATOM     18  N   UNL     1      34.208 -15.475 -20.389  0.00  0.00    -0.126 NA
ATOM     19  C   UNL     1      34.970 -16.773 -21.904  0.00  0.00    +0.320 A 
ATOM     20  C   UNL     1      33.951 -14.933 -21.557  0.00  0.00    +0.169 A 
ATOM     21  C   UNL     1      34.349 -15.513 -23.976  0.00  0.00    +0.137 C 
BRANCH  20  23
ATOM     22  N   UNL     1      31.972 -11.244 -22.220  0.00  0.00    -0.242 NA
ATOM     23  C   UNL     1      33.277 -13.678 -21.783  0.00  0.00    +0.039 C 
ATOM     24  C   UNL     1      32.267 -13.263 -20.922  0.00  0.00    +0.024 C 
ATOM     25  C   UNL     1      33.635 -12.877 -22.862  0.00  0.00    +0.024 C 
ATOM     26  C   UNL     1      31.651 -12.049 -21.182  0.00  0.00    +0.099 C 
ATOM     27  C   UNL     1      32.958 -11.681 -23.035  0.00  0.00    +0.099 C 
ENDBRANCH  20  23
ENDBRANCH  15  19
ENDBRANCH   1  15
TORSDOF 5
ENDMDL
MODEL 3
REMARK VINA RESULT:     -12.7      4.421     10.031
REMARK  Name = 16041426
REMARK  5 active torsions:
REMARK  status: ('A' for Active; 'I' for Inactive)
REMARK    1  A    between atoms: C_1  and  C_5
REMARK    2  A    between atoms: C_1  and  O_15
REMARK    3  A    between atoms: C_7  and  C_9
REMARK    4  A    between atoms: O_15  and  C_19
REMARK    5  A    between atoms: C_20  and  C_23
REMARK                            x       y       z     vdW  Elec       q    Type
REMARK                         _______ _______ _______ _____ _____    ______ ____
ROOT
ATOM      1  C   UNL     1      34.300 -21.495 -18.652  0.00  0.00    +0.212 C 
ATOM      2  C   UNL     1      33.813 -22.793 -19.318  0.00  0.00    +0.054 C 
ENDROOT
BRANCH   1   5
ATOM      3  O   UNL     1      35.769 -18.932 -20.658  0.00  0.00    -0.354 OA
ATOM      4  N   UNL     1      35.833 -19.907 -19.670  0.00  0.00    -0.078 NA
ATOM      5  C   UNL     1      34.601 -20.419 -19.609  0.00  0.00    +0.140 C 
ATOM      6  C   UNL     1      33.725 -19.814 -20.528  0.00  0.00    +0.062 C 
ATOM      7  C   UNL     1      34.510 -18.893 -21.156  0.00  0.00    +0.177 C 
BRANCH   7   9
ATOM      8 CL   UNL     1      34.219 -13.937 -22.560  0.00  0.00    -0.082 Cl
ATOM      9  C   UNL     1      34.289 -17.921 -22.199  0.00  0.00    +0.038 C 
ATOM     10  C   UNL     1      34.355 -16.558 -21.909  0.00  0.00    +0.015 C 
ATOM     11  C   UNL     1      34.005 -18.344 -23.497  0.00  0.00    +0.003 C 
ATOM     12  C   UNL     1      34.139 -15.619 -22.917  0.00  0.00    +0.058 C 
ATOM     13  C   UNL     1      33.789 -17.405 -24.506  0.00  0.00    +0.001 C 
ATOM     14  C   UNL     1      33.856 -16.042 -24.215  0.00  0.00    +0.011 C 
ENDBRANCH   7   9
ENDBRANCH   1   5
BRANCH   1  15
ATOM     15  O   UNL     1      35.429 -21.875 -17.838  0.00  0.00    -0.444 OA
BRANCH  15  19
ATOM     16  N   UNL     1      36.061 -22.646 -15.685  0.00  0.00    -0.264 N 
ATOM     17  N   UNL     1      33.952 -22.782 -16.254  0.00  0.00    -0.092 NA
ATOM     18  N   UNL     1      34.092 -23.281 -14.974  0.00  0.00    -0.126 NA
ATOM     19  C   UNL     1      35.135 -22.423 -16.627  0.00  0.00    +0.320 A 
ATOM     20  C   UNL     1      35.361 -23.190 -14.651  0.00  0.00    +0.169 A 
ATOM     21  C   UNL     1      37.477 -22.372 -15.745  0.00  0.00    +0.137 C 
BRANCH  20  23
ATOM     22  N   UNL     1      37.103 -24.399 -10.981  0.00  0.00    -0.242 NA
ATOM     23  C   UNL     1      35.954 -23.602 -13.402  0.00  0.00    +0.039 C 
ATOM     24  C   UNL     1      36.427 -24.901 -13.248  0.00  0.00    +0.024 C 
ATOM     25  C   UNL     1      36.055 -22.702 -12.348  0.00  0.00    +0.024 C 
ATOM     26  C   UNL     1      36.988 -25.246 -12.029  0.00  0.00    +0.099 C 
ATOM     27  C   UNL     1      36.633 -23.145 -11.169  0.00  0.00    +0.099 C 
ENDBRANCH  20  23
ENDBRANCH  15  19
ENDBRANCH   1  15
TORSDOF 5
ENDMDL
MODEL 4
REMARK VINA RESULT:     -12.5      4.996     10.331
REMARK  Name = 16041426
REMARK  5 active torsions:
REMARK  status: ('A' for Active; 'I' for Inactive)
REMARK    1  A    between atoms: C_1  and  C_5
REMARK    2  A    between atoms: C_1  and  O_15
REMARK    3  A    between atoms: C_7  and  C_9
REMARK    4  A    between atoms: O_15  and  C_19
REMARK    5  A    between atoms: C_20  and  C_23
REMARK                            x       y       z     vdW  Elec       q    Type
REMARK                         _______ _______ _______ _____ _____    ______ ____
ROOT
ATOM      1  C   UNL     1      32.618 -13.166 -23.558  0.00  0.00    +0.212 C 
ATOM      2  C   UNL     1      32.627 -12.965 -25.082  0.00  0.00    +0.054 C 
ENDROOT
BRANCH   1   5
ATOM      3  O   UNL     1      31.131 -10.873 -21.260  0.00  0.00    -0.354 OA
ATOM      4  N   UNL     1      31.416 -12.159 -21.700  0.00  0.00    -0.078 NA
ATOM      5  C   UNL     1      32.136 -11.992 -22.812  0.00  0.00    +0.140 C 
ATOM      6  C   UNL     1      32.338 -10.635 -23.120  0.00  0.00    +0.062 C 
ATOM      7  C   UNL     1      31.687  -9.982 -22.115  0.00  0.00    +0.177 C 
BRANCH   7   9
ATOM      8 CL   UNL     1      30.420  -5.233 -23.683  0.00  0.00    -0.082 Cl
ATOM      9  C   UNL     1      31.475  -8.593 -21.785  0.00  0.00    +0.038 C 
ATOM     10  C   UNL     1      31.093  -7.690 -22.778  0.00  0.00    +0.015 C 
ATOM     11  C   UNL     1      31.654  -8.153 -20.474  0.00  0.00    +0.003 C 
ATOM     12  C   UNL     1      30.889  -6.348 -22.459  0.00  0.00    +0.058 C 
ATOM     13  C   UNL     1      31.450  -6.811 -20.155  0.00  0.00    +0.001 C 
ATOM     14  C   UNL     1      31.068  -5.908 -21.148  0.00  0.00    +0.011 C 
ENDBRANCH   7   9
ENDBRANCH   1   5
BRANCH   1  15
ATOM     15  O   UNL     1      33.961 -13.560 -23.209  0.00  0.00    -0.444 OA
BRANCH  15  19
ATOM     16  N   UNL     1      34.314 -15.610 -22.069  0.00  0.00    -0.264 N 
ATOM     17  N   UNL     1      34.363 -15.622 -24.257  0.00  0.00    -0.092 NA
ATOM     18  N   UNL     1      34.589 -16.908 -23.808  0.00  0.00    -0.126 NA
ATOM     19  C   UNL     1      34.208 -14.898 -23.198  0.00  0.00    +0.320 A 
ATOM     20  C   UNL     1      34.556 -16.881 -22.496  0.00  0.00    +0.169 A 
ATOM     21  C   UNL     1      34.197 -15.144 -20.707  0.00  0.00    +0.137 C 
BRANCH  20  23
ATOM     22  N   UNL     1      35.119 -20.189 -19.908  0.00  0.00    -0.242 NA
ATOM     23  C   UNL     1      34.748 -18.007 -21.616  0.00  0.00    +0.039 C 
ATOM     24  C   UNL     1      36.006 -18.273 -21.086  0.00  0.00    +0.024 C 
ATOM     25  C   UNL     1      33.676 -18.831 -21.292  0.00  0.00    +0.024 C 
ATOM     26  C   UNL     1      36.138 -19.366 -20.245  0.00  0.00    +0.099 C 
ATOM     27  C   UNL     1      33.912 -19.899 -20.442  0.00  0.00    +0.099 C 
ENDBRANCH  20  23
ENDBRANCH  15  19
ENDBRANCH   1  15
TORSDOF 5
ENDMDL
MODEL 5
REMARK VINA RESULT:     -12.4      3.549      6.127
REMARK  Name = 16041426
REMARK  5 active torsions:
REMARK  status: ('A' for Active; 'I' for Inactive)
REMARK    1  A    between atoms: C_1  and  C_5
REMARK    2  A    between atoms: C_1  and  O_15
REMARK    3  A    between atoms: C_7  and  C_9
REMARK    4  A    between atoms: O_15  and  C_19
REMARK    5  A    between atoms: C_20  and  C_23
REMARK                            x       y       z     vdW  Elec       q    Type
REMARK                         _______ _______ _______ _____ _____    ______ ____
ROOT
ATOM      1  C   UNL     1      33.333 -12.973 -23.537  0.00  0.00    +0.212 C 
ATOM      2  C   UNL     1      32.848 -13.442 -24.919  0.00  0.00    +0.054 C 
ENDROOT
BRANCH   1   5
ATOM      3  O   UNL     1      34.252 -15.095 -20.816  0.00  0.00    -0.354 OA
ATOM      4  N   UNL     1      33.837 -13.876 -21.337  0.00  0.00    -0.078 NA
ATOM      5  C   UNL     1      33.752 -14.074 -22.655  0.00  0.00    +0.140 C 
ATOM      6  C   UNL     1      34.097 -15.387 -23.021  0.00  0.00    +0.062 C 
ATOM      7  C   UNL     1      34.400 -15.980 -21.831  0.00  0.00    +0.177 C 
BRANCH   7   9
ATOM      8 CL   UNL     1      33.177 -20.633 -19.969  0.00  0.00    -0.082 Cl
ATOM      9  C   UNL     1      34.830 -17.300 -21.442  0.00  0.00    +0.038 C 
ATOM     10  C   UNL     1      33.903 -18.221 -20.952  0.00  0.00    +0.015 C 
ATOM     11  C   UNL     1      36.174 -17.657 -21.553  0.00  0.00    +0.003 C 
ATOM     12  C   UNL     1      34.319 -19.497 -20.575  0.00  0.00    +0.058 C 
ATOM     13  C   UNL     1      36.591 -18.933 -21.176  0.00  0.00    +0.001 C 
ATOM     14  C   UNL     1      35.663 -19.853 -20.687  0.00  0.00    +0.011 C 
ENDBRANCH   7   9
ENDBRANCH   1   5
BRANCH   1  15
ATOM     15  O   UNL     1      32.258 -12.177 -22.997  0.00  0.00    -0.444 OA
BRANCH  15  19
ATOM     16  N   UNL     1      31.640  -9.983 -22.340  0.00  0.00    -0.264 N 
ATOM     17  N   UNL     1      33.475 -10.235 -23.506  0.00  0.00    -0.092 NA
ATOM     18  N   UNL     1      33.311  -8.891 -23.236  0.00  0.00    -0.126 NA
ATOM     19  C   UNL     1      32.469 -10.833 -22.960  0.00  0.00    +0.320 A 
ATOM     20  C   UNL     1      32.207  -8.760 -22.537  0.00  0.00    +0.169 A 
ATOM     21  C   UNL     1      30.424 -10.287 -21.624  0.00  0.00    +0.137 C 
BRANCH  20  23
ATOM     22  N   UNL     1      30.580  -5.124 -21.089  0.00  0.00    -0.242 NA
ATOM     23  C   UNL     1      31.653  -7.523 -22.044  0.00  0.00    +0.039 C 
ATOM     24  C   UNL     1      32.022  -7.043 -20.792  0.00  0.00    +0.024 C 
ATOM     25  C   UNL     1      30.748  -6.806 -22.819  0.00  0.00    +0.024 C 
ATOM     26  C   UNL     1      31.462  -5.849 -20.364  0.00  0.00    +0.099 C 
ATOM     27  C   UNL     1      30.245  -5.623 -22.300  0.00  0.00    +0.099 C 
ENDBRANCH  20  23
ENDBRANCH  15  19
ENDBRANCH   1  15
TORSDOF 5
ENDMDL
MODEL 6
REMARK VINA RESULT:     -12.4      4.691     10.261
REMARK  Name = 16041426
REMARK  5 active torsions:
REMARK  status: ('A' for Active; 'I' for Inactive)
REMARK    1  A    between atoms: C_1  and  C_5
REMARK    2  A    between atoms: C_1  and  O_15
REMARK    3  A    between atoms: C_7  and  C_9
REMARK    4  A    between atoms: O_15  and  C_19
REMARK    5  A    between atoms: C_20  and  C_23
REMARK                            x       y       z     vdW  Elec       q    Type
REMARK                         _______ _______ _______ _____ _____    ______ ____
ROOT
ATOM      1  C   UNL     1      32.630 -13.206 -23.521  0.00  0.00    +0.212 C 
ATOM      2  C   UNL     1      32.685 -13.098 -25.054  0.00  0.00    +0.054 C 
ENDROOT
BRANCH   1   5
ATOM      3  O   UNL     1      31.225 -10.747 -21.346  0.00  0.00    -0.354 OA
ATOM      4  N   UNL     1      31.544 -12.060 -21.674  0.00  0.00    -0.078 NA
ATOM      5  C   UNL     1      32.150 -11.982 -22.861  0.00  0.00    +0.140 C 
ATOM      6  C   UNL     1      32.244 -10.659 -23.328  0.00  0.00    +0.062 C 
ATOM      7  C   UNL     1      31.650  -9.931 -22.340  0.00  0.00    +0.177 C 
BRANCH   7   9
ATOM      8 CL   UNL     1      32.257  -5.713 -19.431  0.00  0.00    -0.082 Cl
ATOM      9  C   UNL     1      31.388  -8.526 -22.140  0.00  0.00    +0.038 C 
ATOM     10  C   UNL     1      31.892  -7.875 -21.014  0.00  0.00    +0.015 C 
ATOM     11  C   UNL     1      30.627  -7.820 -23.072  0.00  0.00    +0.003 C 
ATOM     12  C   UNL     1      31.637  -6.518 -20.821  0.00  0.00    +0.058 C 
ATOM     13  C   UNL     1      30.371  -6.463 -22.879  0.00  0.00    +0.001 C 
ATOM     14  C   UNL     1      30.877  -5.811 -21.753  0.00  0.00    +0.011 C 
ENDBRANCH   7   9
ENDBRANCH   1   5
BRANCH   1  15
ATOM     15  O   UNL     1      33.956 -13.601 -23.111  0.00  0.00    -0.444 OA
BRANCH  15  19
ATOM     16  N   UNL     1      34.320 -15.660 -21.990  0.00  0.00    -0.264 N 
ATOM     17  N   UNL     1      34.366 -15.652 -24.178  0.00  0.00    -0.092 NA
ATOM     18  N   UNL     1      34.599 -16.941 -23.741  0.00  0.00    -0.126 NA
ATOM     19  C   UNL     1      34.209 -14.938 -23.113  0.00  0.00    +0.320 A 
ATOM     20  C   UNL     1      34.567 -16.925 -22.428  0.00  0.00    +0.169 A 
ATOM     21  C   UNL     1      34.203 -15.206 -20.624  0.00  0.00    +0.137 C 
BRANCH  20  23
ATOM     22  N   UNL     1      35.150 -20.253 -19.870  0.00  0.00    -0.242 NA
ATOM     23  C   UNL     1      34.766 -18.058 -21.558  0.00  0.00    +0.039 C 
ATOM     24  C   UNL     1      36.027 -18.325 -21.036  0.00  0.00    +0.024 C 
ATOM     25  C   UNL     1      33.697 -18.887 -21.237  0.00  0.00    +0.024 C 
ATOM     26  C   UNL     1      36.165 -19.425 -20.204  0.00  0.00    +0.099 C 
ATOM     27  C   UNL     1      33.939 -19.962 -20.396  0.00  0.00    +0.099 C 
ENDBRANCH  20  23
ENDBRANCH  15  19
ENDBRANCH   1  15
TORSDOF 5
ENDMDL
MODEL 7
REMARK VINA RESULT:     -12.0      3.752      9.016
REMARK  Name = 16041426
REMARK  5 active torsions:
REMARK  status: ('A' for Active; 'I' for Inactive)
REMARK    1  A    between atoms: C_1  and  C_5
REMARK    2  A    between atoms: C_1  and  O_15
REMARK    3  A    between atoms: C_7  and  C_9
REMARK    4  A    between atoms: O_15  and  C_19
REMARK    5  A    between atoms: C_20  and  C_23
REMARK                            x       y       z     vdW  Elec       q    Type
REMARK                         _______ _______ _______ _____ _____    ______ ____
ROOT
ATOM      1  C   UNL     1      35.543 -21.473 -18.918  0.00  0.00    +0.212 C 
ATOM      2  C   UNL     1      35.451 -21.179 -17.411  0.00  0.00    +0.054 C 
ENDROOT
BRANCH   1   5
ATOM      3  O   UNL     1      36.111 -18.336 -20.525  0.00  0.00    -0.354 OA
ATOM      4  N   UNL     1      36.432 -19.313 -19.591  0.00  0.00    -0.078 NA
ATOM      5  C   UNL     1      35.510 -20.265 -19.757  0.00  0.00    +0.140 C 
ATOM      6  C   UNL     1      34.591 -19.948 -20.773  0.00  0.00    +0.062 C 
ATOM      7  C   UNL     1      35.016 -18.731 -21.217  0.00  0.00    +0.177 C 
BRANCH   7   9
ATOM      8 CL   UNL     1      34.118 -13.857 -22.650  0.00  0.00    -0.082 Cl
ATOM      9  C   UNL     1      34.561 -17.811 -22.231  0.00  0.00    +0.038 C 
ATOM     10  C   UNL     1      34.561 -16.439 -21.980  0.00  0.00    +0.015 C 
ATOM     11  C   UNL     1      34.117 -18.294 -23.462  0.00  0.00    +0.003 C 
ATOM     12  C   UNL     1      34.120 -15.550 -22.959  0.00  0.00    +0.058 C 
ATOM     13  C   UNL     1      33.675 -17.405 -24.442  0.00  0.00    +0.001 C 
ATOM     14  C   UNL     1      33.676 -16.033 -24.190  0.00  0.00    +0.011 C 
ENDBRANCH   7   9
ENDBRANCH   1   5
BRANCH   1  15
ATOM     15  O   UNL     1      34.475 -22.401 -19.199  0.00  0.00    -0.444 OA
BRANCH  15  19
ATOM     16  N   UNL     1      33.178 -22.859 -17.266  0.00  0.00    -0.264 N 
ATOM     17  N   UNL     1      32.329 -21.540 -18.793  0.00  0.00    -0.092 NA
ATOM     18  N   UNL     1      31.413 -21.666 -17.767  0.00  0.00    -0.126 NA
ATOM     19  C   UNL     1      33.347 -22.259 -18.452  0.00  0.00    +0.320 A 
ATOM     20  C   UNL     1      31.940 -22.459 -16.862  0.00  0.00    +0.169 A 
ATOM     21  C   UNL     1      34.095 -23.730 -16.570  0.00  0.00    +0.137 C 
BRANCH  20  23
ATOM     22  N   UNL     1      30.125 -23.654 -13.224  0.00  0.00    -0.242 NA
ATOM     23  C   UNL     1      31.323 -22.866 -15.624  0.00  0.00    +0.039 C 
ATOM     24  C   UNL     1      31.838 -22.426 -14.409  0.00  0.00    +0.024 C 
ATOM     25  C   UNL     1      30.210 -23.699 -15.639  0.00  0.00    +0.024 C 
ATOM     26  C   UNL     1      31.209 -22.845 -13.248  0.00  0.00    +0.099 C 
ATOM     27  C   UNL     1      29.653 -24.061 -14.423  0.00  0.00    +0.099 C 
ENDBRANCH  20  23
ENDBRANCH  15  19
ENDBRANCH   1  15
TORSDOF 5
ENDMDL
MODEL 8
REMARK VINA RESULT:     -11.7      2.037      2.932
REMARK  Name = 16041426
REMARK  5 active torsions:
REMARK  status: ('A' for Active; 'I' for Inactive)
REMARK    1  A    between atoms: C_1  and  C_5
REMARK    2  A    between atoms: C_1  and  O_15
REMARK    3  A    between atoms: C_7  and  C_9
REMARK    4  A    between atoms: O_15  and  C_19
REMARK    5  A    between atoms: C_20  and  C_23
REMARK                            x       y       z     vdW  Elec       q    Type
REMARK                         _______ _______ _______ _____ _____    ______ ____
ROOT
ATOM      1  C   UNL     1      34.273 -20.423 -20.680  0.00  0.00    +0.212 C 
ATOM      2  C   UNL     1      33.000 -19.574 -20.522  0.00  0.00    +0.054 C 
ENDROOT
BRANCH   1   5
ATOM      3  O   UNL     1      36.381 -20.918 -17.841  0.00  0.00    -0.354 OA
ATOM      4  N   UNL     1      36.114 -20.380 -19.094  0.00  0.00    -0.078 NA
ATOM      5  C   UNL     1      34.886 -20.808 -19.400  0.00  0.00    +0.140 C 
ATOM      6  C   UNL     1      34.334 -21.613 -18.387  0.00  0.00    +0.062 C 
ATOM      7  C   UNL     1      35.313 -21.646 -17.438  0.00  0.00    +0.177 C 
BRANCH   7   9
ATOM      8 CL   UNL     1      33.044 -23.948 -13.417  0.00  0.00    -0.082 Cl
ATOM      9  C   UNL     1      35.443 -22.272 -16.145  0.00  0.00    +0.038 C 
ATOM     10  C   UNL     1      34.312 -22.752 -15.484  0.00  0.00    +0.015 C 
ATOM     11  C   UNL     1      36.700 -22.395 -15.554  0.00  0.00    +0.003 C 
ATOM     12  C   UNL     1      34.439 -23.356 -14.234  0.00  0.00    +0.058 C 
ATOM     13  C   UNL     1      36.828 -22.998 -14.303  0.00  0.00    +0.001 C 
ATOM     14  C   UNL     1      35.696 -23.479 -13.643  0.00  0.00    +0.011 C 
ENDBRANCH   7   9
ENDBRANCH   1   5
BRANCH   1  15
ATOM     15  O   UNL     1      35.149 -19.657 -21.533  0.00  0.00    -0.444 OA
BRANCH  15  19
ATOM     16  N   UNL     1      34.373 -17.687 -22.603  0.00  0.00    -0.264 N 
ATOM     17  N   UNL     1      35.236 -17.505 -20.599  0.00  0.00    -0.092 NA
ATOM     18  N   UNL     1      34.854 -16.248 -21.026  0.00  0.00    -0.126 NA
ATOM     19  C   UNL     1      34.933 -18.314 -21.560  0.00  0.00    +0.320 A 
ATOM     20  C   UNL     1      34.340 -16.378 -22.227  0.00  0.00    +0.169 A 
ATOM     21  C   UNL     1      33.909 -18.262 -23.843  0.00  0.00    +0.137 C 
BRANCH  20  23
ATOM     22  N   UNL     1      32.805 -13.252 -24.643  0.00  0.00    -0.242 NA
ATOM     23  C   UNL     1      33.817 -15.315 -23.049  0.00  0.00    +0.039 C 
ATOM     24  C   UNL     1      33.447 -14.104 -22.472  0.00  0.00    +0.024 C 
ATOM     25  C   UNL     1      33.681 -15.494 -24.421  0.00  0.00    +0.024 C 
ATOM     26  C   UNL     1      32.950 -13.114 -23.305  0.00  0.00    +0.099 C 
ATOM     27  C   UNL     1      33.175 -14.442 -25.167  0.00  0.00    +0.099 C 
ENDBRANCH  20  23
ENDBRANCH  15  19
ENDBRANCH   1  15
TORSDOF 5
ENDMDL
MODEL 9
REMARK VINA RESULT:     -11.7      3.057      4.846
REMARK  Name = 16041426
REMARK  5 active torsions:
REMARK  status: ('A' for Active; 'I' for Inactive)
REMARK    1  A    between atoms: C_1  and  C_5
REMARK    2  A    between atoms: C_1  and  O_15
REMARK    3  A    between atoms: C_7  and  C_9
REMARK    4  A    between atoms: O_15  and  C_19
REMARK    5  A    between atoms: C_20  and  C_23
REMARK                            x       y       z     vdW  Elec       q    Type
REMARK                         _______ _______ _______ _____ _____    ______ ____
ROOT
ATOM      1  C   UNL     1      35.106 -21.056 -18.334  0.00  0.00    +0.212 C 
ATOM      2  C   UNL     1      36.428 -21.738 -17.948  0.00  0.00    +0.054 C 
ENDROOT
BRANCH   1   5
ATOM      3  O   UNL     1      31.902 -22.498 -17.699  0.00  0.00    -0.354 OA
ATOM      4  N   UNL     1      32.813 -21.842 -18.517  0.00  0.00    -0.078 NA
ATOM      5  C   UNL     1      33.916 -21.716 -17.775  0.00  0.00    +0.140 C 
ATOM      6  C   UNL     1      33.762 -22.271 -16.491  0.00  0.00    +0.062 C 
ATOM      7  C   UNL     1      32.484 -22.745 -16.501  0.00  0.00    +0.177 C 
BRANCH   7   9
ATOM      8 CL   UNL     1      27.792 -24.386 -15.122  0.00  0.00    -0.082 Cl
ATOM      9  C   UNL     1      31.653 -23.426 -15.539  0.00  0.00    +0.038 C 
ATOM     10  C   UNL     1      30.284 -23.562 -15.770  0.00  0.00    +0.015 C 
ATOM     11  C   UNL     1      32.218 -23.948 -14.375  0.00  0.00    +0.003 C 
ATOM     12  C   UNL     1      29.481 -24.220 -14.839  0.00  0.00    +0.058 C 
ATOM     13  C   UNL     1      31.416 -24.606 -13.444  0.00  0.00    +0.001 C 
ATOM     14  C   UNL     1      30.047 -24.742 -13.676  0.00  0.00    +0.011 C 
ENDBRANCH   7   9
ENDBRANCH   1   5
BRANCH   1  15
ATOM     15  O   UNL     1      35.106 -20.992 -19.775  0.00  0.00    -0.444 OA
BRANCH  15  19
ATOM     16  N   UNL     1      34.523 -19.088 -21.064  0.00  0.00    -0.264 N 
ATOM     17  N   UNL     1      36.525 -19.166 -20.183  0.00  0.00    -0.092 NA
ATOM     18  N   UNL     1      36.403 -17.982 -20.883  0.00  0.00    -0.126 NA
ATOM     19  C   UNL     1      35.396 -19.779 -20.320  0.00  0.00    +0.320 A 
ATOM     20  C   UNL     1      35.197 -17.954 -21.403  0.00  0.00    +0.169 A 
ATOM     21  C   UNL     1      33.174 -19.454 -21.427  0.00  0.00    +0.137 C 
BRANCH  20  23
ATOM     22  N   UNL     1      33.580 -14.852 -23.797  0.00  0.00    -0.242 NA
ATOM     23  C   UNL     1      34.646 -16.898 -22.218  0.00  0.00    +0.039 C 
ATOM     24  C   UNL     1      34.377 -15.654 -21.659  0.00  0.00    +0.024 C 
ATOM     25  C   UNL     1      34.383 -17.121 -23.565  0.00  0.00    +0.024 C 
ATOM     26  C   UNL     1      33.848 -14.673 -22.483  0.00  0.00    +0.099 C 
ATOM     27  C   UNL     1      33.855 -16.075 -24.304  0.00  0.00    +0.099 C 
ENDBRANCH  20  23
ENDBRANCH  15  19
ENDBRANCH   1  15
TORSDOF 5
ENDMDL
