MODEL 1
REMARK VINA RESULT:     -10.5      0.000      0.000
REMARK  Name = 9547923
REMARK  3 active torsions:
REMARK  status: ('A' for Active; 'I' for Inactive)
REMARK    1  A    between atoms: N_2  and  S_19
REMARK    2  A    between atoms: C_8  and  C_12
REMARK    3  A    between atoms: S_19  and  C_24
REMARK                            x       y       z     vdW  Elec       q    Type
REMARK                         _______ _______ _______ _____ _____    ______ ____
ROOT
ATOM      1  O   UNL     1      32.074 -10.951 -20.049  0.00  0.00    -0.269 OA
ATOM      2  N   UNL     1      33.059 -14.429 -23.398  0.00  0.00    -0.151 NA
ATOM      3  N   UNL     1      32.003 -12.188 -22.004  0.00  0.00    -0.273 N 
ATOM      4  C   UNL     1      33.313 -14.265 -21.934  0.00  0.00    +0.117 C 
ATOM      5  C   UNL     1      32.921 -13.112 -24.090  0.00  0.00    +0.117 C 
ATOM      6  C   UNL     1      32.180 -13.461 -21.306  0.00  0.00    +0.113 C 
ATOM      7  C   UNL     1      31.783 -12.324 -23.450  0.00  0.00    +0.113 C 
ATOM      8  C   UNL     1      31.965 -10.986 -21.276  0.00  0.00    +0.255 C 
ENDROOT
BRANCH   8  12
ATOM      9  S   UNL     1      30.220  -9.078 -22.157  0.00  0.00    -0.081 S 
ATOM     10  O   UNL     1      34.144  -6.978 -24.256  0.00  0.00    -0.163 OA
ATOM     11  N   UNL     1      32.890  -6.874 -24.081  0.00  0.00    -0.128 N 
ATOM     12  C   UNL     1      31.790  -9.750 -22.031  0.00  0.00    +0.085 C 
ATOM     13  C   UNL     1      32.742  -9.008 -22.689  0.00  0.00    +0.032 C 
ATOM     14  C   UNL     1      32.156  -7.877 -23.299  0.00  0.00    +0.109 C 
ATOM     15  C   UNL     1      30.789  -7.765 -23.105  0.00  0.00    +0.049 C 
ATOM     16  C   UNL     1      30.102  -6.678 -23.667  0.00  0.00    +0.010 C 
ATOM     17  C   UNL     1      32.195  -5.822 -24.617  0.00  0.00    +0.121 C 
ATOM     18  C   UNL     1      30.819  -5.724 -24.414  0.00  0.00    +0.023 C 
ENDBRANCH   8  12
BRANCH   2  19
ATOM     19  S   UNL     1      34.058 -15.572 -24.191  0.00  0.00    +0.076 S 
ATOM     20  O   UNL     1      35.365 -14.982 -24.388  0.00  0.00    -0.152 OA
ATOM     21  O   UNL     1      33.317 -16.175 -25.279  0.00  0.00    -0.152 OA
BRANCH  19  24
ATOM     22 CL   UNL     1      34.603 -21.869 -19.266  0.00  0.00    -0.082 Cl
ATOM     23  N   UNL     1      35.508 -17.010 -22.380  0.00  0.00    -0.297 N 
ATOM     24  C   UNL     1      34.333 -16.925 -23.054  0.00  0.00    +0.173 C 
ATOM     25  C   UNL     1      33.532 -17.967 -22.700  0.00  0.00    +0.036 C 
ATOM     26  C   UNL     1      34.254 -18.744 -21.752  0.00  0.00    +0.017 C 
ATOM     27  C   UNL     1      35.491 -18.123 -21.568  0.00  0.00    +0.049 C 
ATOM     28  C   UNL     1      33.973 -19.921 -21.030  0.00  0.00    +0.013 C 
ATOM     29  C   UNL     1      36.464 -18.620 -20.695  0.00  0.00    +0.015 C 
ATOM     30  C   UNL     1      34.938 -20.431 -20.152  0.00  0.00    +0.058 C 
ATOM     31  C   UNL     1      36.164 -19.788 -19.989  0.00  0.00    +0.013 C 
ATOM     32  H   UNL     1      36.257 -16.376 -22.459  0.00  0.00    +0.153 HD
ENDBRANCH  19  24
ENDBRANCH   2  19
TORSDOF 3
ENDMDL
MODEL 2
REMARK VINA RESULT:     -10.5      5.033      8.157
REMARK  Name = 9547923
REMARK  3 active torsions:
REMARK  status: ('A' for Active; 'I' for Inactive)
REMARK    1  A    between atoms: N_2  and  S_19
REMARK    2  A    between atoms: C_8  and  C_12
REMARK    3  A    between atoms: S_19  and  C_24
REMARK                            x       y       z     vdW  Elec       q    Type
REMARK                         _______ _______ _______ _____ _____    ______ ____
ROOT
ATOM      1  O   UNL     1      37.105 -18.510 -22.302  0.00  0.00    -0.269 OA
ATOM      2  N   UNL     1      34.034 -20.832 -19.226  0.00  0.00    -0.151 NA
ATOM      3  N   UNL     1      35.421 -18.880 -20.758  0.00  0.00    -0.273 N 
ATOM      4  C   UNL     1      35.319 -21.181 -19.905  0.00  0.00    +0.117 C 
ATOM      5  C   UNL     1      33.273 -19.789 -19.979  0.00  0.00    +0.117 C 
ATOM      6  C   UNL     1      36.171 -19.926 -20.063  0.00  0.00    +0.113 C 
ATOM      7  C   UNL     1      34.139 -18.542 -20.125  0.00  0.00    +0.113 C 
ATOM      8  C   UNL     1      35.984 -18.233 -21.872  0.00  0.00    +0.255 C 
ENDROOT
BRANCH   8  12
ATOM      9  S   UNL     1      34.443 -17.559 -24.025  0.00  0.00    -0.081 S 
ATOM     10  O   UNL     1      33.957 -13.176 -21.844  0.00  0.00    -0.163 OA
ATOM     11  N   UNL     1      33.634 -13.860 -22.863  0.00  0.00    -0.128 N 
ATOM     12  C   UNL     1      35.184 -17.201 -22.523  0.00  0.00    +0.085 C 
ATOM     13  C   UNL     1      34.922 -15.923 -22.090  0.00  0.00    +0.032 C 
ATOM     14  C   UNL     1      34.101 -15.244 -23.018  0.00  0.00    +0.109 C 
ATOM     15  C   UNL     1      33.749 -15.992 -24.128  0.00  0.00    +0.049 C 
ATOM     16  C   UNL     1      32.936 -15.417 -25.116  0.00  0.00    +0.010 C 
ATOM     17  C   UNL     1      32.839 -13.324 -23.842  0.00  0.00    +0.121 C 
ATOM     18  C   UNL     1      32.494 -14.090 -24.955  0.00  0.00    +0.023 C 
ENDBRANCH   8  12
BRANCH   2  19
ATOM     19  S   UNL     1      33.106 -22.166 -18.683  0.00  0.00    +0.076 S 
ATOM     20  O   UNL     1      33.449 -23.321 -19.485  0.00  0.00    -0.152 OA
ATOM     21  O   UNL     1      31.735 -21.743 -18.492  0.00  0.00    -0.152 OA
BRANCH  19  24
ATOM     22 CL   UNL     1      34.930 -24.245 -11.162  0.00  0.00    -0.082 Cl
ATOM     23  N   UNL     1      34.942 -22.285 -16.666  0.00  0.00    -0.297 N 
ATOM     24  C   UNL     1      33.666 -22.572 -17.033  0.00  0.00    +0.173 C 
ATOM     25  C   UNL     1      33.015 -23.155 -15.991  0.00  0.00    +0.036 C 
ATOM     26  C   UNL     1      33.940 -23.235 -14.913  0.00  0.00    +0.017 C 
ATOM     27  C   UNL     1      35.142 -22.683 -15.362  0.00  0.00    +0.049 C 
ATOM     28  C   UNL     1      33.872 -23.726 -13.594  0.00  0.00    +0.013 C 
ATOM     29  C   UNL     1      36.282 -22.597 -14.556  0.00  0.00    +0.015 C 
ATOM     30  C   UNL     1      35.005 -23.647 -12.776  0.00  0.00    +0.058 C 
ATOM     31  C   UNL     1      36.191 -23.091 -13.252  0.00  0.00    +0.013 C 
ATOM     32  H   UNL     1      35.619 -21.860 -17.240  0.00  0.00    +0.153 HD
ENDBRANCH  19  24
ENDBRANCH   2  19
TORSDOF 3
ENDMDL
MODEL 3
REMARK VINA RESULT:     -10.0      4.547     10.582
REMARK  Name = 9547923
REMARK  3 active torsions:
REMARK  status: ('A' for Active; 'I' for Inactive)
REMARK    1  A    between atoms: N_2  and  S_19
REMARK    2  A    between atoms: C_8  and  C_12
REMARK    3  A    between atoms: S_19  and  C_24
REMARK                            x       y       z     vdW  Elec       q    Type
REMARK                         _______ _______ _______ _____ _____    ______ ____
ROOT
ATOM      1  O   UNL     1      30.976 -11.319 -20.247  0.00  0.00    -0.269 OA
ATOM      2  N   UNL     1      31.611  -7.582 -23.397  0.00  0.00    -0.151 NA
ATOM      3  N   UNL     1      31.958  -9.905 -21.795  0.00  0.00    -0.273 N 
ATOM      4  C   UNL     1      30.646  -7.890 -22.298  0.00  0.00    +0.117 C 
ATOM      5  C   UNL     1      32.191  -8.825 -23.992  0.00  0.00    +0.117 C 
ATOM      6  C   UNL     1      31.346  -8.709 -21.218  0.00  0.00    +0.113 C 
ATOM      7  C   UNL     1      32.887  -9.628 -22.899  0.00  0.00    +0.113 C 
ATOM      8  C   UNL     1      31.705 -11.167 -21.230  0.00  0.00    +0.255 C 
ENDROOT
BRANCH   8  12
ATOM      9  S   UNL     1      33.246 -13.394 -20.871  0.00  0.00    -0.081 S 
ATOM     10  O   UNL     1      32.736 -14.082 -25.717  0.00  0.00    -0.163 OA
ATOM     11  N   UNL     1      33.258 -14.552 -24.659  0.00  0.00    -0.128 N 
ATOM     12  C   UNL     1      32.343 -12.321 -21.854  0.00  0.00    +0.085 C 
ATOM     13  C   UNL     1      32.327 -12.695 -23.177  0.00  0.00    +0.032 C 
ATOM     14  C   UNL     1      33.072 -13.881 -23.366  0.00  0.00    +0.109 C 
ATOM     15  C   UNL     1      33.638 -14.392 -22.212  0.00  0.00    +0.049 C 
ATOM     16  C   UNL     1      34.401 -15.568 -22.283  0.00  0.00    +0.010 C 
ATOM     17  C   UNL     1      34.006 -15.700 -24.699  0.00  0.00    +0.121 C 
ATOM     18  C   UNL     1      34.571 -16.202 -23.528  0.00  0.00    +0.023 C 
ENDBRANCH   8  12
BRANCH   2  19
ATOM     19  S   UNL     1      31.085  -6.406 -24.526  0.00  0.00    +0.076 S 
ATOM     20  O   UNL     1      30.537  -5.282 -23.797  0.00  0.00    -0.152 OA
ATOM     21  O   UNL     1      30.353  -7.063 -25.588  0.00  0.00    -0.152 OA
BRANCH  19  24
ATOM     22 CL   UNL     1      37.857  -3.324 -27.501  0.00  0.00    -0.082 Cl
ATOM     23  N   UNL     1      32.629  -5.804 -26.695  0.00  0.00    -0.297 N 
ATOM     24  C   UNL     1      32.540  -5.758 -25.341  0.00  0.00    +0.173 C 
ATOM     25  C   UNL     1      33.661  -5.179 -24.833  0.00  0.00    +0.036 C 
ATOM     26  C   UNL     1      34.496  -4.848 -25.936  0.00  0.00    +0.017 C 
ATOM     27  C   UNL     1      33.826  -5.251 -27.093  0.00  0.00    +0.049 C 
ATOM     28  C   UNL     1      35.762  -4.243 -26.062  0.00  0.00    +0.013 C 
ATOM     29  C   UNL     1      34.360  -5.077 -28.375  0.00  0.00    +0.015 C 
ATOM     30  C   UNL     1      36.309  -4.063 -27.338  0.00  0.00    +0.058 C 
ATOM     31  C   UNL     1      35.617  -4.475 -28.476  0.00  0.00    +0.013 C 
ATOM     32  H   UNL     1      31.947  -6.176 -27.299  0.00  0.00    +0.153 HD
ENDBRANCH  19  24
ENDBRANCH   2  19
TORSDOF 3
ENDMDL
MODEL 4
REMARK VINA RESULT:      -9.9      4.235     10.755
REMARK  Name = 9547923
REMARK  3 active torsions:
REMARK  status: ('A' for Active; 'I' for Inactive)
REMARK    1  A    between atoms: N_2  and  S_19
REMARK    2  A    between atoms: C_8  and  C_12
REMARK    3  A    between atoms: S_19  and  C_24
REMARK                            x       y       z     vdW  Elec       q    Type
REMARK                         _______ _______ _______ _____ _____    ______ ____
ROOT
ATOM      1  O   UNL     1      33.473 -12.654 -24.920  0.00  0.00    -0.269 OA
ATOM      2  N   UNL     1      31.396 -10.443 -21.037  0.00  0.00    -0.151 NA
ATOM      3  N   UNL     1      32.230 -12.327 -22.995  0.00  0.00    -0.273 N 
ATOM      4  C   UNL     1      32.031  -9.978 -22.307  0.00  0.00    +0.117 C 
ATOM      5  C   UNL     1      31.905 -11.785 -20.619  0.00  0.00    +0.117 C 
ATOM      6  C   UNL     1      31.778 -11.000 -23.411  0.00  0.00    +0.113 C 
ATOM      7  C   UNL     1      31.641 -12.792 -21.732  0.00  0.00    +0.113 C 
ATOM      8  C   UNL     1      33.081 -13.074 -23.830  0.00  0.00    +0.255 C 
ENDROOT
BRANCH   8  12
ATOM      9  S   UNL     1      34.172 -14.523 -21.788  0.00  0.00    -0.081 S 
ATOM     10  O   UNL     1      33.607 -18.420 -24.739  0.00  0.00    -0.163 OA
ATOM     11  N   UNL     1      34.017 -18.043 -23.597  0.00  0.00    -0.128 N 
ATOM     12  C   UNL     1      33.499 -14.389 -23.357  0.00  0.00    +0.085 C 
ATOM     13  C   UNL     1      33.431 -15.595 -24.014  0.00  0.00    +0.032 C 
ATOM     14  C   UNL     1      33.943 -16.631 -23.201  0.00  0.00    +0.109 C 
ATOM     15  C   UNL     1      34.388 -16.218 -21.957  0.00  0.00    +0.049 C 
ATOM     16  C   UNL     1      34.917 -17.165 -21.067  0.00  0.00    +0.010 C 
ATOM     17  C   UNL     1      34.537 -18.947 -22.708  0.00  0.00    +0.121 C 
ATOM     18  C   UNL     1      34.982 -18.515 -21.459  0.00  0.00    +0.023 C 
ENDBRANCH   8  12
BRANCH   2  19
ATOM     19  S   UNL     1      31.307  -9.272 -19.790  0.00  0.00    +0.076 S 
ATOM     20  O   UNL     1      32.551  -9.294 -19.050  0.00  0.00    -0.152 OA
ATOM     21  O   UNL     1      30.021  -9.375 -19.134  0.00  0.00    -0.152 OA
BRANCH  19  24
ATOM     22 CL   UNL     1      31.405  -1.786 -22.645  0.00  0.00    -0.082 Cl
ATOM     23  N   UNL     1      30.794  -7.539 -21.836  0.00  0.00    -0.297 N 
ATOM     24  C   UNL     1      31.266  -7.662 -20.569  0.00  0.00    +0.173 C 
ATOM     25  C   UNL     1      31.642  -6.439 -20.105  0.00  0.00    +0.036 C 
ATOM     26  C   UNL     1      31.389  -5.503 -21.145  0.00  0.00    +0.017 C 
ATOM     27  C   UNL     1      30.857  -6.218 -22.221  0.00  0.00    +0.049 C 
ATOM     28  C   UNL     1      31.561  -4.110 -21.277  0.00  0.00    +0.013 C 
ATOM     29  C   UNL     1      30.489  -5.608 -23.425  0.00  0.00    +0.015 C 
ATOM     30  C   UNL     1      31.197  -3.487 -22.476  0.00  0.00    +0.058 C 
ATOM     31  C   UNL     1      30.668  -4.227 -23.533  0.00  0.00    +0.013 C 
ATOM     32  H   UNL     1      30.460  -8.278 -22.394  0.00  0.00    +0.153 HD
ENDBRANCH  19  24
ENDBRANCH   2  19
TORSDOF 3
ENDMDL
MODEL 5
REMARK VINA RESULT:      -9.9      4.222     10.693
REMARK  Name = 9547923
REMARK  3 active torsions:
REMARK  status: ('A' for Active; 'I' for Inactive)
REMARK    1  A    between atoms: N_2  and  S_19
REMARK    2  A    between atoms: C_8  and  C_12
REMARK    3  A    between atoms: S_19  and  C_24
REMARK                            x       y       z     vdW  Elec       q    Type
REMARK                         _______ _______ _______ _____ _____    ______ ____
ROOT
ATOM      1  O   UNL     1      33.655 -12.626 -25.164  0.00  0.00    -0.269 OA
ATOM      2  N   UNL     1      31.436 -10.506 -21.308  0.00  0.00    -0.151 NA
ATOM      3  N   UNL     1      32.315 -12.334 -23.299  0.00  0.00    -0.273 N 
ATOM      4  C   UNL     1      32.162 -10.011 -22.517  0.00  0.00    +0.117 C 
ATOM      5  C   UNL     1      31.872 -11.883 -20.923  0.00  0.00    +0.117 C 
ATOM      6  C   UNL     1      31.936 -10.974 -23.679  0.00  0.00    +0.113 C 
ATOM      7  C   UNL     1      31.637 -12.830 -22.094  0.00  0.00    +0.113 C 
ATOM      8  C   UNL     1      33.185 -13.076 -24.117  0.00  0.00    +0.255 C 
ENDROOT
BRANCH   8  12
ATOM      9  S   UNL     1      33.397 -15.711 -24.806  0.00  0.00    -0.081 S 
ATOM     10  O   UNL     1      34.885 -16.426 -20.171  0.00  0.00    -0.163 OA
ATOM     11  N   UNL     1      34.647 -17.004 -21.277  0.00  0.00    -0.128 N 
ATOM     12  C   UNL     1      33.527 -14.426 -23.682  0.00  0.00    +0.085 C 
ATOM     13  C   UNL     1      33.960 -14.841 -22.445  0.00  0.00    +0.032 C 
ATOM     14  C   UNL     1      34.181 -16.237 -22.439  0.00  0.00    +0.109 C 
ATOM     15  C   UNL     1      33.922 -16.863 -23.646  0.00  0.00    +0.049 C 
ATOM     16  C   UNL     1      34.108 -18.250 -23.755  0.00  0.00    +0.010 C 
ATOM     17  C   UNL     1      34.822 -18.356 -21.412  0.00  0.00    +0.121 C 
ATOM     18  C   UNL     1      34.555 -18.973 -22.634  0.00  0.00    +0.023 C 
ENDBRANCH   8  12
BRANCH   2  19
ATOM     19  S   UNL     1      31.317  -9.387 -20.016  0.00  0.00    +0.076 S 
ATOM     20  O   UNL     1      32.552  -9.424 -19.262  0.00  0.00    -0.152 OA
ATOM     21  O   UNL     1      30.025  -9.533 -19.381  0.00  0.00    -0.152 OA
BRANCH  19  24
ATOM     22 CL   UNL     1      31.371  -1.794 -22.574  0.00  0.00    -0.082 Cl
ATOM     23  N   UNL     1      30.776  -7.575 -21.985  0.00  0.00    -0.297 N 
ATOM     24  C   UNL     1      31.264  -7.748 -20.730  0.00  0.00    +0.173 C 
ATOM     25  C   UNL     1      31.645  -6.544 -20.223  0.00  0.00    +0.036 C 
ATOM     26  C   UNL     1      31.378  -5.567 -21.222  0.00  0.00    +0.017 C 
ATOM     27  C   UNL     1      30.833  -6.240 -22.318  0.00  0.00    +0.049 C 
ATOM     28  C   UNL     1      31.548  -4.171 -21.301  0.00  0.00    +0.013 C 
ATOM     29  C   UNL     1      30.447  -5.584 -23.492  0.00  0.00    +0.015 C 
ATOM     30  C   UNL     1      31.167  -3.501 -22.469  0.00  0.00    +0.058 C 
ATOM     31  C   UNL     1      30.625  -4.199 -23.547  0.00  0.00    +0.013 C 
ATOM     32  H   UNL     1      30.434  -8.292 -22.567  0.00  0.00    +0.153 HD
ENDBRANCH  19  24
ENDBRANCH   2  19
TORSDOF 3
ENDMDL
MODEL 6
REMARK VINA RESULT:      -9.5      5.524     11.927
REMARK  Name = 9547923
REMARK  3 active torsions:
REMARK  status: ('A' for Active; 'I' for Inactive)
REMARK    1  A    between atoms: N_2  and  S_19
REMARK    2  A    between atoms: C_8  and  C_12
REMARK    3  A    between atoms: S_19  and  C_24
REMARK                            x       y       z     vdW  Elec       q    Type
REMARK                         _______ _______ _______ _____ _____    ______ ____
ROOT
ATOM      1  O   UNL     1      31.780 -22.349 -18.232  0.00  0.00    -0.269 OA
ATOM      2  N   UNL     1      34.411 -19.283 -21.053  0.00  0.00    -0.151 NA
ATOM      3  N   UNL     1      33.336 -20.761 -18.876  0.00  0.00    -0.273 N 
ATOM      4  C   UNL     1      33.126 -20.030 -21.212  0.00  0.00    +0.117 C 
ATOM      5  C   UNL     1      35.323 -19.947 -20.073  0.00  0.00    +0.117 C 
ATOM      6  C   UNL     1      32.437 -20.154 -19.857  0.00  0.00    +0.113 C 
ATOM      7  C   UNL     1      34.618 -20.060 -18.726  0.00  0.00    +0.113 C 
ATOM      8  C   UNL     1      32.905 -21.860 -18.113  0.00  0.00    +0.255 C 
ENDROOT
BRANCH   8  12
ATOM      9  S   UNL     1      33.304 -23.633 -16.073  0.00  0.00    -0.081 S 
ATOM     10  O   UNL     1      37.944 -21.995 -16.044  0.00  0.00    -0.163 OA
ATOM     11  N   UNL     1      37.133 -22.802 -15.493  0.00  0.00    -0.128 N 
ATOM     12  C   UNL     1      33.850 -22.421 -17.154  0.00  0.00    +0.085 C 
ATOM     13  C   UNL     1      35.177 -22.109 -16.979  0.00  0.00    +0.032 C 
ATOM     14  C   UNL     1      35.736 -22.885 -15.939  0.00  0.00    +0.109 C 
ATOM     15  C   UNL     1      34.851 -23.766 -15.341  0.00  0.00    +0.049 C 
ATOM     16  C   UNL     1      35.299 -24.587 -14.295  0.00  0.00    +0.010 C 
ATOM     17  C   UNL     1      37.544 -23.617 -14.471  0.00  0.00    +0.121 C 
ATOM     18  C   UNL     1      36.640 -24.498 -13.878  0.00  0.00    +0.023 C 
ENDBRANCH   8  12
BRANCH   2  19
ATOM     19  S   UNL     1      35.149 -18.776 -22.514  0.00  0.00    +0.076 S 
ATOM     20  O   UNL     1      34.603 -19.560 -23.601  0.00  0.00    -0.152 OA
ATOM     21  O   UNL     1      36.575 -18.644 -22.304  0.00  0.00    -0.152 OA
BRANCH  19  24
ATOM     22 CL   UNL     1      32.913 -11.118 -23.265  0.00  0.00    -0.082 Cl
ATOM     23  N   UNL     1      34.078 -16.789 -24.049  0.00  0.00    -0.297 N 
ATOM     24  C   UNL     1      34.604 -17.103 -22.837  0.00  0.00    +0.173 C 
ATOM     25  C   UNL     1      34.611 -15.997 -22.046  0.00  0.00    +0.036 C 
ATOM     26  C   UNL     1      34.057 -14.933 -22.811  0.00  0.00    +0.017 C 
ATOM     27  C   UNL     1      33.731 -15.456 -24.065  0.00  0.00    +0.049 C 
ATOM     28  C   UNL     1      33.800 -13.570 -22.558  0.00  0.00    +0.013 C 
ATOM     29  C   UNL     1      33.159 -14.682 -25.081  0.00  0.00    +0.015 C 
ATOM     30  C   UNL     1      33.229 -12.784 -23.566  0.00  0.00    +0.058 C 
ATOM     31  C   UNL     1      32.914 -13.334 -24.807  0.00  0.00    +0.013 C 
ATOM     32  H   UNL     1      33.963 -17.415 -24.800  0.00  0.00    +0.153 HD
ENDBRANCH  19  24
ENDBRANCH   2  19
TORSDOF 3
ENDMDL
MODEL 7
REMARK VINA RESULT:      -9.5      5.938     12.338
REMARK  Name = 9547923
REMARK  3 active torsions:
REMARK  status: ('A' for Active; 'I' for Inactive)
REMARK    1  A    between atoms: N_2  and  S_19
REMARK    2  A    between atoms: C_8  and  C_12
REMARK    3  A    between atoms: S_19  and  C_24
REMARK                            x       y       z     vdW  Elec       q    Type
REMARK                         _______ _______ _______ _____ _____    ______ ____
ROOT
ATOM      1  O   UNL     1      32.194 -23.005 -17.713  0.00  0.00    -0.269 OA
ATOM      2  N   UNL     1      34.653 -19.654 -20.359  0.00  0.00    -0.151 NA
ATOM      3  N   UNL     1      33.629 -21.273 -18.259  0.00  0.00    -0.273 N 
ATOM      4  C   UNL     1      33.446 -20.505 -20.585  0.00  0.00    +0.117 C 
ATOM      5  C   UNL     1      35.582 -20.262 -19.358  0.00  0.00    +0.117 C 
ATOM      6  C   UNL     1      32.718 -20.722 -19.262  0.00  0.00    +0.113 C 
ATOM      7  C   UNL     1      34.839 -20.469 -18.043  0.00  0.00    +0.113 C 
ATOM      8  C   UNL     1      33.267 -22.424 -17.538  0.00  0.00    +0.255 C 
ENDROOT
BRANCH   8  12
ATOM      9  S   UNL     1      33.654 -23.963 -15.314  0.00  0.00    -0.081 S 
ATOM     10  O   UNL     1      38.378 -22.633 -15.662  0.00  0.00    -0.163 OA
ATOM     11  N   UNL     1      37.547 -23.315 -14.986  0.00  0.00    -0.128 N 
ATOM     12  C   UNL     1      34.220 -22.926 -16.554  0.00  0.00    +0.085 C 
ATOM     13  C   UNL     1      35.570 -22.681 -16.469  0.00  0.00    +0.032 C 
ATOM     14  C   UNL     1      36.129 -23.361 -15.365  0.00  0.00    +0.109 C 
ATOM     15  C   UNL     1      35.222 -24.106 -14.630  0.00  0.00    +0.049 C 
ATOM     16  C   UNL     1      35.668 -24.823 -13.510  0.00  0.00    +0.010 C 
ATOM     17  C   UNL     1      37.956 -24.026 -13.889  0.00  0.00    +0.121 C 
ATOM     18  C   UNL     1      37.030 -24.770 -13.158  0.00  0.00    +0.023 C 
ENDBRANCH   8  12
BRANCH   2  19
ATOM     19  S   UNL     1      35.399 -19.049 -21.778  0.00  0.00    +0.076 S 
ATOM     20  O   UNL     1      34.854 -19.752 -22.919  0.00  0.00    -0.152 OA
ATOM     21  O   UNL     1      36.825 -18.939 -21.553  0.00  0.00    -0.152 OA
BRANCH  19  24
ATOM     22 CL   UNL     1      33.059 -11.568 -23.438  0.00  0.00    -0.082 Cl
ATOM     23  N   UNL     1      34.593 -16.596 -20.891  0.00  0.00    -0.297 N 
ATOM     24  C   UNL     1      34.863 -17.355 -21.984  0.00  0.00    +0.173 C 
ATOM     25  C   UNL     1      34.658 -16.618 -23.109  0.00  0.00    +0.036 C 
ATOM     26  C   UNL     1      34.236 -15.325 -22.690  0.00  0.00    +0.017 C 
ATOM     27  C   UNL     1      34.203 -15.338 -21.293  0.00  0.00    +0.049 C 
ATOM     28  C   UNL     1      33.876 -14.142 -23.365  0.00  0.00    +0.013 C 
ATOM     29  C   UNL     1      33.828 -14.223 -20.536  0.00  0.00    +0.015 C 
ATOM     30  C   UNL     1      33.499 -13.018 -22.620  0.00  0.00    +0.058 C 
ATOM     31  C   UNL     1      33.476 -13.060 -21.227  0.00  0.00    +0.013 C 
ATOM     32  H   UNL     1      34.664 -16.898 -19.956  0.00  0.00    +0.153 HD
ENDBRANCH  19  24
ENDBRANCH   2  19
TORSDOF 3
ENDMDL
MODEL 8
REMARK VINA RESULT:      -9.2      3.262      5.582
REMARK  Name = 9547923
REMARK  3 active torsions:
REMARK  status: ('A' for Active; 'I' for Inactive)
REMARK    1  A    between atoms: N_2  and  S_19
REMARK    2  A    between atoms: C_8  and  C_12
REMARK    3  A    between atoms: S_19  and  C_24
REMARK                            x       y       z     vdW  Elec       q    Type
REMARK                         _______ _______ _______ _____ _____    ______ ____
ROOT
ATOM      1  O   UNL     1      34.767  -7.015 -25.483  0.00  0.00    -0.269 OA
ATOM      2  N   UNL     1      32.191  -9.369 -22.004  0.00  0.00    -0.151 NA
ATOM      3  N   UNL     1      33.416  -7.396 -23.643  0.00  0.00    -0.273 N 
ATOM      4  C   UNL     1      33.264  -9.754 -22.972  0.00  0.00    +0.117 C 
ATOM      5  C   UNL     1      31.398  -8.199 -22.489  0.00  0.00    +0.117 C 
ATOM      6  C   UNL     1      34.185  -8.562 -23.213  0.00  0.00    +0.113 C 
ATOM      7  C   UNL     1      32.335  -7.019 -22.722  0.00  0.00    +0.113 C 
ATOM      8  C   UNL     1      33.794  -6.691 -24.799  0.00  0.00    +0.255 C 
ENDROOT
BRANCH   8  12
ATOM      9  S   UNL     1      33.129  -4.916 -26.766  0.00  0.00    -0.081 S 
ATOM     10  O   UNL     1      30.073  -2.947 -23.450  0.00  0.00    -0.163 OA
ATOM     11  N   UNL     1      30.498  -2.852 -24.643  0.00  0.00    -0.128 N 
ATOM     12  C   UNL     1      32.984  -5.539 -25.177  0.00  0.00    +0.085 C 
ATOM     13  C   UNL     1      32.077  -4.843 -24.413  0.00  0.00    +0.032 C 
ATOM     14  C   UNL     1      31.504  -3.789 -25.159  0.00  0.00    +0.109 C 
ATOM     15  C   UNL     1      31.967  -3.689 -26.459  0.00  0.00    +0.049 C 
ATOM     16  C   UNL     1      31.466  -2.677 -27.292  0.00  0.00    +0.010 C 
ATOM     17  C   UNL     1      30.025  -1.874 -25.478  0.00  0.00    +0.121 C 
ATOM     18  C   UNL     1      30.502  -1.786 -26.785  0.00  0.00    +0.023 C 
ENDBRANCH   8  12
BRANCH   2  19
ATOM     19  S   UNL     1      31.269 -10.670 -21.378  0.00  0.00    +0.076 S 
ATOM     20  O   UNL     1      30.061 -10.797 -22.165  0.00  0.00    -0.152 OA
ATOM     21  O   UNL     1      31.238 -10.577 -19.934  0.00  0.00    -0.152 OA
BRANCH  19  24
ATOM     22 CL   UNL     1      35.500 -17.440 -22.065  0.00  0.00    -0.082 Cl
ATOM     23  N   UNL     1      32.284 -12.646 -22.964  0.00  0.00    -0.297 N 
ATOM     24  C   UNL     1      32.182 -12.176 -21.695  0.00  0.00    +0.173 C 
ATOM     25  C   UNL     1      32.849 -13.006 -20.848  0.00  0.00    +0.036 C 
ATOM     26  C   UNL     1      33.397 -14.055 -21.638  0.00  0.00    +0.017 C 
ATOM     27  C   UNL     1      33.028 -13.806 -22.963  0.00  0.00    +0.049 C 
ATOM     28  C   UNL     1      34.173 -15.196 -21.355  0.00  0.00    +0.013 C 
ATOM     29  C   UNL     1      33.399 -14.644 -24.020  0.00  0.00    +0.015 C 
ATOM     30  C   UNL     1      34.551 -16.043 -22.403  0.00  0.00    +0.058 C 
ATOM     31  C   UNL     1      34.169 -15.769 -23.715  0.00  0.00    +0.013 C 
ATOM     32  H   UNL     1      31.889 -12.226 -23.761  0.00  0.00    +0.153 HD
ENDBRANCH  19  24
ENDBRANCH   2  19
TORSDOF 3
ENDMDL
MODEL 9
REMARK VINA RESULT:      -8.6      4.148      6.766
REMARK  Name = 9547923
REMARK  3 active torsions:
REMARK  status: ('A' for Active; 'I' for Inactive)
REMARK    1  A    between atoms: N_2  and  S_19
REMARK    2  A    between atoms: C_8  and  C_12
REMARK    3  A    between atoms: S_19  and  C_24
REMARK                            x       y       z     vdW  Elec       q    Type
REMARK                         _______ _______ _______ _____ _____    ______ ____
ROOT
ATOM      1  O   UNL     1      31.063  -3.722 -24.253  0.00  0.00    -0.269 OA
ATOM      2  N   UNL     1      30.976  -8.188 -22.172  0.00  0.00    -0.151 NA
ATOM      3  N   UNL     1      31.160  -6.021 -24.002  0.00  0.00    -0.273 N 
ATOM      4  C   UNL     1      30.520  -6.822 -21.770  0.00  0.00    +0.117 C 
ATOM      5  C   UNL     1      32.097  -8.132 -23.159  0.00  0.00    +0.117 C 
ATOM      6  C   UNL     1      30.087  -6.043 -23.009  0.00  0.00    +0.113 C 
ATOM      7  C   UNL     1      31.646  -7.352 -24.389  0.00  0.00    +0.113 C 
ATOM      8  C   UNL     1      31.573  -4.800 -24.564  0.00  0.00    +0.255 C 
ENDROOT
BRANCH   8  12
ATOM      9  S   UNL     1      34.238  -4.446 -25.046  0.00  0.00    -0.081 S 
ATOM     10  O   UNL     1      33.198  -5.732 -29.680  0.00  0.00    -0.163 OA
ATOM     11  N   UNL     1      34.131  -5.380 -28.894  0.00  0.00    -0.128 N 
ATOM     12  C   UNL     1      32.649  -4.844 -25.547  0.00  0.00    +0.085 C 
ATOM     13  C   UNL     1      32.577  -5.174 -26.880  0.00  0.00    +0.032 C 
ATOM     14  C   UNL     1      33.853  -5.093 -27.481  0.00  0.00    +0.109 C 
ATOM     15  C   UNL     1      34.869  -4.710 -26.621  0.00  0.00    +0.049 C 
ATOM     16  C   UNL     1      36.179  -4.596 -27.112  0.00  0.00    +0.010 C 
ATOM     17  C   UNL     1      35.419  -5.262 -29.346  0.00  0.00    +0.121 C 
ATOM     18  C   UNL     1      36.431  -4.875 -28.468  0.00  0.00    +0.023 C 
ENDBRANCH   8  12
BRANCH   2  19
ATOM     19  S   UNL     1      31.188  -9.297 -20.884  0.00  0.00    +0.076 S 
ATOM     20  O   UNL     1      29.883  -9.711 -20.414  0.00  0.00    -0.152 OA
ATOM     21  O   UNL     1      32.203  -8.791 -19.985  0.00  0.00    -0.152 OA
BRANCH  19  24
ATOM     22 CL   UNL     1      34.314 -15.656 -24.626  0.00  0.00    -0.082 Cl
ATOM     23  N   UNL     1      32.394 -11.742 -20.737  0.00  0.00    -0.297 N 
ATOM     24  C   UNL     1      31.919 -10.780 -21.569  0.00  0.00    +0.173 C 
ATOM     25  C   UNL     1      32.106 -11.164 -22.860  0.00  0.00    +0.036 C 
ATOM     26  C   UNL     1      32.734 -12.440 -22.829  0.00  0.00    +0.017 C 
ATOM     27  C   UNL     1      32.904 -12.781 -21.484  0.00  0.00    +0.049 C 
ATOM     28  C   UNL     1      33.177 -13.342 -23.817  0.00  0.00    +0.013 C 
ATOM     29  C   UNL     1      33.495 -13.982 -21.078  0.00  0.00    +0.015 C 
ATOM     30  C   UNL     1      33.771 -14.548 -23.425  0.00  0.00    +0.058 C 
ATOM     31  C   UNL     1      33.926 -14.861 -22.075  0.00  0.00    +0.013 C 
ATOM     32  H   UNL     1      32.377 -11.705 -19.754  0.00  0.00    +0.153 HD
ENDBRANCH  19  24
ENDBRANCH   2  19
TORSDOF 3
ENDMDL
