MODEL 1
REMARK VINA RESULT:     -12.5      0.000      0.000
REMARK  Name = 445952
REMARK  8 active torsions:
REMARK  status: ('A' for Active; 'I' for Inactive)
REMARK    1  A    between atoms: N_1  and  C_22
REMARK    2  A    between atoms: N_2  and  C_13
REMARK    3  A    between atoms: C_19  and  O_25
REMARK    4  A    between atoms: O_25  and  C_26
REMARK    5  A    between atoms: C_26  and  C_27
REMARK    6  A    between atoms: C_27  and  O_28
REMARK    7  A    between atoms: C_27  and  C_30
REMARK    8  A    between atoms: C_30  and  N_31
REMARK                            x       y       z     vdW  Elec       q    Type
REMARK                         _______ _______ _______ _____ _____    ______ ____
ROOT
ATOM      1  N   UNL     1      31.459 -22.256 -17.325  0.00  0.00    -0.247 N 
ATOM      2  N   UNL     1      34.289 -23.966 -13.945  0.00  0.00    -0.287 N 
ATOM      3  N   UNL     1      32.881 -23.097 -15.660  0.00  0.00    -0.322 NA
ATOM      4  N   UNL     1      30.490 -23.346 -15.487  0.00  0.00    -0.170 NA
ATOM      5  C   UNL     1      31.618 -22.932 -16.100  0.00  0.00    +0.150 C 
ATOM      6  C   UNL     1      32.996 -23.748 -14.483  0.00  0.00    +0.198 C 
ATOM      7  C   UNL     1      31.920 -24.220 -13.760  0.00  0.00    +0.070 C 
ATOM      8  C   UNL     1      30.679 -23.989 -14.316  0.00  0.00    +0.116 C 
ATOM      9  H   UNL     1      30.520 -22.158 -17.604  0.00  0.00    +0.165 HD
ATOM     10  H   UNL     1      34.285 -24.447 -13.087  0.00  0.00    +0.155 HD
ENDROOT
BRANCH   2  13
ATOM     11 CL   UNL     1      36.532 -25.881 -13.196  0.00  0.00    -0.081 Cl
ATOM     12 CL   UNL     1      37.205 -20.662 -16.546  0.00  0.00    -0.082 Cl
ATOM     13  C   UNL     1      35.574 -23.628 -14.401  0.00  0.00    +0.062 C 
ATOM     14  C   UNL     1      36.686 -24.430 -14.121  0.00  0.00    +0.071 C 
ATOM     15  C   UNL     1      35.742 -22.461 -15.154  0.00  0.00    +0.027 C 
ATOM     16  C   UNL     1      37.006 -22.100 -15.620  0.00  0.00    +0.059 C 
ATOM     17  C   UNL     1      37.950 -24.069 -14.586  0.00  0.00    +0.014 C 
ATOM     18  C   UNL     1      38.110 -22.904 -15.336  0.00  0.00    +0.012 C 
ENDBRANCH   2  13
BRANCH   1  22
ATOM     19  C   UNL     1      34.200 -20.575 -20.015  0.00  0.00    +0.139 C 
ATOM     20  C   UNL     1      34.629 -21.531 -19.101  0.00  0.00    +0.038 C 
ATOM     21  C   UNL     1      32.869 -20.172 -20.045  0.00  0.00    +0.038 C 
ATOM     22  C   UNL     1      32.381 -21.691 -18.231  0.00  0.00    +0.058 C 
ATOM     23  C   UNL     1      33.717 -22.090 -18.207  0.00  0.00    +0.018 C 
ATOM     24  C   UNL     1      31.958 -20.731 -19.151  0.00  0.00    +0.018 C 
BRANCH  19  25
ATOM     25  O   UNL     1      35.095 -20.026 -20.894  0.00  0.00    -0.473 OA
BRANCH  25  26
ATOM     26  C   UNL     1      34.582 -19.073 -21.820  0.00  0.00    +0.232 C 
BRANCH  26  27
ATOM     27  C   UNL     1      35.467 -17.829 -21.789  0.00  0.00    +0.133 C 
BRANCH  27  28
ATOM     28  O   UNL     1      36.382 -17.949 -20.695  0.00  0.00    -0.383 OA
ATOM     29  H   UNL     1      36.131 -18.707 -20.145  0.00  0.00    +0.210 HD
ENDBRANCH  27  28
BRANCH  27  30
ATOM     30  C   UNL     1      34.679 -16.529 -21.612  0.00  0.00    -0.044 C 
BRANCH  30  31
ATOM     31  N   UNL     1      34.760 -15.676 -22.790  0.00  0.00    +0.386 N 
ATOM     32  C   UNL     1      34.057 -14.412 -22.562  0.00  0.00    -0.101 C 
ATOM     33  C   UNL     1      34.206 -16.359 -23.962  0.00  0.00    -0.101 C 
ATOM     34  H   UNL     1      35.744 -15.474 -22.968  0.00  0.00    -0.080 HD
ENDBRANCH  30  31
ENDBRANCH  27  30
ENDBRANCH  26  27
ENDBRANCH  25  26
ENDBRANCH  19  25
ENDBRANCH   1  22
TORSDOF 8
ENDMDL
MODEL 2
REMARK VINA RESULT:     -10.5      1.155      2.042
REMARK  Name = 445952
REMARK  8 active torsions:
REMARK  status: ('A' for Active; 'I' for Inactive)
REMARK    1  A    between atoms: N_1  and  C_22
REMARK    2  A    between atoms: N_2  and  C_13
REMARK    3  A    between atoms: C_19  and  O_25
REMARK    4  A    between atoms: O_25  and  C_26
REMARK    5  A    between atoms: C_26  and  C_27
REMARK    6  A    between atoms: C_27  and  O_28
REMARK    7  A    between atoms: C_27  and  C_30
REMARK    8  A    between atoms: C_30  and  N_31
REMARK                            x       y       z     vdW  Elec       q    Type
REMARK                         _______ _______ _______ _____ _____    ______ ____
ROOT
ATOM      1  N   UNL     1      31.539 -22.213 -17.363  0.00  0.00    -0.247 N 
ATOM      2  N   UNL     1      33.866 -24.334 -13.836  0.00  0.00    -0.287 N 
ATOM      3  N   UNL     1      32.714 -23.260 -15.623  0.00  0.00    -0.322 NA
ATOM      4  N   UNL     1      30.304 -23.236 -15.651  0.00  0.00    -0.170 NA
ATOM      5  C   UNL     1      31.518 -22.937 -16.155  0.00  0.00    +0.150 C 
ATOM      6  C   UNL     1      32.656 -23.953 -14.466  0.00  0.00    +0.198 C 
ATOM      7  C   UNL     1      31.477 -24.319 -13.850  0.00  0.00    +0.070 C 
ATOM      8  C   UNL     1      30.321 -23.931 -14.493  0.00  0.00    +0.116 C 
ATOM      9  H   UNL     1      30.644 -21.999 -17.712  0.00  0.00    +0.165 HD
ATOM     10  H   UNL     1      33.737 -24.836 -13.000  0.00  0.00    +0.155 HD
ENDROOT
BRANCH   2  13
ATOM     11 CL   UNL     1      34.650 -21.506 -14.643  0.00  0.00    -0.081 Cl
ATOM     12 CL   UNL     1      38.518 -26.392 -14.385  0.00  0.00    -0.082 Cl
ATOM     13  C   UNL     1      35.215 -24.134 -14.175  0.00  0.00    +0.062 C 
ATOM     14  C   UNL     1      35.696 -22.878 -14.562  0.00  0.00    +0.071 C 
ATOM     15  C   UNL     1      36.096 -25.220 -14.122  0.00  0.00    +0.027 C 
ATOM     16  C   UNL     1      37.441 -25.052 -14.453  0.00  0.00    +0.059 C 
ATOM     17  C   UNL     1      37.040 -22.710 -14.893  0.00  0.00    +0.014 C 
ATOM     18  C   UNL     1      37.912 -23.797 -14.839  0.00  0.00    +0.012 C 
ENDBRANCH   2  13
BRANCH   1  22
ATOM     19  C   UNL     1      34.666 -20.782 -19.760  0.00  0.00    +0.139 C 
ATOM     20  C   UNL     1      34.938 -21.685 -18.738  0.00  0.00    +0.038 C 
ATOM     21  C   UNL     1      33.365 -20.350 -19.995  0.00  0.00    +0.038 C 
ATOM     22  C   UNL     1      32.591 -21.732 -18.170  0.00  0.00    +0.058 C 
ATOM     23  C   UNL     1      33.898 -22.161 -17.941  0.00  0.00    +0.018 C 
ATOM     24  C   UNL     1      32.325 -20.826 -19.197  0.00  0.00    +0.018 C 
BRANCH  19  25
ATOM     25  O   UNL     1      35.688 -20.315 -20.544  0.00  0.00    -0.473 OA
BRANCH  25  26
ATOM     26  C   UNL     1      36.012 -18.934 -20.418  0.00  0.00    +0.232 C 
BRANCH  26  27
ATOM     27  C   UNL     1      36.145 -18.329 -21.814  0.00  0.00    +0.133 C 
BRANCH  27  28
ATOM     28  O   UNL     1      37.510 -17.951 -22.018  0.00  0.00    -0.383 OA
ATOM     29  H   UNL     1      37.792 -17.361 -21.301  0.00  0.00    +0.210 HD
ENDBRANCH  27  28
BRANCH  27  30
ATOM     30  C   UNL     1      35.270 -17.091 -22.024  0.00  0.00    -0.044 C 
BRANCH  30  31
ATOM     31  N   UNL     1      34.139 -17.363 -22.900  0.00  0.00    +0.386 N 
ATOM     32  C   UNL     1      34.159 -18.755 -23.354  0.00  0.00    -0.101 C 
ATOM     33  C   UNL     1      34.147 -16.455 -24.050  0.00  0.00    -0.101 C 
ATOM     34  H   UNL     1      33.283 -17.206 -22.369  0.00  0.00    -0.080 HD
ENDBRANCH  30  31
ENDBRANCH  27  30
ENDBRANCH  26  27
ENDBRANCH  25  26
ENDBRANCH  19  25
ENDBRANCH   1  22
TORSDOF 8
ENDMDL
MODEL 3
REMARK VINA RESULT:     -10.3      2.522      4.723
REMARK  Name = 445952
REMARK  8 active torsions:
REMARK  status: ('A' for Active; 'I' for Inactive)
REMARK    1  A    between atoms: N_1  and  C_22
REMARK    2  A    between atoms: N_2  and  C_13
REMARK    3  A    between atoms: C_19  and  O_25
REMARK    4  A    between atoms: O_25  and  C_26
REMARK    5  A    between atoms: C_26  and  C_27
REMARK    6  A    between atoms: C_27  and  O_28
REMARK    7  A    between atoms: C_27  and  C_30
REMARK    8  A    between atoms: C_30  and  N_31
REMARK                            x       y       z     vdW  Elec       q    Type
REMARK                         _______ _______ _______ _____ _____    ______ ____
ROOT
ATOM      1  N   UNL     1      37.011 -22.479 -14.277  0.00  0.00    -0.247 N 
ATOM      2  N   UNL     1      32.795 -24.012 -12.786  0.00  0.00    -0.287 N 
ATOM      3  N   UNL     1      34.910 -23.231 -13.556  0.00  0.00    -0.322 NA
ATOM      4  N   UNL     1      36.868 -23.524 -12.182  0.00  0.00    -0.170 NA
ATOM      5  C   UNL     1      36.226 -23.107 -13.292  0.00  0.00    +0.150 C 
ATOM      6  C   UNL     1      34.188 -23.839 -12.591  0.00  0.00    +0.198 C 
ATOM      7  C   UNL     1      34.727 -24.309 -11.411  0.00  0.00    +0.070 C 
ATOM      8  C   UNL     1      36.085 -24.122 -11.259  0.00  0.00    +0.116 C 
ATOM      9  H   UNL     1      37.965 -22.412 -14.040  0.00  0.00    +0.165 HD
ATOM     10  H   UNL     1      32.343 -24.462 -12.036  0.00  0.00    +0.155 HD
ENDROOT
BRANCH   2  13
ATOM     11 CL   UNL     1      29.818 -24.384 -12.278  0.00  0.00    -0.081 Cl
ATOM     12 CL   UNL     1      32.341 -22.232 -17.561  0.00  0.00    -0.082 Cl
ATOM     13  C   UNL     1      31.935 -23.665 -13.841  0.00  0.00    +0.062 C 
ATOM     14  C   UNL     1      30.546 -23.792 -13.728  0.00  0.00    +0.071 C 
ATOM     15  C   UNL     1      32.485 -23.180 -15.033  0.00  0.00    +0.027 C 
ATOM     16  C   UNL     1      31.656 -22.827 -16.098  0.00  0.00    +0.059 C 
ATOM     17  C   UNL     1      29.718 -23.440 -14.792  0.00  0.00    +0.014 C 
ATOM     18  C   UNL     1      30.273 -22.957 -15.978  0.00  0.00    +0.012 C 
ENDBRANCH   2  13
BRANCH   1  22
ATOM     19  C   UNL     1      36.090 -20.836 -18.022  0.00  0.00    +0.139 C 
ATOM     20  C   UNL     1      35.414 -21.968 -17.580  0.00  0.00    +0.038 C 
ATOM     21  C   UNL     1      37.070 -20.244 -17.232  0.00  0.00    +0.038 C 
ATOM     22  C   UNL     1      36.701 -21.926 -15.537  0.00  0.00    +0.058 C 
ATOM     23  C   UNL     1      35.720 -22.513 -16.334  0.00  0.00    +0.018 C 
ATOM     24  C   UNL     1      37.376 -20.790 -15.986  0.00  0.00    +0.018 C 
BRANCH  19  25
ATOM     25  O   UNL     1      35.789 -20.299 -19.246  0.00  0.00    -0.473 OA
BRANCH  25  26
ATOM     26  C   UNL     1      34.652 -20.833 -19.917  0.00  0.00    +0.232 C 
BRANCH  26  27
ATOM     27  C   UNL     1      33.725 -19.684 -20.306  0.00  0.00    +0.133 C 
BRANCH  27  28
ATOM     28  O   UNL     1      32.447 -20.228 -20.652  0.00  0.00    -0.383 OA
ATOM     29  H   UNL     1      32.278 -20.081 -21.596  0.00  0.00    +0.210 HD
ENDBRANCH  27  28
BRANCH  27  30
ATOM     30  C   UNL     1      34.235 -18.870 -21.497  0.00  0.00    -0.044 C 
BRANCH  30  31
ATOM     31  N   UNL     1      35.196 -17.853 -21.093  0.00  0.00    +0.386 N 
ATOM     32  C   UNL     1      34.693 -16.514 -21.408  0.00  0.00    -0.101 C 
ATOM     33  C   UNL     1      36.489 -18.074 -21.745  0.00  0.00    -0.101 C 
ATOM     34  H   UNL     1      35.325 -17.923 -20.084  0.00  0.00    -0.080 HD
ENDBRANCH  30  31
ENDBRANCH  27  30
ENDBRANCH  26  27
ENDBRANCH  25  26
ENDBRANCH  19  25
ENDBRANCH   1  22
TORSDOF 8
ENDMDL
MODEL 4
REMARK VINA RESULT:      -9.6      3.731      8.397
REMARK  Name = 445952
REMARK  8 active torsions:
REMARK  status: ('A' for Active; 'I' for Inactive)
REMARK    1  A    between atoms: N_1  and  C_22
REMARK    2  A    between atoms: N_2  and  C_13
REMARK    3  A    between atoms: C_19  and  O_25
REMARK    4  A    between atoms: O_25  and  C_26
REMARK    5  A    between atoms: C_26  and  C_27
REMARK    6  A    between atoms: C_27  and  O_28
REMARK    7  A    between atoms: C_27  and  C_30
REMARK    8  A    between atoms: C_30  and  N_31
REMARK                            x       y       z     vdW  Elec       q    Type
REMARK                         _______ _______ _______ _____ _____    ______ ____
ROOT
ATOM      1  N   UNL     1      35.957 -21.291 -17.878  0.00  0.00    -0.247 N 
ATOM      2  N   UNL     1      31.282 -21.979 -17.708  0.00  0.00    -0.287 N 
ATOM      3  N   UNL     1      33.639 -21.641 -17.773  0.00  0.00    -0.322 NA
ATOM      4  N   UNL     1      34.664 -20.718 -19.749  0.00  0.00    -0.170 NA
ATOM      5  C   UNL     1      34.694 -21.214 -18.496  0.00  0.00    +0.150 C 
ATOM      6  C   UNL     1      32.445 -21.552 -18.395  0.00  0.00    +0.198 C 
ATOM      7  C   UNL     1      32.282 -21.063 -19.675  0.00  0.00    +0.070 C 
ATOM      8  C   UNL     1      33.438 -20.658 -20.311  0.00  0.00    +0.116 C 
ATOM      9  H   UNL     1      36.695 -20.967 -18.443  0.00  0.00    +0.165 HD
ATOM     10  H   UNL     1      30.454 -21.882 -18.231  0.00  0.00    +0.155 HD
ENDROOT
BRANCH   2  13
ATOM     11 CL   UNL     1      28.409 -22.052 -16.708  0.00  0.00    -0.081 Cl
ATOM     12 CL   UNL     1      33.389 -24.072 -13.542  0.00  0.00    -0.082 Cl
ATOM     13  C   UNL     1      31.083 -22.515 -16.425  0.00  0.00    +0.062 C 
ATOM     14  C   UNL     1      29.807 -22.602 -15.856  0.00  0.00    +0.071 C 
ATOM     15  C   UNL     1      32.189 -22.973 -15.702  0.00  0.00    +0.027 C 
ATOM     16  C   UNL     1      32.022 -23.511 -14.425  0.00  0.00    +0.059 C 
ATOM     17  C   UNL     1      29.640 -23.139 -14.581  0.00  0.00    +0.014 C 
ATOM     18  C   UNL     1      30.748 -23.594 -13.865  0.00  0.00    +0.012 C 
ENDBRANCH   2  13
BRANCH   1  22
ATOM     19  C   UNL     1      37.191 -22.633 -14.103  0.00  0.00    +0.139 C 
ATOM     20  C   UNL     1      38.062 -22.719 -15.184  0.00  0.00    +0.038 C 
ATOM     21  C   UNL     1      35.914 -22.105 -14.263  0.00  0.00    +0.038 C 
ATOM     22  C   UNL     1      36.372 -21.742 -16.607  0.00  0.00    +0.058 C 
ATOM     23  C   UNL     1      37.651 -22.272 -16.439  0.00  0.00    +0.018 C 
ATOM     24  C   UNL     1      35.504 -21.659 -15.519  0.00  0.00    +0.018 C 
BRANCH  19  25
ATOM     25  O   UNL     1      37.595 -23.071 -12.869  0.00  0.00    -0.473 OA
BRANCH  25  26
ATOM     26  C   UNL     1      36.569 -23.338 -11.918  0.00  0.00    +0.232 C 
BRANCH  26  27
ATOM     27  C   UNL     1      36.276 -24.836 -11.915  0.00  0.00    +0.133 C 
BRANCH  27  28
ATOM     28  O   UNL     1      35.659 -25.178 -10.671  0.00  0.00    -0.383 OA
ATOM     29  H   UNL     1      36.318 -25.136  -9.960  0.00  0.00    +0.210 HD
ENDBRANCH  27  28
BRANCH  27  30
ATOM     30  C   UNL     1      37.530 -25.699 -12.079  0.00  0.00    -0.044 C 
BRANCH  30  31
ATOM     31  N   UNL     1      37.574 -26.361 -13.375  0.00  0.00    +0.386 N 
ATOM     32  C   UNL     1      38.754 -25.937 -14.132  0.00  0.00    -0.101 C 
ATOM     33  C   UNL     1      36.355 -26.083 -14.139  0.00  0.00    -0.101 C 
ATOM     34  H   UNL     1      37.634 -27.366 -13.215  0.00  0.00    -0.080 HD
ENDBRANCH  30  31
ENDBRANCH  27  30
ENDBRANCH  26  27
ENDBRANCH  25  26
ENDBRANCH  19  25
ENDBRANCH   1  22
TORSDOF 8
ENDMDL
