MODEL 1
REMARK VINA RESULT:     -11.4      0.000      0.000
REMARK  Name = 12195517
REMARK  2 active torsions:
REMARK  status: ('A' for Active; 'I' for Inactive)
REMARK    1  A    between atoms: C_4  and  C_8
REMARK    2  A    between atoms: C_5  and  C_14
REMARK                            x       y       z     vdW  Elec       q    Type
REMARK                         _______ _______ _______ _____ _____    ______ ____
ROOT
ATOM      1  N   UNL     1      35.365 -17.332 -22.770  0.00  0.00    -0.200 N 
ATOM      2  N   UNL     1      34.198 -17.365 -20.922  0.00  0.00    -0.333 NA
ATOM      3  N   UNL     1      35.546 -18.580 -22.315  0.00  0.00    -0.113 NA
ATOM      4  C   UNL     1      34.563 -16.616 -21.936  0.00  0.00    +0.211 C 
ATOM      5  C   UNL     1      34.820 -18.549 -21.196  0.00  0.00    +0.104 C 
ATOM      6  H   UNL     1      35.761 -16.979 -23.599  0.00  0.00    +0.178 HD
ENDROOT
BRANCH   4   8
ATOM      7  F   UNL     1      33.156 -11.309 -22.889  0.00  0.00    -0.204 F 
ATOM      8  C   UNL     1      34.200 -15.244 -22.181  0.00  0.00    +0.046 C 
ATOM      9  C   UNL     1      34.080 -14.776 -23.490  0.00  0.00    +0.006 C 
ATOM     10  C   UNL     1      33.966 -14.378 -21.111  0.00  0.00    +0.006 C 
ATOM     11  C   UNL     1      33.727 -13.448 -23.730  0.00  0.00    +0.030 C 
ATOM     12  C   UNL     1      33.613 -13.050 -21.349  0.00  0.00    +0.030 C 
ATOM     13  C   UNL     1      33.494 -12.585 -22.658  0.00  0.00    +0.140 C 
ENDBRANCH   4   8
BRANCH   5  14
ATOM     14  C   UNL     1      34.693 -19.684 -20.325  0.00  0.00    +0.075 C 
ATOM     15  C   UNL     1      35.824 -20.224 -19.712  0.00  0.00    +0.011 C 
ATOM     16  C   UNL     1      33.438 -20.247 -20.092  0.00  0.00    +0.011 C 
ATOM     17  C   UNL     1      35.700 -21.326 -18.866  0.00  0.00    +0.001 C 
ATOM     18  C   UNL     1      33.314 -21.349 -19.246  0.00  0.00    +0.001 C 
ATOM     19  C   UNL     1      34.446 -21.889 -18.633  0.00  0.00    +0.000 C 
ENDBRANCH   5  14
TORSDOF 2
ENDMDL
MODEL 2
REMARK VINA RESULT:     -11.3      1.009      1.664
REMARK  Name = 12195517
REMARK  2 active torsions:
REMARK  status: ('A' for Active; 'I' for Inactive)
REMARK    1  A    between atoms: C_4  and  C_8
REMARK    2  A    between atoms: C_5  and  C_14
REMARK                            x       y       z     vdW  Elec       q    Type
REMARK                         _______ _______ _______ _____ _____    ______ ____
ROOT
ATOM      1  N   UNL     1      36.023 -17.513 -22.275  0.00  0.00    -0.200 N 
ATOM      2  N   UNL     1      34.034 -17.913 -21.462  0.00  0.00    -0.333 NA
ATOM      3  N   UNL     1      36.214 -18.605 -21.522  0.00  0.00    -0.113 NA
ATOM      4  C   UNL     1      34.725 -17.108 -22.235  0.00  0.00    +0.211 C 
ATOM      5  C   UNL     1      34.981 -18.807 -21.052  0.00  0.00    +0.104 C 
ATOM      6  H   UNL     1      36.729 -17.062 -22.791  0.00  0.00    +0.178 HD
ENDROOT
BRANCH   4   8
ATOM      7  F   UNL     1      32.835 -12.667 -25.020  0.00  0.00    -0.204 F 
ATOM      8  C   UNL     1      34.237 -15.959 -22.954  0.00  0.00    +0.046 C 
ATOM      9  C   UNL     1      33.844 -16.085 -24.287  0.00  0.00    +0.006 C 
ATOM     10  C   UNL     1      34.155 -14.717 -22.320  0.00  0.00    +0.006 C 
ATOM     11  C   UNL     1      33.371 -14.973 -24.985  0.00  0.00    +0.030 C 
ATOM     12  C   UNL     1      33.682 -13.606 -23.017  0.00  0.00    +0.030 C 
ATOM     13  C   UNL     1      33.290 -13.734 -24.349  0.00  0.00    +0.140 C 
ENDBRANCH   4   8
BRANCH   5  14
ATOM     14  C   UNL     1      34.658 -19.892 -20.170  0.00  0.00    +0.075 C 
ATOM     15  C   UNL     1      33.333 -20.309 -20.032  0.00  0.00    +0.011 C 
ATOM     16  C   UNL     1      35.668 -20.531 -19.449  0.00  0.00    +0.011 C 
ATOM     17  C   UNL     1      33.020 -21.364 -19.174  0.00  0.00    +0.001 C 
ATOM     18  C   UNL     1      35.354 -21.585 -18.592  0.00  0.00    +0.001 C 
ATOM     19  C   UNL     1      34.029 -22.002 -18.454  0.00  0.00    +0.000 C 
ENDBRANCH   5  14
TORSDOF 2
ENDMDL
MODEL 3
REMARK VINA RESULT:     -10.8      2.951      7.190
REMARK  Name = 12195517
REMARK  2 active torsions:
REMARK  status: ('A' for Active; 'I' for Inactive)
REMARK    1  A    between atoms: C_4  and  C_8
REMARK    2  A    between atoms: C_5  and  C_14
REMARK                            x       y       z     vdW  Elec       q    Type
REMARK                         _______ _______ _______ _____ _____    ______ ____
ROOT
ATOM      1  N   UNL     1      35.025 -16.048 -23.187  0.00  0.00    -0.200 N 
ATOM      2  N   UNL     1      33.838 -15.470 -21.445  0.00  0.00    -0.333 NA
ATOM      3  N   UNL     1      34.578 -14.826 -23.512  0.00  0.00    -0.113 NA
ATOM      4  C   UNL     1      34.580 -16.424 -21.958  0.00  0.00    +0.211 C 
ATOM      5  C   UNL     1      33.866 -14.520 -22.426  0.00  0.00    +0.104 C 
ATOM      6  H   UNL     1      35.599 -16.602 -23.764  0.00  0.00    +0.178 HD
ENDROOT
BRANCH   4   8
ATOM      7  F   UNL     1      35.854 -21.324 -19.631  0.00  0.00    -0.204 F 
ATOM      8  C   UNL     1      34.909 -17.691 -21.357  0.00  0.00    +0.046 C 
ATOM      9  C   UNL     1      36.239 -18.009 -21.081  0.00  0.00    +0.006 C 
ATOM     10  C   UNL     1      33.898 -18.604 -21.048  0.00  0.00    +0.006 C 
ATOM     11  C   UNL     1      36.559 -19.236 -20.498  0.00  0.00    +0.030 C 
ATOM     12  C   UNL     1      34.217 -19.830 -20.465  0.00  0.00    +0.030 C 
ATOM     13  C   UNL     1      35.547 -20.146 -20.191  0.00  0.00    +0.140 C 
ENDBRANCH   4   8
BRANCH   5  14
ATOM     14  C   UNL     1      33.168 -13.274 -22.284  0.00  0.00    +0.075 C 
ATOM     15  C   UNL     1      32.325 -13.066 -21.191  0.00  0.00    +0.011 C 
ATOM     16  C   UNL     1      33.331 -12.270 -23.239  0.00  0.00    +0.011 C 
ATOM     17  C   UNL     1      31.647 -11.855 -21.054  0.00  0.00    +0.001 C 
ATOM     18  C   UNL     1      32.653 -11.059 -23.102  0.00  0.00    +0.001 C 
ATOM     19  C   UNL     1      31.810 -10.851 -22.009  0.00  0.00    +0.000 C 
ENDBRANCH   5  14
TORSDOF 2
ENDMDL
MODEL 4
REMARK VINA RESULT:     -10.7      3.181      7.169
REMARK  Name = 12195517
REMARK  2 active torsions:
REMARK  status: ('A' for Active; 'I' for Inactive)
REMARK    1  A    between atoms: C_4  and  C_8
REMARK    2  A    between atoms: C_5  and  C_14
REMARK                            x       y       z     vdW  Elec       q    Type
REMARK                         _______ _______ _______ _____ _____    ______ ____
ROOT
ATOM      1  N   UNL     1      35.948 -18.723 -21.461  0.00  0.00    -0.200 N 
ATOM      2  N   UNL     1      33.888 -17.993 -21.448  0.00  0.00    -0.333 NA
ATOM      3  N   UNL     1      36.000 -17.643 -22.254  0.00  0.00    -0.113 NA
ATOM      4  C   UNL     1      34.689 -18.924 -20.986  0.00  0.00    +0.211 C 
ATOM      5  C   UNL     1      34.729 -17.238 -22.213  0.00  0.00    +0.104 C 
ATOM      6  H   UNL     1      36.719 -19.297 -21.250  0.00  0.00    +0.178 HD
ENDROOT
BRANCH   4   8
ATOM      7  F   UNL     1      33.361 -23.136 -17.588  0.00  0.00    -0.204 F 
ATOM      8  C   UNL     1      34.345 -20.013 -20.109  0.00  0.00    +0.046 C 
ATOM      9  C   UNL     1      35.349 -20.727 -19.454  0.00  0.00    +0.006 C 
ATOM     10  C   UNL     1      33.006 -20.358 -19.910  0.00  0.00    +0.006 C 
ATOM     11  C   UNL     1      35.018 -21.782 -18.603  0.00  0.00    +0.030 C 
ATOM     12  C   UNL     1      32.673 -21.412 -19.059  0.00  0.00    +0.030 C 
ATOM     13  C   UNL     1      33.679 -22.124 -18.406  0.00  0.00    +0.140 C 
ENDBRANCH   4   8
BRANCH   5  14
ATOM     14  C   UNL     1      34.263 -16.081 -22.925  0.00  0.00    +0.075 C 
ATOM     15  C   UNL     1      34.176 -14.849 -22.275  0.00  0.00    +0.011 C 
ATOM     16  C   UNL     1      33.898 -16.188 -24.267  0.00  0.00    +0.011 C 
ATOM     17  C   UNL     1      33.723 -13.727 -22.967  0.00  0.00    +0.001 C 
ATOM     18  C   UNL     1      33.445 -15.065 -24.959  0.00  0.00    +0.001 C 
ATOM     19  C   UNL     1      33.357 -13.833 -24.309  0.00  0.00    +0.000 C 
ENDBRANCH   5  14
TORSDOF 2
ENDMDL
MODEL 5
REMARK VINA RESULT:     -10.7      3.209      7.163
REMARK  Name = 12195517
REMARK  2 active torsions:
REMARK  status: ('A' for Active; 'I' for Inactive)
REMARK    1  A    between atoms: C_4  and  C_8
REMARK    2  A    between atoms: C_5  and  C_14
REMARK                            x       y       z     vdW  Elec       q    Type
REMARK                         _______ _______ _______ _____ _____    ______ ____
ROOT
ATOM      1  N   UNL     1      35.876 -19.007 -21.545  0.00  0.00    -0.200 N 
ATOM      2  N   UNL     1      33.903 -18.093 -21.324  0.00  0.00    -0.333 NA
ATOM      3  N   UNL     1      35.936 -17.947 -22.364  0.00  0.00    -0.113 NA
ATOM      4  C   UNL     1      34.665 -19.086 -20.930  0.00  0.00    +0.211 C 
ATOM      5  C   UNL     1      34.719 -17.428 -22.195  0.00  0.00    +0.104 C 
ATOM      6  H   UNL     1      36.613 -19.645 -21.405  0.00  0.00    +0.178 HD
ENDROOT
BRANCH   4   8
ATOM      7  F   UNL     1      33.349 -23.115 -17.313  0.00  0.00    -0.204 F 
ATOM      8  C   UNL     1      34.325 -20.127 -19.995  0.00  0.00    +0.046 C 
ATOM      9  C   UNL     1      32.989 -20.468 -19.783  0.00  0.00    +0.006 C 
ATOM     10  C   UNL     1      35.332 -20.799 -19.298  0.00  0.00    +0.006 C 
ATOM     11  C   UNL     1      32.659 -21.476 -18.877  0.00  0.00    +0.030 C 
ATOM     12  C   UNL     1      35.003 -21.808 -18.392  0.00  0.00    +0.030 C 
ATOM     13  C   UNL     1      33.667 -22.146 -18.182  0.00  0.00    +0.140 C 
ENDBRANCH   4   8
BRANCH   5  14
ATOM     14  C   UNL     1      34.281 -16.244 -22.879  0.00  0.00    +0.075 C 
ATOM     15  C   UNL     1      34.255 -15.020 -22.210  0.00  0.00    +0.011 C 
ATOM     16  C   UNL     1      33.881 -16.317 -24.214  0.00  0.00    +0.011 C 
ATOM     17  C   UNL     1      33.829 -13.870 -22.875  0.00  0.00    +0.001 C 
ATOM     18  C   UNL     1      33.455 -15.168 -24.879  0.00  0.00    +0.001 C 
ATOM     19  C   UNL     1      33.429 -13.943 -24.209  0.00  0.00    +0.000 C 
ENDBRANCH   5  14
TORSDOF 2
ENDMDL
MODEL 6
REMARK VINA RESULT:     -10.4      2.958      7.145
REMARK  Name = 12195517
REMARK  2 active torsions:
REMARK  status: ('A' for Active; 'I' for Inactive)
REMARK    1  A    between atoms: C_4  and  C_8
REMARK    2  A    between atoms: C_5  and  C_14
REMARK                            x       y       z     vdW  Elec       q    Type
REMARK                         _______ _______ _______ _____ _____    ______ ____
ROOT
ATOM      1  N   UNL     1      34.295 -17.948 -23.707  0.00  0.00    -0.200 N 
ATOM      2  N   UNL     1      34.239 -16.376 -22.190  0.00  0.00    -0.333 NA
ATOM      3  N   UNL     1      33.951 -16.858 -24.407  0.00  0.00    -0.113 NA
ATOM      4  C   UNL     1      34.464 -17.653 -22.389  0.00  0.00    +0.211 C 
ATOM      5  C   UNL     1      33.931 -15.934 -23.445  0.00  0.00    +0.104 C 
ATOM      6  H   UNL     1      34.409 -18.846 -24.095  0.00  0.00    +0.178 HD
ENDROOT
BRANCH   4   8
ATOM      7  F   UNL     1      35.904 -21.463 -18.587  0.00  0.00    -0.204 F 
ATOM      8  C   UNL     1      34.837 -18.637 -21.406  0.00  0.00    +0.046 C 
ATOM      9  C   UNL     1      33.896 -19.562 -20.951  0.00  0.00    +0.006 C 
ATOM     10  C   UNL     1      36.140 -18.670 -20.906  0.00  0.00    +0.006 C 
ATOM     11  C   UNL     1      34.256 -20.516 -19.999  0.00  0.00    +0.030 C 
ATOM     12  C   UNL     1      36.501 -19.624 -19.954  0.00  0.00    +0.030 C 
ATOM     13  C   UNL     1      35.559 -20.546 -19.501  0.00  0.00    +0.140 C 
ENDBRANCH   4   8
BRANCH   5  14
ATOM     14  C   UNL     1      33.608 -14.559 -23.699  0.00  0.00    +0.075 C 
ATOM     15  C   UNL     1      33.842 -13.594 -22.718  0.00  0.00    +0.011 C 
ATOM     16  C   UNL     1      33.059 -14.186 -24.926  0.00  0.00    +0.011 C 
ATOM     17  C   UNL     1      33.527 -12.258 -22.965  0.00  0.00    +0.001 C 
ATOM     18  C   UNL     1      32.744 -12.850 -25.173  0.00  0.00    +0.001 C 
ATOM     19  C   UNL     1      32.978 -11.885 -24.192  0.00  0.00    +0.000 C 
ENDBRANCH   5  14
TORSDOF 2
ENDMDL
MODEL 7
REMARK VINA RESULT:     -10.3      4.009      7.631
REMARK  Name = 12195517
REMARK  2 active torsions:
REMARK  status: ('A' for Active; 'I' for Inactive)
REMARK    1  A    between atoms: C_4  and  C_8
REMARK    2  A    between atoms: C_5  and  C_14
REMARK                            x       y       z     vdW  Elec       q    Type
REMARK                         _______ _______ _______ _____ _____    ______ ____
ROOT
ATOM      1  N   UNL     1      36.080 -19.936 -19.651  0.00  0.00    -0.200 N 
ATOM      2  N   UNL     1      34.040 -19.847 -20.432  0.00  0.00    -0.333 NA
ATOM      3  N   UNL     1      36.185 -19.097 -20.691  0.00  0.00    -0.113 NA
ATOM      4  C   UNL     1      34.801 -20.378 -19.504  0.00  0.00    +0.211 C 
ATOM      5  C   UNL     1      34.925 -19.076 -21.129  0.00  0.00    +0.104 C 
ATOM      6  H   UNL     1      36.829 -20.199 -19.070  0.00  0.00    +0.178 HD
ENDROOT
BRANCH   4   8
ATOM      7  F   UNL     1      33.253 -23.907 -15.479  0.00  0.00    -0.204 F 
ATOM      8  C   UNL     1      34.401 -21.291 -18.464  0.00  0.00    +0.046 C 
ATOM      9  C   UNL     1      35.289 -21.615 -17.438  0.00  0.00    +0.006 C 
ATOM     10  C   UNL     1      33.123 -21.854 -18.480  0.00  0.00    +0.006 C 
ATOM     11  C   UNL     1      34.902 -22.498 -16.430  0.00  0.00    +0.030 C 
ATOM     12  C   UNL     1      32.735 -22.737 -17.472  0.00  0.00    +0.030 C 
ATOM     13  C   UNL     1      33.625 -23.059 -16.448  0.00  0.00    +0.140 C 
ENDBRANCH   4   8
BRANCH   5  14
ATOM     14  C   UNL     1      34.512 -18.296 -22.262  0.00  0.00    +0.075 C 
ATOM     15  C   UNL     1      33.841 -18.906 -23.322  0.00  0.00    +0.011 C 
ATOM     16  C   UNL     1      34.782 -16.928 -22.303  0.00  0.00    +0.011 C 
ATOM     17  C   UNL     1      33.440 -18.148 -24.422  0.00  0.00    +0.001 C 
ATOM     18  C   UNL     1      34.381 -16.170 -23.403  0.00  0.00    +0.001 C 
ATOM     19  C   UNL     1      33.710 -16.781 -24.463  0.00  0.00    +0.000 C 
ENDBRANCH   5  14
TORSDOF 2
ENDMDL
MODEL 8
REMARK VINA RESULT:     -10.3      2.442      3.594
REMARK  Name = 12195517
REMARK  2 active torsions:
REMARK  status: ('A' for Active; 'I' for Inactive)
REMARK    1  A    between atoms: C_4  and  C_8
REMARK    2  A    between atoms: C_5  and  C_14
REMARK                            x       y       z     vdW  Elec       q    Type
REMARK                         _______ _______ _______ _____ _____    ______ ____
ROOT
ATOM      1  N   UNL     1      36.093 -19.641 -20.336  0.00  0.00    -0.200 N 
ATOM      2  N   UNL     1      33.957 -19.980 -20.024  0.00  0.00    -0.333 NA
ATOM      3  N   UNL     1      36.066 -20.503 -19.309  0.00  0.00    -0.113 NA
ATOM      4  C   UNL     1      34.835 -19.334 -20.754  0.00  0.00    +0.211 C 
ATOM      5  C   UNL     1      34.751 -20.677 -19.160  0.00  0.00    +0.104 C 
ATOM      6  H   UNL     1      36.916 -19.276 -20.734  0.00  0.00    +0.178 HD
ENDROOT
BRANCH   4   8
ATOM      7  F   UNL     1      33.806 -15.838 -24.969  0.00  0.00    -0.204 F 
ATOM      8  C   UNL     1      34.568 -18.431 -21.844  0.00  0.00    +0.046 C 
ATOM      9  C   UNL     1      34.924 -17.086 -21.740  0.00  0.00    +0.006 C 
ATOM     10  C   UNL     1      33.953 -18.898 -23.007  0.00  0.00    +0.006 C 
ATOM     11  C   UNL     1      34.667 -16.210 -22.795  0.00  0.00    +0.030 C 
ATOM     12  C   UNL     1      33.696 -18.023 -24.063  0.00  0.00    +0.030 C 
ATOM     13  C   UNL     1      34.053 -16.679 -23.956  0.00  0.00    +0.140 C 
ENDBRANCH   4   8
BRANCH   5  14
ATOM     14  C   UNL     1      34.194 -21.540 -18.156  0.00  0.00    +0.075 C 
ATOM     15  C   UNL     1      34.981 -21.959 -17.082  0.00  0.00    +0.011 C 
ATOM     16  C   UNL     1      32.867 -21.959 -18.254  0.00  0.00    +0.011 C 
ATOM     17  C   UNL     1      34.439 -22.797 -16.108  0.00  0.00    +0.001 C 
ATOM     18  C   UNL     1      32.326 -22.796 -17.280  0.00  0.00    +0.001 C 
ATOM     19  C   UNL     1      33.113 -23.216 -16.206  0.00  0.00    +0.000 C 
ENDBRANCH   5  14
TORSDOF 2
ENDMDL
MODEL 9
REMARK VINA RESULT:     -10.2      2.987      4.327
REMARK  Name = 12195517
REMARK  2 active torsions:
REMARK  status: ('A' for Active; 'I' for Inactive)
REMARK    1  A    between atoms: C_4  and  C_8
REMARK    2  A    between atoms: C_5  and  C_14
REMARK                            x       y       z     vdW  Elec       q    Type
REMARK                         _______ _______ _______ _____ _____    ______ ____
ROOT
ATOM      1  N   UNL     1      32.802 -13.581 -24.346  0.00  0.00    -0.200 N 
ATOM      2  N   UNL     1      33.278 -14.166 -22.294  0.00  0.00    -0.333 NA
ATOM      3  N   UNL     1      33.311 -14.813 -24.488  0.00  0.00    -0.113 NA
ATOM      4  C   UNL     1      32.786 -13.203 -23.039  0.00  0.00    +0.211 C 
ATOM      5  C   UNL     1      33.583 -15.123 -23.219  0.00  0.00    +0.104 C 
ATOM      6  H   UNL     1      32.482 -13.021 -25.090  0.00  0.00    +0.178 HD
ENDROOT
BRANCH   4   8
ATOM      7  F   UNL     1      30.864  -8.260 -21.330  0.00  0.00    -0.204 F 
ATOM      8  C   UNL     1      32.290 -11.926 -22.596  0.00  0.00    +0.046 C 
ATOM      9  C   UNL     1      32.588 -10.771 -23.321  0.00  0.00    +0.006 C 
ATOM     10  C   UNL     1      31.509 -11.839 -21.442  0.00  0.00    +0.006 C 
ATOM     11  C   UNL     1      32.107  -9.533 -22.894  0.00  0.00    +0.030 C 
ATOM     12  C   UNL     1      31.027 -10.601 -21.014  0.00  0.00    +0.030 C 
ATOM     13  C   UNL     1      31.326  -9.449 -21.740  0.00  0.00    +0.140 C 
ENDBRANCH   4   8
BRANCH   5  14
ATOM     14  C   UNL     1      34.161 -16.380 -22.837  0.00  0.00    +0.075 C 
ATOM     15  C   UNL     1      33.990 -17.503 -23.648  0.00  0.00    +0.011 C 
ATOM     16  C   UNL     1      34.893 -16.481 -21.654  0.00  0.00    +0.011 C 
ATOM     17  C   UNL     1      34.551 -18.724 -23.276  0.00  0.00    +0.001 C 
ATOM     18  C   UNL     1      35.454 -17.702 -21.282  0.00  0.00    +0.001 C 
ATOM     19  C   UNL     1      35.283 -18.825 -22.094  0.00  0.00    +0.000 C 
ENDBRANCH   5  14
TORSDOF 2
ENDMDL
