MODEL 1
REMARK VINA RESULT:     -11.6      0.000      0.000
REMARK  Name = 42884
REMARK  5 active torsions:
REMARK  status: ('A' for Active; 'I' for Inactive)
REMARK    1  A    between atoms: N_2  and  C_5
REMARK    2  A    between atoms: N_2  and  C_12
REMARK    3  A    between atoms: C_3  and  C_21
REMARK    4  A    between atoms: N_11  and  C_18
REMARK    5  A    between atoms: C_21  and  C_22
REMARK                            x       y       z     vdW  Elec       q    Type
REMARK                         _______ _______ _______ _____ _____    ______ ____
ROOT
ATOM      1  O   UNL     1      35.303 -22.372 -17.467  0.00  0.00    -0.274 OA
ATOM      2  N   UNL     1      33.605 -22.809 -15.876  0.00  0.00    -0.260 N 
ATOM      3  C   UNL     1      34.112 -22.404 -17.147  0.00  0.00    +0.234 C 
ENDROOT
BRANCH   2   5
ATOM      4 CL   UNL     1      27.820 -22.332 -14.788  0.00  0.00    -0.082 Cl
ATOM      5  C   UNL     1      32.173 -22.691 -15.607  0.00  0.00    +0.054 C 
ATOM      6  C   UNL     1      31.786 -22.540 -14.309  0.00  0.00    +0.016 C 
ATOM      7  C   UNL     1      31.325 -22.741 -16.672  0.00  0.00    +0.016 C 
ATOM      8  C   UNL     1      30.420 -22.427 -14.053  0.00  0.00    +0.013 C 
ATOM      9  C   UNL     1      29.958 -22.628 -16.416  0.00  0.00    +0.013 C 
ATOM     10  C   UNL     1      29.505 -22.471 -15.105  0.00  0.00    +0.058 C 
ENDBRANCH   2   5
BRANCH   2  12
ATOM     11  N   UNL     1      37.071 -24.107 -13.819  0.00  0.00    +0.388 N 
ATOM     12  C   UNL     1      34.451 -23.238 -14.791  0.00  0.00    +0.076 C 
ATOM     13  C   UNL     1      35.609 -22.262 -14.578  0.00  0.00    -0.003 C 
ATOM     14  C   UNL     1      34.989 -24.646 -15.041  0.00  0.00    -0.003 C 
ATOM     15  C   UNL     1      36.567 -22.764 -13.497  0.00  0.00    -0.076 C 
ATOM     16  C   UNL     1      35.969 -25.070 -13.947  0.00  0.00    -0.076 C 
ATOM     17  H   UNL     1      37.550 -24.056 -14.718  0.00  0.00    -0.080 HD
BRANCH  11  18
ATOM     18  C   UNL     1      38.025 -24.552 -12.804  0.00  0.00    -0.058 C 
ATOM     19  C   UNL     1      39.299 -25.069 -13.465  0.00  0.00    -0.023 C 
ATOM     20  C   UNL     1      37.379 -25.631 -11.938  0.00  0.00    -0.023 C 
ENDBRANCH  11  18
ENDBRANCH   2  12
BRANCH   3  21
ATOM     21  C   UNL     1      33.048 -22.031 -18.175  0.00  0.00    +0.112 C 
BRANCH  21  22
ATOM     22  C   UNL     1      33.539 -21.061 -19.222  0.00  0.00    -0.013 C 
ATOM     23  C   UNL     1      32.617 -20.362 -19.985  0.00  0.00    -0.004 C 
ATOM     24  C   UNL     1      34.902 -20.886 -19.400  0.00  0.00    -0.004 C 
ATOM     25  C   UNL     1      33.070 -19.465 -20.953  0.00  0.00    -0.000 C 
ATOM     26  C   UNL     1      35.355 -19.989 -20.368  0.00  0.00    -0.000 C 
ATOM     27  C   UNL     1      34.439 -19.279 -21.144  0.00  0.00    -0.000 C 
ENDBRANCH  21  22
ENDBRANCH   3  21
TORSDOF 5
ENDMDL
MODEL 2
REMARK VINA RESULT:     -11.0      2.753      7.236
REMARK  Name = 42884
REMARK  5 active torsions:
REMARK  status: ('A' for Active; 'I' for Inactive)
REMARK    1  A    between atoms: N_2  and  C_5
REMARK    2  A    between atoms: N_2  and  C_12
REMARK    3  A    between atoms: C_3  and  C_21
REMARK    4  A    between atoms: N_11  and  C_18
REMARK    5  A    between atoms: C_21  and  C_22
REMARK                            x       y       z     vdW  Elec       q    Type
REMARK                         _______ _______ _______ _____ _____    ______ ____
ROOT
ATOM      1  O   UNL     1      31.252 -21.981 -17.286  0.00  0.00    -0.274 OA
ATOM      2  N   UNL     1      33.570 -22.407 -17.046  0.00  0.00    -0.260 N 
ATOM      3  C   UNL     1      32.210 -22.367 -16.611  0.00  0.00    +0.234 C 
ENDROOT
BRANCH   2   5
ATOM      4 CL   UNL     1      37.785 -23.944 -13.207  0.00  0.00    -0.082 Cl
ATOM      5  C   UNL     1      34.613 -22.787 -16.096  0.00  0.00    +0.054 C 
ATOM      6  C   UNL     1      34.661 -24.090 -15.700  0.00  0.00    +0.016 C 
ATOM      7  C   UNL     1      35.466 -21.813 -15.672  0.00  0.00    +0.016 C 
ATOM      8  C   UNL     1      35.656 -24.452 -14.793  0.00  0.00    +0.013 C 
ATOM      9  C   UNL     1      36.462 -22.175 -14.766  0.00  0.00    +0.013 C 
ATOM     10  C   UNL     1      36.557 -23.496 -14.325  0.00  0.00    +0.058 C 
ENDBRANCH   2   5
BRANCH   2  12
ATOM     11  N   UNL     1      34.845 -19.867 -20.184  0.00  0.00    +0.388 N 
ATOM     12  C   UNL     1      33.988 -21.988 -18.360  0.00  0.00    +0.076 C 
ATOM     13  C   UNL     1      35.400 -21.403 -18.328  0.00  0.00    -0.003 C 
ATOM     14  C   UNL     1      33.010 -20.970 -18.946  0.00  0.00    -0.003 C 
ATOM     15  C   UNL     1      35.810 -20.863 -19.698  0.00  0.00    -0.076 C 
ATOM     16  C   UNL     1      33.497 -20.442 -20.295  0.00  0.00    -0.076 C 
ATOM     17  H   UNL     1      34.807 -19.107 -19.504  0.00  0.00    -0.080 HD
BRANCH  11  18
ATOM     18  C   UNL     1      35.276 -19.322 -21.471  0.00  0.00    -0.058 C 
ATOM     19  C   UNL     1      36.157 -18.094 -21.259  0.00  0.00    -0.023 C 
ATOM     20  C   UNL     1      34.051 -18.979 -22.314  0.00  0.00    -0.023 C 
ENDBRANCH  11  18
ENDBRANCH   2  12
BRANCH   3  21
ATOM     21  C   UNL     1      31.971 -22.898 -15.201  0.00  0.00    +0.112 C 
BRANCH  21  22
ATOM     22  C   UNL     1      30.610 -23.527 -15.021  0.00  0.00    -0.013 C 
ATOM     23  C   UNL     1      30.512 -24.767 -14.409  0.00  0.00    -0.004 C 
ATOM     24  C   UNL     1      29.485 -22.854 -15.469  0.00  0.00    -0.004 C 
ATOM     25  C   UNL     1      29.256 -25.349 -14.241  0.00  0.00    -0.000 C 
ATOM     26  C   UNL     1      28.229 -23.436 -15.301  0.00  0.00    -0.000 C 
ATOM     27  C   UNL     1      28.115 -24.684 -14.687  0.00  0.00    -0.000 C 
ENDBRANCH  21  22
ENDBRANCH   3  21
TORSDOF 5
ENDMDL
MODEL 3
REMARK VINA RESULT:     -10.5      1.299      2.050
REMARK  Name = 42884
REMARK  5 active torsions:
REMARK  status: ('A' for Active; 'I' for Inactive)
REMARK    1  A    between atoms: N_2  and  C_5
REMARK    2  A    between atoms: N_2  and  C_12
REMARK    3  A    between atoms: C_3  and  C_21
REMARK    4  A    between atoms: N_11  and  C_18
REMARK    5  A    between atoms: C_21  and  C_22
REMARK                            x       y       z     vdW  Elec       q    Type
REMARK                         _______ _______ _______ _____ _____    ______ ____
ROOT
ATOM      1  O   UNL     1      35.075 -22.461 -17.336  0.00  0.00    -0.274 OA
ATOM      2  N   UNL     1      33.357 -22.985 -15.792  0.00  0.00    -0.260 N 
ATOM      3  C   UNL     1      33.879 -22.532 -17.042  0.00  0.00    +0.234 C 
ENDROOT
BRANCH   2   5
ATOM      4 CL   UNL     1      27.541 -22.686 -14.814  0.00  0.00    -0.082 Cl
ATOM      5  C   UNL     1      31.918 -22.911 -15.550  0.00  0.00    +0.054 C 
ATOM      6  C   UNL     1      31.115 -23.754 -16.257  0.00  0.00    +0.016 C 
ATOM      7  C   UNL     1      31.478 -22.004 -14.633  0.00  0.00    +0.016 C 
ATOM      8  C   UNL     1      29.741 -23.683 -16.026  0.00  0.00    +0.013 C 
ATOM      9  C   UNL     1      30.104 -21.932 -14.401  0.00  0.00    +0.013 C 
ATOM     10  C   UNL     1      29.235 -22.773 -15.099  0.00  0.00    +0.058 C 
ENDBRANCH   2   5
BRANCH   2  12
ATOM     11  N   UNL     1      35.335 -22.954 -12.049  0.00  0.00    +0.388 N 
ATOM     12  C   UNL     1      34.193 -23.421 -14.702  0.00  0.00    +0.076 C 
ATOM     13  C   UNL     1      33.379 -23.594 -13.419  0.00  0.00    -0.003 C 
ATOM     14  C   UNL     1      35.341 -22.440 -14.469  0.00  0.00    -0.003 C 
ATOM     15  C   UNL     1      34.276 -23.957 -12.236  0.00  0.00    -0.076 C 
ATOM     16  C   UNL     1      36.174 -22.838 -13.250  0.00  0.00    -0.076 C 
ATOM     17  H   UNL     1      34.890 -22.051 -11.888  0.00  0.00    -0.080 HD
BRANCH  11  18
ATOM     18  C   UNL     1      36.154 -23.287 -10.883  0.00  0.00    -0.058 C 
ATOM     19  C   UNL     1      37.385 -24.081 -11.310  0.00  0.00    -0.023 C 
ATOM     20  C   UNL     1      35.314 -24.075  -9.881  0.00  0.00    -0.023 C 
ENDBRANCH  11  18
ENDBRANCH   2  12
BRANCH   3  21
ATOM     21  C   UNL     1      32.826 -22.159 -18.080  0.00  0.00    +0.112 C 
BRANCH  21  22
ATOM     22  C   UNL     1      33.327 -21.183 -19.117  0.00  0.00    -0.013 C 
ATOM     23  C   UNL     1      34.691 -21.031 -19.303  0.00  0.00    -0.004 C 
ATOM     24  C   UNL     1      32.413 -20.457 -19.865  0.00  0.00    -0.004 C 
ATOM     25  C   UNL     1      35.155 -20.130 -20.261  0.00  0.00    -0.000 C 
ATOM     26  C   UNL     1      32.877 -19.556 -20.823  0.00  0.00    -0.000 C 
ATOM     27  C   UNL     1      34.248 -19.392 -21.021  0.00  0.00    -0.000 C 
ENDBRANCH  21  22
ENDBRANCH   3  21
TORSDOF 5
ENDMDL
MODEL 4
REMARK VINA RESULT:     -10.1      1.463      6.721
REMARK  Name = 42884
REMARK  5 active torsions:
REMARK  status: ('A' for Active; 'I' for Inactive)
REMARK    1  A    between atoms: N_2  and  C_5
REMARK    2  A    between atoms: N_2  and  C_12
REMARK    3  A    between atoms: C_3  and  C_21
REMARK    4  A    between atoms: N_11  and  C_18
REMARK    5  A    between atoms: C_21  and  C_22
REMARK                            x       y       z     vdW  Elec       q    Type
REMARK                         _______ _______ _______ _____ _____    ______ ____
ROOT
ATOM      1  O   UNL     1      36.503 -22.795 -15.907  0.00  0.00    -0.274 OA
ATOM      2  N   UNL     1      34.245 -22.443 -16.529  0.00  0.00    -0.260 N 
ATOM      3  C   UNL     1      35.301 -22.785 -15.631  0.00  0.00    +0.234 C 
ENDROOT
BRANCH   2   5
ATOM      4 CL   UNL     1      28.642 -23.006 -14.751  0.00  0.00    -0.082 Cl
ATOM      5  C   UNL     1      32.859 -22.582 -16.089  0.00  0.00    +0.054 C 
ATOM      6  C   UNL     1      31.965 -23.104 -16.975  0.00  0.00    +0.016 C 
ATOM      7  C   UNL     1      32.556 -22.180 -14.823  0.00  0.00    +0.016 C 
ATOM      8  C   UNL     1      30.642 -23.237 -16.555  0.00  0.00    +0.013 C 
ATOM      9  C   UNL     1      31.233 -22.313 -14.402  0.00  0.00    +0.013 C 
ATOM     10  C   UNL     1      30.275 -22.842 -15.268  0.00  0.00    +0.058 C 
ENDBRANCH   2   5
BRANCH   2  12
ATOM     11  N   UNL     1      34.800 -19.970 -19.921  0.00  0.00    +0.388 N 
ATOM     12  C   UNL     1      34.472 -22.061 -17.901  0.00  0.00    +0.076 C 
ATOM     13  C   UNL     1      35.764 -21.257 -18.042  0.00  0.00    -0.003 C 
ATOM     14  C   UNL     1      33.290 -21.259 -18.446  0.00  0.00    -0.003 C 
ATOM     15  C   UNL     1      35.957 -20.761 -19.475  0.00  0.00    -0.076 C 
ATOM     16  C   UNL     1      33.563 -20.761 -19.865  0.00  0.00    -0.076 C 
ATOM     17  H   UNL     1      34.696 -19.179 -19.287  0.00  0.00    -0.080 HD
BRANCH  11  18
ATOM     18  C   UNL     1      35.021 -19.461 -21.275  0.00  0.00    -0.058 C 
ATOM     19  C   UNL     1      35.994 -18.285 -21.246  0.00  0.00    -0.023 C 
ATOM     20  C   UNL     1      33.685 -19.052 -21.888  0.00  0.00    -0.023 C 
ENDBRANCH  11  18
ENDBRANCH   2  12
BRANCH   3  21
ATOM     21  C   UNL     1      34.854 -23.116 -14.210  0.00  0.00    +0.112 C 
BRANCH  21  22
ATOM     22  C   UNL     1      35.864 -23.932 -13.439  0.00  0.00    -0.013 C 
ATOM     23  C   UNL     1      36.062 -25.261 -13.777  0.00  0.00    -0.004 C 
ATOM     24  C   UNL     1      36.574 -23.337 -12.409  0.00  0.00    -0.004 C 
ATOM     25  C   UNL     1      36.995 -26.016 -13.066  0.00  0.00    -0.000 C 
ATOM     26  C   UNL     1      37.507 -24.092 -11.697  0.00  0.00    -0.000 C 
ATOM     27  C   UNL     1      37.716 -25.431 -12.026  0.00  0.00    -0.000 C 
ENDBRANCH  21  22
ENDBRANCH   3  21
TORSDOF 5
ENDMDL
MODEL 5
REMARK VINA RESULT:     -10.0      2.788      5.722
REMARK  Name = 42884
REMARK  5 active torsions:
REMARK  status: ('A' for Active; 'I' for Inactive)
REMARK    1  A    between atoms: N_2  and  C_5
REMARK    2  A    between atoms: N_2  and  C_12
REMARK    3  A    between atoms: C_3  and  C_21
REMARK    4  A    between atoms: N_11  and  C_18
REMARK    5  A    between atoms: C_21  and  C_22
REMARK                            x       y       z     vdW  Elec       q    Type
REMARK                         _______ _______ _______ _____ _____    ______ ____
ROOT
ATOM      1  O   UNL     1      32.814 -21.730 -19.113  0.00  0.00    -0.274 OA
ATOM      2  N   UNL     1      33.625 -22.542 -17.042  0.00  0.00    -0.260 N 
ATOM      3  C   UNL     1      33.744 -21.940 -18.331  0.00  0.00    +0.234 C 
ENDROOT
BRANCH   2   5
ATOM      4 CL   UNL     1      38.509 -23.690 -13.926  0.00  0.00    -0.082 Cl
ATOM      5  C   UNL     1      34.834 -22.826 -16.271  0.00  0.00    +0.054 C 
ATOM      6  C   UNL     1      34.891 -24.011 -15.602  0.00  0.00    +0.016 C 
ATOM      7  C   UNL     1      35.819 -21.886 -16.274  0.00  0.00    +0.016 C 
ATOM      8  C   UNL     1      36.044 -24.282 -14.866  0.00  0.00    +0.013 C 
ATOM      9  C   UNL     1      36.974 -22.156 -15.539  0.00  0.00    +0.013 C 
ATOM     10  C   UNL     1      37.086 -23.355 -14.834  0.00  0.00    +0.058 C 
ENDBRANCH   2   5
BRANCH   2  12
ATOM     11  N   UNL     1      29.911 -22.412 -15.012  0.00  0.00    +0.388 N 
ATOM     12  C   UNL     1      32.368 -22.987 -16.494  0.00  0.00    +0.076 C 
ATOM     13  C   UNL     1      31.197 -22.227 -17.117  0.00  0.00    -0.003 C 
ATOM     14  C   UNL     1      32.349 -22.830 -14.974  0.00  0.00    -0.003 C 
ATOM     15  C   UNL     1      29.870 -22.620 -16.467  0.00  0.00    -0.076 C 
ATOM     16  C   UNL     1      30.985 -23.203 -14.393  0.00  0.00    -0.076 C 
ATOM     17  H   UNL     1      30.108 -21.427 -14.840  0.00  0.00    -0.080 HD
BRANCH  11  18
ATOM     18  C   UNL     1      28.620 -22.745 -14.411  0.00  0.00    -0.058 C 
ATOM     19  C   UNL     1      28.470 -24.258 -14.281  0.00  0.00    -0.023 C 
ATOM     20  C   UNL     1      27.497 -22.154 -15.260  0.00  0.00    -0.023 C 
ENDBRANCH  11  18
ENDBRANCH   2  12
BRANCH   3  21
ATOM     21  C   UNL     1      35.155 -21.497 -18.705  0.00  0.00    +0.112 C 
BRANCH  21  22
ATOM     22  C   UNL     1      35.184 -20.387 -19.729  0.00  0.00    -0.013 C 
ATOM     23  C   UNL     1      34.032 -20.091 -20.440  0.00  0.00    -0.004 C 
ATOM     24  C   UNL     1      36.360 -19.685 -19.937  0.00  0.00    -0.004 C 
ATOM     25  C   UNL     1      34.056 -19.065 -21.385  0.00  0.00    -0.000 C 
ATOM     26  C   UNL     1      36.384 -18.659 -20.882  0.00  0.00    -0.000 C 
ATOM     27  C   UNL     1      35.233 -18.350 -21.606  0.00  0.00    -0.000 C 
ENDBRANCH  21  22
ENDBRANCH   3  21
TORSDOF 5
ENDMDL
MODEL 6
REMARK VINA RESULT:      -9.9     13.530     17.330
REMARK  Name = 42884
REMARK  5 active torsions:
REMARK  status: ('A' for Active; 'I' for Inactive)
REMARK    1  A    between atoms: N_2  and  C_5
REMARK    2  A    between atoms: N_2  and  C_12
REMARK    3  A    between atoms: C_3  and  C_21
REMARK    4  A    between atoms: N_11  and  C_18
REMARK    5  A    between atoms: C_21  and  C_22
REMARK                            x       y       z     vdW  Elec       q    Type
REMARK                         _______ _______ _______ _____ _____    ______ ____
ROOT
ATOM      1  O   UNL     1      32.401  -7.447 -20.510  0.00  0.00    -0.274 OA
ATOM      2  N   UNL     1      32.526  -7.703 -22.861  0.00  0.00    -0.260 N 
ATOM      3  C   UNL     1      32.609  -6.980 -21.632  0.00  0.00    +0.234 C 
ENDROOT
BRANCH   2   5
ATOM      4 CL   UNL     1      33.207  -4.812 -27.966  0.00  0.00    -0.082 Cl
ATOM      5  C   UNL     1      32.695  -6.988 -24.124  0.00  0.00    +0.054 C 
ATOM      6  C   UNL     1      31.573  -6.711 -24.847  0.00  0.00    +0.016 C 
ATOM      7  C   UNL     1      33.962  -6.647 -24.492  0.00  0.00    +0.016 C 
ATOM      8  C   UNL     1      31.734  -6.029 -26.052  0.00  0.00    +0.013 C 
ATOM      9  C   UNL     1      34.124  -5.964 -25.697  0.00  0.00    +0.013 C 
ATOM     10  C   UNL     1      33.009  -5.655 -26.479  0.00  0.00    +0.058 C 
ENDBRANCH   2   5
BRANCH   2  12
ATOM     11  N   UNL     1      32.439 -11.825 -21.897  0.00  0.00    +0.388 N 
ATOM     12  C   UNL     1      32.178  -9.100 -22.930  0.00  0.00    +0.076 C 
ATOM     13  C   UNL     1      31.482  -9.558 -21.648  0.00  0.00    -0.003 C 
ATOM     14  C   UNL     1      33.415  -9.958 -23.194  0.00  0.00    -0.003 C 
ATOM     15  C   UNL     1      31.203 -11.061 -21.674  0.00  0.00    -0.076 C 
ATOM     16  C   UNL     1      33.073 -11.449 -23.168  0.00  0.00    -0.076 C 
ATOM     17  H   UNL     1      33.088 -11.601 -21.143  0.00  0.00    -0.080 HD
BRANCH  11  18
ATOM     18  C   UNL     1      32.164 -13.261 -21.868  0.00  0.00    -0.058 C 
ATOM     19  C   UNL     1      32.085 -13.756 -20.426  0.00  0.00    -0.023 C 
ATOM     20  C   UNL     1      33.250 -14.002 -22.643  0.00  0.00    -0.023 C 
ENDBRANCH  11  18
ENDBRANCH   2  12
BRANCH   3  21
ATOM     21  C   UNL     1      33.039  -5.523 -21.772  0.00  0.00    +0.112 C 
BRANCH  21  22
ATOM     22  C   UNL     1      31.879  -4.569 -21.934  0.00  0.00    -0.013 C 
ATOM     23  C   UNL     1      31.946  -3.577 -22.899  0.00  0.00    -0.004 C 
ATOM     24  C   UNL     1      30.769  -4.704 -21.115  0.00  0.00    -0.004 C 
ATOM     25  C   UNL     1      30.875  -2.696 -23.049  0.00  0.00    -0.000 C 
ATOM     26  C   UNL     1      29.699  -3.823 -21.266  0.00  0.00    -0.000 C 
ATOM     27  C   UNL     1      29.752  -2.819 -22.233  0.00  0.00    -0.000 C 
ENDBRANCH  21  22
ENDBRANCH   3  21
TORSDOF 5
ENDMDL
MODEL 7
REMARK VINA RESULT:      -9.8      2.898      5.389
REMARK  Name = 42884
REMARK  5 active torsions:
REMARK  status: ('A' for Active; 'I' for Inactive)
REMARK    1  A    between atoms: N_2  and  C_5
REMARK    2  A    between atoms: N_2  and  C_12
REMARK    3  A    between atoms: C_3  and  C_21
REMARK    4  A    between atoms: N_11  and  C_18
REMARK    5  A    between atoms: C_21  and  C_22
REMARK                            x       y       z     vdW  Elec       q    Type
REMARK                         _______ _______ _______ _____ _____    ______ ____
ROOT
ATOM      1  O   UNL     1      32.619 -21.743 -18.545  0.00  0.00    -0.274 OA
ATOM      2  N   UNL     1      33.811 -22.392 -16.604  0.00  0.00    -0.260 N 
ATOM      3  C   UNL     1      33.681 -21.983 -17.966  0.00  0.00    +0.234 C 
ENDROOT
BRANCH   2   5
ATOM      4 CL   UNL     1      39.145 -23.823 -14.513  0.00  0.00    -0.082 Cl
ATOM      5  C   UNL     1      35.131 -22.746 -16.087  0.00  0.00    +0.054 C 
ATOM      6  C   UNL     1      35.267 -23.960 -15.484  0.00  0.00    +0.016 C 
ATOM      7  C   UNL     1      36.134 -21.837 -16.243  0.00  0.00    +0.016 C 
ATOM      8  C   UNL     1      36.527 -24.298 -14.990  0.00  0.00    +0.013 C 
ATOM      9  C   UNL     1      37.395 -22.175 -15.750  0.00  0.00    +0.013 C 
ATOM     10  C   UNL     1      37.591 -23.406 -15.122  0.00  0.00    +0.058 C 
ENDBRANCH   2   5
BRANCH   2  12
ATOM     11  N   UNL     1      30.976 -24.349 -14.143  0.00  0.00    +0.388 N 
ATOM     12  C   UNL     1      32.682 -22.577 -15.727  0.00  0.00    +0.076 C 
ATOM     13  C   UNL     1      33.122 -23.141 -14.376  0.00  0.00    -0.003 C 
ATOM     14  C   UNL     1      31.639 -23.494 -16.367  0.00  0.00    -0.003 C 
ATOM     15  C   UNL     1      31.919 -23.437 -13.479  0.00  0.00    -0.076 C 
ATOM     16  C   UNL     1      30.486 -23.779 -15.405  0.00  0.00    -0.076 C 
ATOM     17  H   UNL     1      31.473 -25.213 -14.360  0.00  0.00    -0.080 HD
BRANCH  11  18
ATOM     18  C   UNL     1      29.857 -24.662 -13.254  0.00  0.00    -0.058 C 
ATOM     19  C   UNL     1      28.574 -24.838 -14.060  0.00  0.00    -0.023 C 
ATOM     20  C   UNL     1      29.706 -23.552 -12.217  0.00  0.00    -0.023 C 
ENDBRANCH  11  18
ENDBRANCH   2  12
BRANCH   3  21
ATOM     21  C   UNL     1      35.001 -21.800 -18.710  0.00  0.00    +0.112 C 
BRANCH  21  22
ATOM     22  C   UNL     1      35.003 -20.611 -19.642  0.00  0.00    -0.013 C 
ATOM     23  C   UNL     1      36.179 -19.905 -19.837  0.00  0.00    -0.004 C 
ATOM     24  C   UNL     1      33.830 -20.250 -20.285  0.00  0.00    -0.004 C 
ATOM     25  C   UNL     1      36.182 -18.807 -20.698  0.00  0.00    -0.000 C 
ATOM     26  C   UNL     1      33.834 -19.153 -21.147  0.00  0.00    -0.000 C 
ATOM     27  C   UNL     1      35.010 -18.432 -21.352  0.00  0.00    -0.000 C 
ENDBRANCH  21  22
ENDBRANCH   3  21
TORSDOF 5
ENDMDL
MODEL 8
REMARK VINA RESULT:      -9.5     13.100     16.708
REMARK  Name = 42884
REMARK  5 active torsions:
REMARK  status: ('A' for Active; 'I' for Inactive)
REMARK    1  A    between atoms: N_2  and  C_5
REMARK    2  A    between atoms: N_2  and  C_12
REMARK    3  A    between atoms: C_3  and  C_21
REMARK    4  A    between atoms: N_11  and  C_18
REMARK    5  A    between atoms: C_21  and  C_22
REMARK                            x       y       z     vdW  Elec       q    Type
REMARK                         _______ _______ _______ _____ _____    ______ ____
ROOT
ATOM      1  O   UNL     1      35.100  -8.362 -23.890  0.00  0.00    -0.274 OA
ATOM      2  N   UNL     1      32.913  -7.929 -23.091  0.00  0.00    -0.260 N 
ATOM      3  C   UNL     1      34.224  -7.572 -23.529  0.00  0.00    +0.234 C 
ENDROOT
BRANCH   2   5
ATOM      4 CL   UNL     1      29.298  -3.720 -21.066  0.00  0.00    -0.082 Cl
ATOM      5  C   UNL     1      32.018  -6.887 -22.589  0.00  0.00    +0.054 C 
ATOM      6  C   UNL     1      30.896  -6.618 -23.313  0.00  0.00    +0.016 C 
ATOM      7  C   UNL     1      32.369  -6.257 -21.433  0.00  0.00    +0.016 C 
ATOM      8  C   UNL     1      30.043  -5.624 -22.835  0.00  0.00    +0.013 C 
ATOM      9  C   UNL     1      31.516  -5.263 -20.954  0.00  0.00    +0.013 C 
ATOM     10  C   UNL     1      30.352  -4.946 -21.656  0.00  0.00    +0.058 C 
ENDBRANCH   2   5
BRANCH   2  12
ATOM     11  N   UNL     1      32.663 -11.973 -21.864  0.00  0.00    +0.388 N 
ATOM     12  C   UNL     1      32.452  -9.292 -23.017  0.00  0.00    +0.076 C 
ATOM     13  C   UNL     1      31.934  -9.623 -21.617  0.00  0.00    -0.003 C 
ATOM     14  C   UNL     1      33.562 -10.266 -23.411  0.00  0.00    -0.003 C 
ATOM     15  C   UNL     1      31.539 -11.096 -21.504  0.00  0.00    -0.076 C 
ATOM     16  C   UNL     1      33.117 -11.718 -23.238  0.00  0.00    -0.076 C 
ATOM     17  H   UNL     1      33.438 -11.768 -21.234  0.00  0.00    -0.080 HD
BRANCH  11  18
ATOM     18  C   UNL     1      32.287 -13.378 -21.702  0.00  0.00    -0.058 C 
ATOM     19  C   UNL     1      31.968 -13.675 -20.240  0.00  0.00    -0.023 C 
ATOM     20  C   UNL     1      33.418 -14.268 -22.209  0.00  0.00    -0.023 C 
ENDBRANCH  11  18
ENDBRANCH   2  12
BRANCH   3  21
ATOM     21  C   UNL     1      34.499  -6.072 -23.578  0.00  0.00    +0.112 C 
BRANCH  21  22
ATOM     22  C   UNL     1      33.877  -5.388 -24.773  0.00  0.00    -0.013 C 
ATOM     23  C   UNL     1      33.267  -4.155 -24.607  0.00  0.00    -0.004 C 
ATOM     24  C   UNL     1      33.929  -6.005 -26.012  0.00  0.00    -0.004 C 
ATOM     25  C   UNL     1      32.693  -3.522 -25.710  0.00  0.00    -0.000 C 
ATOM     26  C   UNL     1      33.355  -5.372 -27.115  0.00  0.00    -0.000 C 
ATOM     27  C   UNL     1      32.737  -4.131 -26.963  0.00  0.00    -0.000 C 
ENDBRANCH  21  22
ENDBRANCH   3  21
TORSDOF 5
ENDMDL
MODEL 9
REMARK VINA RESULT:      -9.0     14.010     17.761
REMARK  Name = 42884
REMARK  5 active torsions:
REMARK  status: ('A' for Active; 'I' for Inactive)
REMARK    1  A    between atoms: N_2  and  C_5
REMARK    2  A    between atoms: N_2  and  C_12
REMARK    3  A    between atoms: C_3  and  C_21
REMARK    4  A    between atoms: N_11  and  C_18
REMARK    5  A    between atoms: C_21  and  C_22
REMARK                            x       y       z     vdW  Elec       q    Type
REMARK                         _______ _______ _______ _____ _____    ______ ____
ROOT
ATOM      1  O   UNL     1      34.967  -7.477 -24.832  0.00  0.00    -0.274 OA
ATOM      2  N   UNL     1      33.085  -6.901 -23.515  0.00  0.00    -0.260 N 
ATOM      3  C   UNL     1      34.121  -6.657 -24.467  0.00  0.00    +0.234 C 
ENDROOT
BRANCH   2   5
ATOM      4 CL   UNL     1      29.595  -2.442 -21.838  0.00  0.00    -0.082 Cl
ATOM      5  C   UNL     1      32.221  -5.797 -23.100  0.00  0.00    +0.054 C 
ATOM      6  C   UNL     1      32.410  -5.283 -21.853  0.00  0.00    +0.016 C 
ATOM      7  C   UNL     1      31.287  -5.359 -23.990  0.00  0.00    +0.016 C 
ATOM      8  C   UNL     1      31.585  -4.231 -21.457  0.00  0.00    +0.013 C 
ATOM      9  C   UNL     1      30.462  -4.306 -23.595  0.00  0.00    +0.013 C 
ATOM     10  C   UNL     1      30.611  -3.741 -22.327  0.00  0.00    +0.058 C 
ENDBRANCH   2   5
BRANCH   2  12
ATOM     11  N   UNL     1      31.916 -10.922 -22.888  0.00  0.00    +0.388 N 
ATOM     12  C   UNL     1      32.907  -8.169 -22.853  0.00  0.00    +0.076 C 
ATOM     13  C   UNL     1      33.628  -9.288 -23.604  0.00  0.00    -0.003 C 
ATOM     14  C   UNL     1      31.423  -8.504 -22.707  0.00  0.00    -0.003 C 
ATOM     15  C   UNL     1      33.358 -10.650 -22.966  0.00  0.00    -0.076 C 
ATOM     16  C   UNL     1      31.223  -9.893 -22.099  0.00  0.00    -0.076 C 
ATOM     17  H   UNL     1      31.539 -10.897 -23.836  0.00  0.00    -0.080 HD
BRANCH  11  18
ATOM     18  C   UNL     1      31.675 -12.249 -22.322  0.00  0.00    -0.058 C 
ATOM     19  C   UNL     1      31.673 -12.182 -20.798  0.00  0.00    -0.023 C 
ATOM     20  C   UNL     1      32.741 -13.217 -22.828  0.00  0.00    -0.023 C 
ENDBRANCH  11  18
ENDBRANCH   2  12
BRANCH   3  21
ATOM     21  C   UNL     1      34.109  -5.263 -25.087  0.00  0.00    +0.112 C 
BRANCH  21  22
ATOM     22  C   UNL     1      34.201  -5.277 -26.594  0.00  0.00    -0.013 C 
ATOM     23  C   UNL     1      35.410  -4.977 -27.202  0.00  0.00    -0.004 C 
ATOM     24  C   UNL     1      33.077  -5.590 -27.341  0.00  0.00    -0.004 C 
ATOM     25  C   UNL     1      35.497  -4.990 -28.594  0.00  0.00    -0.000 C 
ATOM     26  C   UNL     1      33.164  -5.603 -28.733  0.00  0.00    -0.000 C 
ATOM     27  C   UNL     1      34.374  -5.302 -29.359  0.00  0.00    -0.000 C 
ENDBRANCH  21  22
ENDBRANCH   3  21
TORSDOF 5
ENDMDL
