MODEL 1
REMARK VINA RESULT:     -12.1      0.000      0.000
REMARK  Name = 5288514
REMARK  9 active torsions:
REMARK  status: ('A' for Active; 'I' for Inactive)
REMARK    1  A    between atoms: N_2  and  C_5
REMARK    2  A    between atoms: C_3  and  C_22
REMARK    3  A    between atoms: C_10  and  N_12
REMARK    4  A    between atoms: C_13  and  C_15
REMARK    5  A    between atoms: C_15  and  C_16
REMARK    6  A    between atoms: C_16  and  C_17
REMARK    7  A    between atoms: C_17  and  C_19
REMARK    8  A    between atoms: C_19  and  O_20
REMARK    9  A    between atoms: C_22  and  N_25
REMARK                            x       y       z     vdW  Elec       q    Type
REMARK                         _______ _______ _______ _____ _____    ______ ____
ROOT
ATOM      1  O   UNL     1      32.544 -22.416 -16.130  0.00  0.00    -0.277 OA
ATOM      2  N   UNL     1      34.698 -22.519 -17.063  0.00  0.00    -0.285 N 
ATOM      3  C   UNL     1      33.698 -22.828 -16.145  0.00  0.00    +0.211 C 
ATOM      4  H   UNL     1      35.572 -22.947 -16.914  0.00  0.00    +0.155 HD
ENDROOT
BRANCH   2   5
ATOM      5  C   UNL     1      34.605 -21.659 -18.184  0.00  0.00    +0.050 C 
ATOM      6  C   UNL     1      33.359 -21.382 -18.747  0.00  0.00    +0.016 C 
ATOM      7  C   UNL     1      35.757 -21.091 -18.725  0.00  0.00    +0.016 C 
ATOM      8  C   UNL     1      33.267 -20.536 -19.853  0.00  0.00    +0.016 C 
ATOM      9  C   UNL     1      35.665 -20.245 -19.830  0.00  0.00    +0.016 C 
ATOM     10  C   UNL     1      34.420 -19.967 -20.393  0.00  0.00    +0.050 C 
BRANCH  10  12
ATOM     11  O   UNL     1      35.033 -17.039 -20.659  0.00  0.00    -0.275 OA
ATOM     12  N   UNL     1      34.328 -19.121 -21.499  0.00  0.00    -0.284 N 
ATOM     13  C   UNL     1      34.629 -17.751 -21.572  0.00  0.00    +0.226 C 
ATOM     14  H   UNL     1      34.011 -19.537 -22.333  0.00  0.00    +0.155 HD
BRANCH  13  15
ATOM     15  C   UNL     1      34.388 -17.209 -22.974  0.00  0.00    +0.086 C 
BRANCH  15  16
ATOM     16  C   UNL     1      34.877 -15.770 -23.139  0.00  0.00    +0.021 C 
BRANCH  16  17
ATOM     17  C   UNL     1      33.738 -14.756 -23.102  0.00  0.00    +0.110 C 
BRANCH  17  19
ATOM     18  O   UNL     1      33.395 -15.220 -25.446  0.00  0.00    -0.250 OA
ATOM     19  C   UNL     1      33.159 -14.515 -24.474  0.00  0.00    +0.314 C 
BRANCH  19  20
ATOM     20  O   UNL     1      32.366 -13.416 -24.526  0.00  0.00    -0.480 OA
ATOM     21  H   UNL     1      32.736 -12.565 -24.400  0.00  0.00    +0.295 HD
ENDBRANCH  19  20
ENDBRANCH  17  19
ENDBRANCH  16  17
ENDBRANCH  15  16
ENDBRANCH  13  15
ENDBRANCH  10  12
ENDBRANCH   2   5
BRANCH   3  22
ATOM     22  C   UNL     1      34.221 -23.787 -15.103  0.00  0.00    +0.060 C 
BRANCH  22  25
ATOM     23  O   UNL     1      38.991 -24.149 -12.660  0.00  0.00    -0.356 OA
ATOM     24  O   UNL     1      35.211 -21.756 -14.589  0.00  0.00    -0.289 OA
ATOM     25  N   UNL     1      35.108 -23.068 -14.134  0.00  0.00    +0.437 N 
ATOM     26  C   UNL     1      36.673 -24.977 -13.203  0.00  0.00    +0.015 C 
ATOM     27  C   UNL     1      38.154 -25.263 -12.975  0.00  0.00    +0.138 C 
ATOM     28  C   UNL     1      39.174 -24.746 -13.961  0.00  0.00    +0.117 C 
ATOM     29  C   UNL     1      36.527 -23.646 -14.012  0.00  0.00    -0.010 C 
ATOM     30  C   UNL     1      38.818 -23.817 -15.082  0.00  0.00    +0.028 C 
ATOM     31  C   UNL     1      37.312 -23.695 -15.335  0.00  0.00    -0.013 C 
ATOM     32  C   UNL     1      35.970 -24.812 -11.840  0.00  0.00    -0.001 C 
ATOM     33  C   UNL     1      36.124 -26.237 -13.917  0.00  0.00    +0.001 C 
ATOM     34  C   UNL     1      34.473 -23.004 -12.758  0.00  0.00    -0.027 C 
ATOM     35  C   UNL     1      34.534 -24.311 -11.981  0.00  0.00    -0.017 C 
ATOM     36  C   UNL     1      40.476 -25.456 -14.075  0.00  0.00    +0.032 C 
ENDBRANCH  22  25
ENDBRANCH   3  22
TORSDOF 9
ENDMDL
MODEL 2
REMARK VINA RESULT:     -12.1      0.961      1.177
REMARK  Name = 5288514
REMARK  9 active torsions:
REMARK  status: ('A' for Active; 'I' for Inactive)
REMARK    1  A    between atoms: N_2  and  C_5
REMARK    2  A    between atoms: C_3  and  C_22
REMARK    3  A    between atoms: C_10  and  N_12
REMARK    4  A    between atoms: C_13  and  C_15
REMARK    5  A    between atoms: C_15  and  C_16
REMARK    6  A    between atoms: C_16  and  C_17
REMARK    7  A    between atoms: C_17  and  C_19
REMARK    8  A    between atoms: C_19  and  O_20
REMARK    9  A    between atoms: C_22  and  N_25
REMARK                            x       y       z     vdW  Elec       q    Type
REMARK                         _______ _______ _______ _____ _____    ______ ____
ROOT
ATOM      1  O   UNL     1      32.518 -22.409 -16.102  0.00  0.00    -0.277 OA
ATOM      2  N   UNL     1      34.665 -22.533 -17.047  0.00  0.00    -0.285 N 
ATOM      3  C   UNL     1      33.669 -22.831 -16.122  0.00  0.00    +0.211 C 
ATOM      4  H   UNL     1      35.536 -22.968 -16.901  0.00  0.00    +0.155 HD
ENDROOT
BRANCH   2   5
ATOM      5  C   UNL     1      34.572 -21.678 -18.171  0.00  0.00    +0.050 C 
ATOM      6  C   UNL     1      33.326 -21.396 -18.730  0.00  0.00    +0.016 C 
ATOM      7  C   UNL     1      35.726 -21.119 -18.719  0.00  0.00    +0.016 C 
ATOM      8  C   UNL     1      33.234 -20.555 -19.839  0.00  0.00    +0.016 C 
ATOM      9  C   UNL     1      35.634 -20.277 -19.827  0.00  0.00    +0.016 C 
ATOM     10  C   UNL     1      34.388 -19.995 -20.387  0.00  0.00    +0.050 C 
BRANCH  10  12
ATOM     11  O   UNL     1      35.237 -17.135 -20.734  0.00  0.00    -0.275 OA
ATOM     12  N   UNL     1      34.296 -19.153 -21.496  0.00  0.00    -0.284 N 
ATOM     13  C   UNL     1      34.711 -17.815 -21.608  0.00  0.00    +0.226 C 
ATOM     14  H   UNL     1      33.888 -19.546 -22.301  0.00  0.00    +0.155 HD
BRANCH  13  15
ATOM     15  C   UNL     1      34.424 -17.265 -22.998  0.00  0.00    +0.086 C 
BRANCH  15  16
ATOM     16  C   UNL     1      34.789 -15.787 -23.131  0.00  0.00    +0.021 C 
BRANCH  16  17
ATOM     17  C   UNL     1      33.588 -14.867 -22.943  0.00  0.00    +0.110 C 
BRANCH  17  19
ATOM     18  O   UNL     1      33.794 -12.656 -21.996  0.00  0.00    -0.250 OA
ATOM     19  C   UNL     1      33.816 -13.869 -21.835  0.00  0.00    +0.314 C 
BRANCH  19  20
ATOM     20  O   UNL     1      34.076 -14.456 -20.641  0.00  0.00    -0.480 OA
ATOM     21  H   UNL     1      34.544 -13.986 -19.979  0.00  0.00    +0.295 HD
ENDBRANCH  19  20
ENDBRANCH  17  19
ENDBRANCH  16  17
ENDBRANCH  15  16
ENDBRANCH  13  15
ENDBRANCH  10  12
ENDBRANCH   2   5
BRANCH   3  22
ATOM     22  C   UNL     1      34.189 -23.789 -15.079  0.00  0.00    +0.060 C 
BRANCH  22  25
ATOM     23  O   UNL     1      38.985 -24.149 -12.685  0.00  0.00    -0.356 OA
ATOM     24  O   UNL     1      35.179 -21.758 -14.565  0.00  0.00    -0.289 OA
ATOM     25  N   UNL     1      35.084 -23.072 -14.115  0.00  0.00    +0.437 N 
ATOM     26  C   UNL     1      36.664 -24.981 -13.209  0.00  0.00    +0.015 C 
ATOM     27  C   UNL     1      38.148 -25.264 -12.996  0.00  0.00    +0.138 C 
ATOM     28  C   UNL     1      39.157 -24.739 -13.991  0.00  0.00    +0.117 C 
ATOM     29  C   UNL     1      36.506 -23.647 -14.010  0.00  0.00    -0.010 C 
ATOM     30  C   UNL     1      38.787 -23.806 -15.104  0.00  0.00    +0.028 C 
ATOM     31  C   UNL     1      37.278 -23.688 -15.341  0.00  0.00    -0.013 C 
ATOM     32  C   UNL     1      35.974 -24.824 -11.838  0.00  0.00    -0.001 C 
ATOM     33  C   UNL     1      36.111 -26.239 -13.922  0.00  0.00    +0.001 C 
ATOM     34  C   UNL     1      34.462 -23.016 -12.733  0.00  0.00    -0.027 C 
ATOM     35  C   UNL     1      34.535 -24.326 -11.962  0.00  0.00    -0.017 C 
ATOM     36  C   UNL     1      40.459 -25.445 -14.121  0.00  0.00    +0.032 C 
ENDBRANCH  22  25
ENDBRANCH   3  22
TORSDOF 9
ENDMDL
MODEL 3
REMARK VINA RESULT:     -12.0      7.061     15.412
REMARK  Name = 5288514
REMARK  9 active torsions:
REMARK  status: ('A' for Active; 'I' for Inactive)
REMARK    1  A    between atoms: N_2  and  C_5
REMARK    2  A    between atoms: C_3  and  C_22
REMARK    3  A    between atoms: C_10  and  N_12
REMARK    4  A    between atoms: C_13  and  C_15
REMARK    5  A    between atoms: C_15  and  C_16
REMARK    6  A    between atoms: C_16  and  C_17
REMARK    7  A    between atoms: C_17  and  C_19
REMARK    8  A    between atoms: C_19  and  O_20
REMARK    9  A    between atoms: C_22  and  N_25
REMARK                            x       y       z     vdW  Elec       q    Type
REMARK                         _______ _______ _______ _____ _____    ______ ____
ROOT
ATOM      1  O   UNL     1      31.104 -10.796 -22.064  0.00  0.00    -0.277 OA
ATOM      2  N   UNL     1      33.073 -11.027 -23.324  0.00  0.00    -0.285 N 
ATOM      3  C   UNL     1      32.017 -10.335 -22.739  0.00  0.00    +0.211 C 
ATOM      4  H   UNL     1      33.717 -10.486 -23.836  0.00  0.00    +0.155 HD
ENDROOT
BRANCH   2   5
ATOM      5  C   UNL     1      33.329 -12.418 -23.270  0.00  0.00    +0.050 C 
ATOM      6  C   UNL     1      33.103 -13.212 -24.394  0.00  0.00    +0.016 C 
ATOM      7  C   UNL     1      33.805 -12.994 -22.093  0.00  0.00    +0.016 C 
ATOM      8  C   UNL     1      33.353 -14.584 -24.341  0.00  0.00    +0.016 C 
ATOM      9  C   UNL     1      34.057 -14.366 -22.040  0.00  0.00    +0.016 C 
ATOM     10  C   UNL     1      33.831 -15.160 -23.164  0.00  0.00    +0.050 C 
BRANCH  10  12
ATOM     11  O   UNL     1      33.047 -17.354 -25.058  0.00  0.00    -0.275 OA
ATOM     12  N   UNL     1      34.081 -16.531 -23.111  0.00  0.00    -0.284 N 
ATOM     13  C   UNL     1      33.691 -17.521 -24.029  0.00  0.00    +0.226 C 
ATOM     14  H   UNL     1      34.595 -16.844 -22.332  0.00  0.00    +0.155 HD
BRANCH  13  15
ATOM     15  C   UNL     1      34.172 -18.898 -23.589  0.00  0.00    +0.086 C 
BRANCH  15  16
ATOM     16  C   UNL     1      33.874 -19.180 -22.117  0.00  0.00    +0.021 C 
BRANCH  16  17
ATOM     17  C   UNL     1      35.135 -19.466 -21.308  0.00  0.00    +0.110 C 
BRANCH  17  19
ATOM     18  O   UNL     1      35.355 -17.212 -20.473  0.00  0.00    -0.250 OA
ATOM     19  C   UNL     1      35.881 -18.200 -20.967  0.00  0.00    +0.314 C 
BRANCH  19  20
ATOM     20  O   UNL     1      37.198 -18.260 -21.289  0.00  0.00    -0.480 OA
ATOM     21  H   UNL     1      37.456 -18.359 -22.184  0.00  0.00    +0.295 HD
ENDBRANCH  19  20
ENDBRANCH  17  19
ENDBRANCH  16  17
ENDBRANCH  15  16
ENDBRANCH  13  15
ENDBRANCH  10  12
ENDBRANCH   2   5
BRANCH   3  22
ATOM     22  C   UNL     1      32.123  -8.860 -23.044  0.00  0.00    +0.060 C 
BRANCH  22  25
ATOM     23  O   UNL     1      30.500  -3.867 -21.907  0.00  0.00    -0.356 OA
ATOM     24  O   UNL     1      29.834  -8.613 -22.784  0.00  0.00    -0.289 OA
ATOM     25  N   UNL     1      31.046  -8.103 -22.328  0.00  0.00    +0.437 N 
ATOM     26  C   UNL     1      32.163  -5.762 -21.845  0.00  0.00    +0.015 C 
ATOM     27  C   UNL     1      31.867  -4.274 -22.005  0.00  0.00    +0.138 C 
ATOM     28  C   UNL     1      31.103  -3.792 -23.216  0.00  0.00    +0.117 C 
ATOM     29  C   UNL     1      31.054  -6.586 -22.578  0.00  0.00    -0.010 C 
ATOM     30  C   UNL     1      30.471  -4.729 -24.200  0.00  0.00    +0.028 C 
ATOM     31  C   UNL     1      30.931  -6.184 -24.059  0.00  0.00    -0.013 C 
ATOM     32  C   UNL     1      32.145  -6.126 -20.345  0.00  0.00    -0.001 C 
ATOM     33  C   UNL     1      33.594  -5.952 -22.404  0.00  0.00    +0.001 C 
ATOM     34  C   UNL     1      31.098  -8.366 -20.835  0.00  0.00    -0.027 C 
ATOM     35  C   UNL     1      32.217  -7.634 -20.110  0.00  0.00    -0.017 C 
ATOM     36  C   UNL     1      31.296  -2.387 -23.665  0.00  0.00    +0.032 C 
ENDBRANCH  22  25
ENDBRANCH   3  22
TORSDOF 9
ENDMDL
MODEL 4
REMARK VINA RESULT:     -11.8      6.372     15.262
REMARK  Name = 5288514
REMARK  9 active torsions:
REMARK  status: ('A' for Active; 'I' for Inactive)
REMARK    1  A    between atoms: N_2  and  C_5
REMARK    2  A    between atoms: C_3  and  C_22
REMARK    3  A    between atoms: C_10  and  N_12
REMARK    4  A    between atoms: C_13  and  C_15
REMARK    5  A    between atoms: C_15  and  C_16
REMARK    6  A    between atoms: C_16  and  C_17
REMARK    7  A    between atoms: C_17  and  C_19
REMARK    8  A    between atoms: C_19  and  O_20
REMARK    9  A    between atoms: C_22  and  N_25
REMARK                            x       y       z     vdW  Elec       q    Type
REMARK                         _______ _______ _______ _____ _____    ______ ____
ROOT
ATOM      1  O   UNL     1      31.229 -11.126 -21.901  0.00  0.00    -0.277 OA
ATOM      2  N   UNL     1      33.291 -11.392 -22.995  0.00  0.00    -0.285 N 
ATOM      3  C   UNL     1      32.194 -10.683 -22.514  0.00  0.00    +0.211 C 
ATOM      4  H   UNL     1      33.975 -10.865 -23.469  0.00  0.00    +0.155 HD
ENDROOT
BRANCH   2   5
ATOM      5  C   UNL     1      33.538 -12.781 -22.884  0.00  0.00    +0.050 C 
ATOM      6  C   UNL     1      33.508 -13.588 -24.021  0.00  0.00    +0.016 C 
ATOM      7  C   UNL     1      33.811 -13.343 -21.637  0.00  0.00    +0.016 C 
ATOM      8  C   UNL     1      33.750 -14.957 -23.911  0.00  0.00    +0.016 C 
ATOM      9  C   UNL     1      34.053 -14.712 -21.527  0.00  0.00    +0.016 C 
ATOM     10  C   UNL     1      34.023 -15.519 -22.664  0.00  0.00    +0.050 C 
BRANCH  10  12
ATOM     11  O   UNL     1      35.281 -17.100 -20.442  0.00  0.00    -0.275 OA
ATOM     12  N   UNL     1      34.265 -16.889 -22.554  0.00  0.00    -0.284 N 
ATOM     13  C   UNL     1      34.859 -17.583 -21.486  0.00  0.00    +0.226 C 
ATOM     14  H   UNL     1      33.984 -17.437 -23.321  0.00  0.00    +0.155 HD
BRANCH  13  15
ATOM     15  C   UNL     1      34.933 -19.076 -21.775  0.00  0.00    +0.086 C 
BRANCH  15  16
ATOM     16  C   UNL     1      34.712 -19.927 -20.525  0.00  0.00    +0.021 C 
BRANCH  16  17
ATOM     17  C   UNL     1      33.235 -20.101 -20.187  0.00  0.00    +0.110 C 
BRANCH  17  19
ATOM     18  O   UNL     1      31.921 -21.510 -18.733  0.00  0.00    -0.250 OA
ATOM     19  C   UNL     1      33.018 -21.199 -19.175  0.00  0.00    +0.314 C 
BRANCH  19  20
ATOM     20  O   UNL     1      34.174 -21.792 -18.785  0.00  0.00    -0.480 OA
ATOM     21  H   UNL     1      34.261 -22.118 -17.911  0.00  0.00    +0.295 HD
ENDBRANCH  19  20
ENDBRANCH  17  19
ENDBRANCH  16  17
ENDBRANCH  15  16
ENDBRANCH  13  15
ENDBRANCH  10  12
ENDBRANCH   2   5
BRANCH   3  22
ATOM     22  C   UNL     1      32.327  -9.218 -22.850  0.00  0.00    +0.060 C 
BRANCH  22  25
ATOM     23  O   UNL     1      30.582  -4.196 -22.085  0.00  0.00    -0.356 OA
ATOM     24  O   UNL     1      30.025  -8.996 -22.705  0.00  0.00    -0.289 OA
ATOM     25  N   UNL     1      31.209  -8.439 -22.228  0.00  0.00    +0.437 N 
ATOM     26  C   UNL     1      32.267  -6.054 -21.837  0.00  0.00    +0.015 C 
ATOM     27  C   UNL     1      31.957  -4.583 -22.099  0.00  0.00    +0.138 C 
ATOM     28  C   UNL     1      31.241  -4.187 -23.369  0.00  0.00    +0.117 C 
ATOM     29  C   UNL     1      31.205  -6.939 -22.568  0.00  0.00    -0.010 C 
ATOM     30  C   UNL     1      30.668  -5.191 -24.322  0.00  0.00    +0.028 C 
ATOM     31  C   UNL     1      31.142  -6.627 -24.074  0.00  0.00    -0.013 C 
ATOM     32  C   UNL     1      32.189  -6.329 -20.321  0.00  0.00    -0.001 C 
ATOM     33  C   UNL     1      33.725  -6.251 -22.321  0.00  0.00    +0.001 C 
ATOM     34  C   UNL     1      31.197  -8.611 -20.721  0.00  0.00    -0.027 C 
ATOM     35  C   UNL     1      32.272  -7.818 -19.993  0.00  0.00    -0.017 C 
ATOM     36  C   UNL     1      31.433  -2.808 -23.892  0.00  0.00    +0.032 C 
ENDBRANCH  22  25
ENDBRANCH   3  22
TORSDOF 9
ENDMDL
MODEL 5
REMARK VINA RESULT:     -11.2      6.811     15.916
REMARK  Name = 5288514
REMARK  9 active torsions:
REMARK  status: ('A' for Active; 'I' for Inactive)
REMARK    1  A    between atoms: N_2  and  C_5
REMARK    2  A    between atoms: C_3  and  C_22
REMARK    3  A    between atoms: C_10  and  N_12
REMARK    4  A    between atoms: C_13  and  C_15
REMARK    5  A    between atoms: C_15  and  C_16
REMARK    6  A    between atoms: C_16  and  C_17
REMARK    7  A    between atoms: C_17  and  C_19
REMARK    8  A    between atoms: C_19  and  O_20
REMARK    9  A    between atoms: C_22  and  N_25
REMARK                            x       y       z     vdW  Elec       q    Type
REMARK                         _______ _______ _______ _____ _____    ______ ____
ROOT
ATOM      1  O   UNL     1      31.010 -10.513 -21.529  0.00  0.00    -0.277 OA
ATOM      2  N   UNL     1      32.424 -10.755 -23.390  0.00  0.00    -0.285 N 
ATOM      3  C   UNL     1      31.542 -10.085 -22.548  0.00  0.00    +0.211 C 
ATOM      4  H   UNL     1      32.750 -10.249 -24.169  0.00  0.00    +0.155 HD
ENDROOT
BRANCH   2   5
ATOM      5  C   UNL     1      32.905 -12.080 -23.259  0.00  0.00    +0.050 C 
ATOM      6  C   UNL     1      33.505 -12.488 -22.068  0.00  0.00    +0.016 C 
ATOM      7  C   UNL     1      32.781 -12.976 -24.320  0.00  0.00    +0.016 C 
ATOM      8  C   UNL     1      33.981 -13.793 -21.938  0.00  0.00    +0.016 C 
ATOM      9  C   UNL     1      33.256 -14.281 -24.190  0.00  0.00    +0.016 C 
ATOM     10  C   UNL     1      33.856 -14.689 -22.999  0.00  0.00    +0.050 C 
BRANCH  10  12
ATOM     11  O   UNL     1      34.619 -16.246 -20.547  0.00  0.00    -0.275 OA
ATOM     12  N   UNL     1      34.332 -15.994 -22.869  0.00  0.00    -0.284 N 
ATOM     13  C   UNL     1      34.675 -16.680 -21.692  0.00  0.00    +0.226 C 
ATOM     14  H   UNL     1      34.442 -16.497 -23.708  0.00  0.00    +0.155 HD
BRANCH  13  15
ATOM     15  C   UNL     1      35.154 -18.093 -21.999  0.00  0.00    +0.086 C 
BRANCH  15  16
ATOM     16  C   UNL     1      35.501 -18.881 -20.736  0.00  0.00    +0.021 C 
BRANCH  16  17
ATOM     17  C   UNL     1      34.491 -19.985 -20.438  0.00  0.00    +0.110 C 
BRANCH  17  19
ATOM     18  O   UNL     1      34.611 -22.120 -19.318  0.00  0.00    -0.250 OA
ATOM     19  C   UNL     1      35.023 -20.973 -19.430  0.00  0.00    +0.314 C 
BRANCH  19  20
ATOM     20  O   UNL     1      35.993 -20.449 -18.639  0.00  0.00    -0.480 OA
ATOM     21  H   UNL     1      35.916 -19.571 -18.323  0.00  0.00    +0.295 HD
ENDBRANCH  19  20
ENDBRANCH  17  19
ENDBRANCH  16  17
ENDBRANCH  15  16
ENDBRANCH  13  15
ENDBRANCH  10  12
ENDBRANCH   2   5
BRANCH   3  22
ATOM     22  C   UNL     1      31.292  -8.686 -23.055  0.00  0.00    +0.060 C 
BRANCH  22  25
ATOM     23  O   UNL     1      32.170  -3.416 -22.496  0.00  0.00    -0.356 OA
ATOM     24  O   UNL     1      32.055  -8.040 -20.965  0.00  0.00    -0.289 OA
ATOM     25  N   UNL     1      32.145  -7.704 -22.313  0.00  0.00    +0.437 N 
ATOM     26  C   UNL     1      32.064  -5.550 -23.835  0.00  0.00    +0.015 C 
ATOM     27  C   UNL     1      31.800  -4.051 -23.721  0.00  0.00    +0.138 C 
ATOM     28  C   UNL     1      30.756  -3.550 -22.752  0.00  0.00    +0.117 C 
ATOM     29  C   UNL     1      31.719  -6.235 -22.471  0.00  0.00    -0.010 C 
ATOM     30  C   UNL     1      30.069  -4.446 -21.766  0.00  0.00    +0.028 C 
ATOM     31  C   UNL     1      30.273  -5.940 -22.036  0.00  0.00    -0.013 C 
ATOM     32  C   UNL     1      33.558  -5.781 -24.146  0.00  0.00    -0.001 C 
ATOM     33  C   UNL     1      31.209  -6.021 -25.036  0.00  0.00    +0.001 C 
ATOM     34  C   UNL     1      33.604  -7.848 -22.703  0.00  0.00    -0.027 C 
ATOM     35  C   UNL     1      33.950  -7.256 -24.061  0.00  0.00    -0.017 C 
ATOM     36  C   UNL     1      30.108  -2.239 -23.022  0.00  0.00    +0.032 C 
ENDBRANCH  22  25
ENDBRANCH   3  22
TORSDOF 9
ENDMDL
MODEL 6
REMARK VINA RESULT:     -11.2      7.901     15.968
REMARK  Name = 5288514
REMARK  9 active torsions:
REMARK  status: ('A' for Active; 'I' for Inactive)
REMARK    1  A    between atoms: N_2  and  C_5
REMARK    2  A    between atoms: C_3  and  C_22
REMARK    3  A    between atoms: C_10  and  N_12
REMARK    4  A    between atoms: C_13  and  C_15
REMARK    5  A    between atoms: C_15  and  C_16
REMARK    6  A    between atoms: C_16  and  C_17
REMARK    7  A    between atoms: C_17  and  C_19
REMARK    8  A    between atoms: C_19  and  O_20
REMARK    9  A    between atoms: C_22  and  N_25
REMARK                            x       y       z     vdW  Elec       q    Type
REMARK                         _______ _______ _______ _____ _____    ______ ____
ROOT
ATOM      1  O   UNL     1      30.549 -10.132 -22.042  0.00  0.00    -0.277 OA
ATOM      2  N   UNL     1      32.510 -10.296 -23.326  0.00  0.00    -0.285 N 
ATOM      3  C   UNL     1      31.385  -9.662 -22.806  0.00  0.00    +0.211 C 
ATOM      4  H   UNL     1      33.070  -9.758 -23.930  0.00  0.00    +0.155 HD
ENDROOT
BRANCH   2   5
ATOM      5  C   UNL     1      32.940 -11.622 -23.087  0.00  0.00    +0.050 C 
ATOM      6  C   UNL     1      32.829 -12.582 -24.093  0.00  0.00    +0.016 C 
ATOM      7  C   UNL     1      33.475 -11.970 -21.847  0.00  0.00    +0.016 C 
ATOM      8  C   UNL     1      33.253 -13.891 -23.858  0.00  0.00    +0.016 C 
ATOM      9  C   UNL     1      33.899 -13.278 -21.612  0.00  0.00    +0.016 C 
ATOM     10  C   UNL     1      33.788 -14.238 -22.618  0.00  0.00    +0.050 C 
BRANCH  10  12
ATOM     11  O   UNL     1      34.224 -15.706 -20.034  0.00  0.00    -0.275 OA
ATOM     12  N   UNL     1      34.211 -15.546 -22.383  0.00  0.00    -0.284 N 
ATOM     13  C   UNL     1      34.400 -16.190 -21.147  0.00  0.00    +0.226 C 
ATOM     14  H   UNL     1      34.402 -16.087 -23.182  0.00  0.00    +0.155 HD
BRANCH  13  15
ATOM     15  C   UNL     1      34.872 -17.624 -21.341  0.00  0.00    +0.086 C 
BRANCH  15  16
ATOM     16  C   UNL     1      35.110 -17.969 -22.811  0.00  0.00    +0.021 C 
BRANCH  16  17
ATOM     17  C   UNL     1      33.965 -18.773 -23.418  0.00  0.00    +0.110 C 
BRANCH  17  19
ATOM     18  O   UNL     1      33.725 -16.997 -25.037  0.00  0.00    -0.250 OA
ATOM     19  C   UNL     1      33.279 -18.017 -24.529  0.00  0.00    +0.314 C 
BRANCH  19  20
ATOM     20  O   UNL     1      32.096 -18.573 -24.892  0.00  0.00    -0.480 OA
ATOM     21  H   UNL     1      32.050 -19.487 -25.094  0.00  0.00    +0.295 HD
ENDBRANCH  19  20
ENDBRANCH  17  19
ENDBRANCH  16  17
ENDBRANCH  15  16
ENDBRANCH  13  15
ENDBRANCH  10  12
ENDBRANCH   2   5
BRANCH   3  22
ATOM     22  C   UNL     1      31.297  -8.245 -23.317  0.00  0.00    +0.060 C 
BRANCH  22  25
ATOM     23  O   UNL     1      32.066  -3.062 -22.134  0.00  0.00    -0.356 OA
ATOM     24  O   UNL     1      32.115  -7.841 -21.187  0.00  0.00    -0.289 OA
ATOM     25  N   UNL     1      32.151  -7.338 -22.485  0.00  0.00    +0.437 N 
ATOM     26  C   UNL     1      31.967  -5.016 -23.724  0.00  0.00    +0.015 C 
ATOM     27  C   UNL     1      31.671  -3.551 -23.416  0.00  0.00    +0.138 C 
ATOM     28  C   UNL     1      30.648  -3.203 -22.361  0.00  0.00    +0.117 C 
ATOM     29  C   UNL     1      31.685  -5.874 -22.446  0.00  0.00    -0.010 C 
ATOM     30  C   UNL     1      30.017  -4.232 -21.473  0.00  0.00    +0.028 C 
ATOM     31  C   UNL     1      30.248  -5.676 -21.933  0.00  0.00    -0.013 C 
ATOM     32  C   UNL     1      33.454  -5.165 -24.107  0.00  0.00    -0.001 C 
ATOM     33  C   UNL     1      31.083  -5.359 -24.948  0.00  0.00    +0.001 C 
ATOM     34  C   UNL     1      33.599  -7.392 -22.934  0.00  0.00    -0.027 C 
ATOM     35  C   UNL     1      33.884  -6.627 -24.218  0.00  0.00    -0.017 C 
ATOM     36  C   UNL     1      29.960  -1.887 -22.445  0.00  0.00    +0.032 C 
ENDBRANCH  22  25
ENDBRANCH   3  22
TORSDOF 9
ENDMDL
MODEL 7
REMARK VINA RESULT:     -10.0      6.279     15.556
REMARK  Name = 5288514
REMARK  9 active torsions:
REMARK  status: ('A' for Active; 'I' for Inactive)
REMARK    1  A    between atoms: N_2  and  C_5
REMARK    2  A    between atoms: C_3  and  C_22
REMARK    3  A    between atoms: C_10  and  N_12
REMARK    4  A    between atoms: C_13  and  C_15
REMARK    5  A    between atoms: C_15  and  C_16
REMARK    6  A    between atoms: C_16  and  C_17
REMARK    7  A    between atoms: C_17  and  C_19
REMARK    8  A    between atoms: C_19  and  O_20
REMARK    9  A    between atoms: C_22  and  N_25
REMARK                            x       y       z     vdW  Elec       q    Type
REMARK                         _______ _______ _______ _____ _____    ______ ____
ROOT
ATOM      1  O   UNL     1      30.872 -10.743 -21.690  0.00  0.00    -0.277 OA
ATOM      2  N   UNL     1      33.105 -10.829 -22.418  0.00  0.00    -0.285 N 
ATOM      3  C   UNL     1      31.915 -10.208 -22.050  0.00  0.00    +0.211 C 
ATOM      4  H   UNL     1      33.842 -10.233 -22.682  0.00  0.00    +0.155 HD
ENDROOT
BRANCH   2   5
ATOM      5  C   UNL     1      33.376 -12.218 -22.459  0.00  0.00    +0.050 C 
ATOM      6  C   UNL     1      33.611 -12.917 -21.275  0.00  0.00    +0.016 C 
ATOM      7  C   UNL     1      33.410 -12.886 -23.682  0.00  0.00    +0.016 C 
ATOM      8  C   UNL     1      33.881 -14.285 -21.315  0.00  0.00    +0.016 C 
ATOM      9  C   UNL     1      33.679 -14.254 -23.722  0.00  0.00    +0.016 C 
ATOM     10  C   UNL     1      33.913 -14.953 -22.539  0.00  0.00    +0.050 C 
BRANCH  10  12
ATOM     11  O   UNL     1      35.007 -16.782 -20.422  0.00  0.00    -0.275 OA
ATOM     12  N   UNL     1      34.183 -16.322 -22.578  0.00  0.00    -0.284 N 
ATOM     13  C   UNL     1      34.697 -17.136 -21.554  0.00  0.00    +0.226 C 
ATOM     14  H   UNL     1      33.989 -16.773 -23.431  0.00  0.00    +0.155 HD
BRANCH  13  15
ATOM     15  C   UNL     1      34.839 -18.579 -22.019  0.00  0.00    +0.086 C 
BRANCH  15  16
ATOM     16  C   UNL     1      34.730 -19.579 -20.868  0.00  0.00    +0.021 C 
BRANCH  16  17
ATOM     17  C   UNL     1      33.285 -19.881 -20.488  0.00  0.00    +0.110 C 
BRANCH  17  19
ATOM     18  O   UNL     1      32.143 -21.378 -18.977  0.00  0.00    -0.250 OA
ATOM     19  C   UNL     1      33.195 -20.981 -19.459  0.00  0.00    +0.314 C 
BRANCH  19  20
ATOM     20  O   UNL     1      34.409 -21.470 -19.102  0.00  0.00    -0.480 OA
ATOM     21  H   UNL     1      35.184 -20.975 -19.280  0.00  0.00    +0.295 HD
ENDBRANCH  19  20
ENDBRANCH  17  19
ENDBRANCH  16  17
ENDBRANCH  15  16
ENDBRANCH  13  15
ENDBRANCH  10  12
ENDBRANCH   2   5
BRANCH   3  22
ATOM     22  C   UNL     1      32.054  -8.708 -22.148  0.00  0.00    +0.060 C 
BRANCH  22  25
ATOM     23  O   UNL     1      32.816  -4.838 -25.794  0.00  0.00    -0.356 OA
ATOM     24  O   UNL     1      31.596  -9.323 -24.334  0.00  0.00    -0.289 OA
ATOM     25  N   UNL     1      31.561  -8.226 -23.478  0.00  0.00    +0.437 N 
ATOM     26  C   UNL     1      32.228  -5.673 -23.489  0.00  0.00    +0.015 C 
ATOM     27  C   UNL     1      32.933  -4.656 -24.382  0.00  0.00    +0.138 C 
ATOM     28  C   UNL     1      34.114  -5.090 -25.217  0.00  0.00    +0.117 C 
ATOM     29  C   UNL     1      32.401  -7.101 -24.104  0.00  0.00    -0.010 C 
ATOM     30  C   UNL     1      34.536  -6.523 -25.341  0.00  0.00    +0.028 C 
ATOM     31  C   UNL     1      33.885  -7.455 -24.314  0.00  0.00    -0.013 C 
ATOM     32  C   UNL     1      30.724  -5.337 -23.424  0.00  0.00    -0.001 C 
ATOM     33  C   UNL     1      32.859  -5.486 -22.087  0.00  0.00    +0.001 C 
ATOM     34  C   UNL     1      30.113  -7.783 -23.394  0.00  0.00    -0.027 C 
ATOM     35  C   UNL     1      29.912  -6.429 -22.729  0.00  0.00    -0.017 C 
ATOM     36  C   UNL     1      35.115  -4.066 -25.619  0.00  0.00    +0.032 C 
ENDBRANCH  22  25
ENDBRANCH   3  22
TORSDOF 9
ENDMDL
MODEL 8
REMARK VINA RESULT:      -9.9      6.831     16.084
REMARK  Name = 5288514
REMARK  9 active torsions:
REMARK  status: ('A' for Active; 'I' for Inactive)
REMARK    1  A    between atoms: N_2  and  C_5
REMARK    2  A    between atoms: C_3  and  C_22
REMARK    3  A    between atoms: C_10  and  N_12
REMARK    4  A    between atoms: C_13  and  C_15
REMARK    5  A    between atoms: C_15  and  C_16
REMARK    6  A    between atoms: C_16  and  C_17
REMARK    7  A    between atoms: C_17  and  C_19
REMARK    8  A    between atoms: C_19  and  O_20
REMARK    9  A    between atoms: C_22  and  N_25
REMARK                            x       y       z     vdW  Elec       q    Type
REMARK                         _______ _______ _______ _____ _____    ______ ____
ROOT
ATOM      1  O   UNL     1      31.373 -10.152 -22.137  0.00  0.00    -0.277 OA
ATOM      2  N   UNL     1      33.340 -10.583 -23.348  0.00  0.00    -0.285 N 
ATOM      3  C   UNL     1      32.383  -9.785 -22.727  0.00  0.00    +0.211 C 
ATOM      4  H   UNL     1      34.088 -10.110 -23.776  0.00  0.00    +0.155 HD
ENDROOT
BRANCH   2   5
ATOM      5  C   UNL     1      33.360 -11.996 -23.435  0.00  0.00    +0.050 C 
ATOM      6  C   UNL     1      33.784 -12.755 -22.344  0.00  0.00    +0.016 C 
ATOM      7  C   UNL     1      32.958 -12.628 -24.611  0.00  0.00    +0.016 C 
ATOM      8  C   UNL     1      33.806 -14.148 -22.430  0.00  0.00    +0.016 C 
ATOM      9  C   UNL     1      32.979 -14.020 -24.697  0.00  0.00    +0.016 C 
ATOM     10  C   UNL     1      33.403 -14.779 -23.606  0.00  0.00    +0.050 C 
BRANCH  10  12
ATOM     11  O   UNL     1      35.313 -16.771 -22.420  0.00  0.00    -0.275 OA
ATOM     12  N   UNL     1      33.425 -16.172 -23.692  0.00  0.00    -0.284 N 
ATOM     13  C   UNL     1      34.345 -17.063 -23.114  0.00  0.00    +0.226 C 
ATOM     14  H   UNL     1      32.706 -16.581 -24.225  0.00  0.00    +0.155 HD
BRANCH  13  15
ATOM     15  C   UNL     1      34.003 -18.506 -23.459  0.00  0.00    +0.086 C 
BRANCH  15  16
ATOM     16  C   UNL     1      34.552 -19.500 -22.435  0.00  0.00    +0.021 C 
BRANCH  16  17
ATOM     17  C   UNL     1      33.814 -19.435 -21.103  0.00  0.00    +0.110 C 
BRANCH  17  19
ATOM     18  O   UNL     1      35.703 -20.046 -19.728  0.00  0.00    -0.250 OA
ATOM     19  C   UNL     1      34.529 -20.218 -20.029  0.00  0.00    +0.314 C 
BRANCH  19  20
ATOM     20  O   UNL     1      33.741 -21.155 -19.445  0.00  0.00    -0.480 OA
ATOM     21  H   UNL     1      33.568 -21.114 -18.526  0.00  0.00    +0.295 HD
ENDBRANCH  19  20
ENDBRANCH  17  19
ENDBRANCH  16  17
ENDBRANCH  15  16
ENDBRANCH  13  15
ENDBRANCH  10  12
ENDBRANCH   2   5
BRANCH   3  22
ATOM     22  C   UNL     1      32.744  -8.327 -22.868  0.00  0.00    +0.060 C 
BRANCH  22  25
ATOM     23  O   UNL     1      30.906  -3.570 -24.558  0.00  0.00    -0.356 OA
ATOM     24  O   UNL     1      30.495  -8.291 -23.426  0.00  0.00    -0.289 OA
ATOM     25  N   UNL     1      31.505  -7.486 -22.906  0.00  0.00    +0.437 N 
ATOM     26  C   UNL     1      32.437  -5.034 -23.190  0.00  0.00    +0.015 C 
ATOM     27  C   UNL     1      32.227  -3.801 -24.064  0.00  0.00    +0.138 C 
ATOM     28  C   UNL     1      31.897  -3.971 -25.527  0.00  0.00    +0.117 C 
ATOM     29  C   UNL     1      31.611  -6.225 -23.779  0.00  0.00    -0.010 C 
ATOM     30  C   UNL     1      31.602  -5.306 -26.141  0.00  0.00    +0.028 C 
ATOM     31  C   UNL     1      31.973  -6.497 -25.250  0.00  0.00    -0.013 C 
ATOM     32  C   UNL     1      31.936  -4.738 -21.761  0.00  0.00    -0.001 C 
ATOM     33  C   UNL     1      33.970  -5.254 -23.163  0.00  0.00    +0.001 C 
ATOM     34  C   UNL     1      31.072  -7.092 -21.507  0.00  0.00    -0.027 C 
ATOM     35  C   UNL     1      31.910  -5.986 -20.881  0.00  0.00    -0.017 C 
ATOM     36  C   UNL     1      32.241  -2.870 -26.466  0.00  0.00    +0.032 C 
ENDBRANCH  22  25
ENDBRANCH   3  22
TORSDOF 9
ENDMDL
