MODEL 1
REMARK VINA RESULT:     -13.6      0.000      0.000
REMARK  Name = 6914614
REMARK  7 active torsions:
REMARK  status: ('A' for Active; 'I' for Inactive)
REMARK    1  A    between atoms: O_1  and  C_4
REMARK    2  A    between atoms: O_1  and  C_18
REMARK    3  A    between atoms: C_9  and  C_13
REMARK    4  A    between atoms: C_18  and  C_19
REMARK    5  A    between atoms: C_19  and  N_20
REMARK    6  A    between atoms: C_19  and  C_24
REMARK    7  A    between atoms: C_24  and  C_26
REMARK                            x       y       z     vdW  Elec       q    Type
REMARK                         _______ _______ _______ _____ _____    ______ ____
ROOT
ATOM      1  O   UNL     1      35.350 -20.065 -19.877  0.00  0.00    -0.476 OA
ENDROOT
BRANCH   1   4
ATOM      2  N   UNL     1      34.611 -22.963 -16.086  0.00  0.00    -0.404 NA
ATOM      3  N   UNL     1      32.427 -21.936 -18.825  0.00  0.00    -0.258 NA
ATOM      4  C   UNL     1      34.576 -20.889 -19.122  0.00  0.00    +0.159 C 
ATOM      5  C   UNL     1      35.049 -21.505 -17.957  0.00  0.00    +0.063 C 
ATOM      6  C   UNL     1      34.204 -22.347 -17.214  0.00  0.00    +0.136 C 
ATOM      7  C   UNL     1      36.357 -21.310 -17.493  0.00  0.00    +0.008 C 
ATOM      8  C   UNL     1      33.270 -21.136 -19.507  0.00  0.00    +0.130 C 
ATOM      9  C   UNL     1      35.882 -22.750 -15.672  0.00  0.00    +0.131 C 
ATOM     10  C   UNL     1      36.785 -21.942 -16.333  0.00  0.00    +0.032 C 
ATOM     11  C   UNL     1      32.920 -22.514 -17.704  0.00  0.00    +0.184 C 
BRANCH   9  13
ATOM     12  N   UNL     1      36.961 -24.779 -12.107  0.00  0.00    -0.242 NA
ATOM     13  C   UNL     1      36.248 -23.441 -14.458  0.00  0.00    +0.033 C 
ATOM     14  C   UNL     1      36.567 -22.720 -13.312  0.00  0.00    +0.023 C 
ATOM     15  C   UNL     1      36.288 -24.831 -14.428  0.00  0.00    +0.023 C 
ATOM     16  C   UNL     1      36.912 -23.429 -12.172  0.00  0.00    +0.099 C 
ATOM     17  C   UNL     1      36.646 -25.446 -13.239  0.00  0.00    +0.099 C 
ENDBRANCH   9  13
ENDBRANCH   1   4
BRANCH   1  18
ATOM     18  C   UNL     1      34.705 -19.348 -20.929  0.00  0.00    +0.184 C 
BRANCH  18  19
ATOM     19  C   UNL     1      35.423 -18.030 -21.244  0.00  0.00    -0.017 C 
BRANCH  19  20
ATOM     20  N   UNL     1      36.859 -18.300 -21.382  0.00  0.00    +0.384 N 
ATOM     21  H   UNL     1      37.097 -19.147 -20.865  0.00  0.00    -0.089 HD
ATOM     22  H   UNL     1      37.390 -17.514 -21.009  0.00  0.00    -0.089 HD
ATOM     23  H   UNL     1      37.088 -18.429 -22.368  0.00  0.00    -0.089 HD
ENDBRANCH  19  20
BRANCH  19  24
ATOM     24  C   UNL     1      34.929 -17.338 -22.530  0.00  0.00    +0.009 C 
BRANCH  24  26
ATOM     25  N   UNL     1      33.749 -14.113 -21.292  0.00  0.00    -0.312 N 
ATOM     26  C   UNL     1      34.380 -15.959 -22.298  0.00  0.00    -0.008 C 
ATOM     27  C   UNL     1      33.863 -15.102 -23.288  0.00  0.00    +0.011 C 
ATOM     28  C   UNL     1      33.469 -13.936 -22.628  0.00  0.00    +0.048 C 
ATOM     29  C   UNL     1      34.306 -15.346 -21.085  0.00  0.00    +0.058 C 
ATOM     30  C   UNL     1      33.685 -15.186 -24.683  0.00  0.00    +0.001 C 
ATOM     31  C   UNL     1      32.903 -12.844 -23.297  0.00  0.00    +0.015 C 
ATOM     32  C   UNL     1      33.120 -14.102 -25.365  0.00  0.00    +0.000 C 
ATOM     33  C   UNL     1      32.736 -12.950 -24.681  0.00  0.00    +0.001 C 
ATOM     34  H   UNL     1      33.575 -13.448 -20.588  0.00  0.00    +0.152 HD
ENDBRANCH  24  26
ENDBRANCH  19  24
ENDBRANCH  18  19
ENDBRANCH   1  18
TORSDOF 7
ENDMDL
MODEL 2
REMARK VINA RESULT:     -13.6      1.057      1.826
REMARK  Name = 6914614
REMARK  7 active torsions:
REMARK  status: ('A' for Active; 'I' for Inactive)
REMARK    1  A    between atoms: O_1  and  C_4
REMARK    2  A    between atoms: O_1  and  C_18
REMARK    3  A    between atoms: C_9  and  C_13
REMARK    4  A    between atoms: C_18  and  C_19
REMARK    5  A    between atoms: C_19  and  N_20
REMARK    6  A    between atoms: C_19  and  C_24
REMARK    7  A    between atoms: C_24  and  C_26
REMARK                            x       y       z     vdW  Elec       q    Type
REMARK                         _______ _______ _______ _____ _____    ______ ____
ROOT
ATOM      1  O   UNL     1      35.001 -20.267 -19.961  0.00  0.00    -0.476 OA
ENDROOT
BRANCH   1   4
ATOM      2  N   UNL     1      34.821 -22.865 -15.894  0.00  0.00    -0.404 NA
ATOM      3  N   UNL     1      32.305 -22.162 -18.445  0.00  0.00    -0.258 NA
ATOM      4  C   UNL     1      34.354 -21.056 -19.061  0.00  0.00    +0.159 C 
ATOM      5  C   UNL     1      34.981 -21.552 -17.911  0.00  0.00    +0.063 C 
ATOM      6  C   UNL     1      34.265 -22.363 -17.015  0.00  0.00    +0.136 C 
ATOM      7  C   UNL     1      36.320 -21.266 -17.613  0.00  0.00    +0.008 C 
ATOM      8  C   UNL     1      33.029 -21.387 -19.278  0.00  0.00    +0.130 C 
ATOM      9  C   UNL     1      36.117 -22.566 -15.643  0.00  0.00    +0.131 C 
ATOM     10  C   UNL     1      36.902 -21.780 -16.462  0.00  0.00    +0.032 C 
ATOM     11  C   UNL     1      32.945 -22.622 -17.343  0.00  0.00    +0.184 C 
BRANCH   9  13
ATOM     12  N   UNL     1      37.672 -24.245 -12.072  0.00  0.00    -0.242 NA
ATOM     13  C   UNL     1      36.646 -23.137 -14.427  0.00  0.00    +0.033 C 
ATOM     14  C   UNL     1      37.703 -24.040 -14.481  0.00  0.00    +0.023 C 
ATOM     15  C   UNL     1      36.102 -22.789 -13.195  0.00  0.00    +0.023 C 
ATOM     16  C   UNL     1      38.176 -24.560 -13.286  0.00  0.00    +0.099 C 
ATOM     17  C   UNL     1      36.646 -23.365 -12.057  0.00  0.00    +0.099 C 
ENDBRANCH   9  13
ENDBRANCH   1   4
BRANCH   1  18
ATOM     18  C   UNL     1      34.198 -19.401 -20.763  0.00  0.00    +0.184 C 
BRANCH  18  19
ATOM     19  C   UNL     1      34.991 -18.185 -21.257  0.00  0.00    -0.017 C 
BRANCH  19  20
ATOM     20  N   UNL     1      36.377 -18.308 -20.791  0.00  0.00    +0.384 N 
ATOM     21  H   UNL     1      37.006 -18.318 -21.595  0.00  0.00    -0.089 HD
ATOM     22  H   UNL     1      36.483 -19.175 -20.265  0.00  0.00    -0.089 HD
ATOM     23  H   UNL     1      36.606 -17.516 -20.191  0.00  0.00    -0.089 HD
ENDBRANCH  19  20
BRANCH  19  24
ATOM     24  C   UNL     1      35.002 -18.024 -22.790  0.00  0.00    +0.009 C 
BRANCH  24  26
ATOM     25  N   UNL     1      33.588 -15.168 -24.572  0.00  0.00    -0.312 N 
ATOM     26  C   UNL     1      34.414 -16.725 -23.263  0.00  0.00    -0.008 C 
ATOM     27  C   UNL     1      34.112 -15.616 -22.451  0.00  0.00    +0.011 C 
ATOM     28  C   UNL     1      33.589 -14.639 -23.301  0.00  0.00    +0.048 C 
ATOM     29  C   UNL     1      34.091 -16.442 -24.554  0.00  0.00    +0.058 C 
ATOM     30  C   UNL     1      34.224 -15.328 -21.075  0.00  0.00    +0.001 C 
ATOM     31  C   UNL     1      33.170 -13.384 -22.844  0.00  0.00    +0.015 C 
ATOM     32  C   UNL     1      33.809 -14.077 -20.604  0.00  0.00    +0.000 C 
ATOM     33  C   UNL     1      33.291 -13.121 -21.476  0.00  0.00    +0.001 C 
ATOM     34  H   UNL     1      33.272 -14.699 -25.377  0.00  0.00    +0.152 HD
ENDBRANCH  24  26
ENDBRANCH  19  24
ENDBRANCH  18  19
ENDBRANCH   1  18
TORSDOF 7
ENDMDL
MODEL 3
REMARK VINA RESULT:     -13.3      2.278     11.118
REMARK  Name = 6914614
REMARK  7 active torsions:
REMARK  status: ('A' for Active; 'I' for Inactive)
REMARK    1  A    between atoms: O_1  and  C_4
REMARK    2  A    between atoms: O_1  and  C_18
REMARK    3  A    between atoms: C_9  and  C_13
REMARK    4  A    between atoms: C_18  and  C_19
REMARK    5  A    between atoms: C_19  and  N_20
REMARK    6  A    between atoms: C_19  and  C_24
REMARK    7  A    between atoms: C_24  and  C_26
REMARK                            x       y       z     vdW  Elec       q    Type
REMARK                         _______ _______ _______ _____ _____    ______ ____
ROOT
ATOM      1  O   UNL     1      35.093 -16.968 -21.182  0.00  0.00    -0.476 OA
ENDROOT
BRANCH   1   4
ATOM      2  N   UNL     1      32.789 -13.282 -23.286  0.00  0.00    -0.404 NA
ATOM      3  N   UNL     1      34.104 -16.412 -24.627  0.00  0.00    -0.258 NA
ATOM      4  C   UNL     1      34.553 -16.341 -22.262  0.00  0.00    +0.159 C 
ATOM      5  C   UNL     1      33.934 -15.088 -22.171  0.00  0.00    +0.063 C 
ATOM      6  C   UNL     1      33.393 -14.486 -23.320  0.00  0.00    +0.136 C 
ATOM      7  C   UNL     1      33.832 -14.397 -20.956  0.00  0.00    +0.008 C 
ATOM      8  C   UNL     1      34.610 -16.953 -23.501  0.00  0.00    +0.130 C 
ATOM      9  C   UNL     1      32.710 -12.647 -22.094  0.00  0.00    +0.131 C 
ATOM     10  C   UNL     1      33.210 -13.156 -20.912  0.00  0.00    +0.032 C 
ATOM     11  C   UNL     1      33.515 -15.200 -24.500  0.00  0.00    +0.184 C 
BRANCH   9  13
ATOM     12  N   UNL     1      30.773  -8.875 -22.206  0.00  0.00    -0.242 NA
ATOM     13  C   UNL     1      32.050 -11.364 -22.132  0.00  0.00    +0.033 C 
ATOM     14  C   UNL     1      32.380 -10.436 -23.116  0.00  0.00    +0.023 C 
ATOM     15  C   UNL     1      31.082 -11.045 -21.185  0.00  0.00    +0.023 C 
ATOM     16  C   UNL     1      31.718  -9.219 -23.110  0.00  0.00    +0.099 C 
ATOM     17  C   UNL     1      30.478  -9.800 -21.265  0.00  0.00    +0.099 C 
ENDBRANCH   9  13
ENDBRANCH   1   4
BRANCH   1  18
ATOM     18  C   UNL     1      35.512 -18.321 -21.357  0.00  0.00    +0.184 C 
BRANCH  18  19
ATOM     19  C   UNL     1      34.633 -19.296 -20.562  0.00  0.00    -0.017 C 
BRANCH  19  20
ATOM     20  N   UNL     1      33.440 -19.607 -21.359  0.00  0.00    +0.384 N 
ATOM     21  H   UNL     1      33.315 -18.893 -22.077  0.00  0.00    -0.089 HD
ATOM     22  H   UNL     1      32.621 -19.625 -20.752  0.00  0.00    -0.089 HD
ATOM     23  H   UNL     1      33.555 -20.518 -21.803  0.00  0.00    -0.089 HD
ENDBRANCH  19  20
BRANCH  19  24
ATOM     24  C   UNL     1      35.335 -20.618 -20.196  0.00  0.00    +0.009 C 
BRANCH  24  26
ATOM     25  N   UNL     1      33.265 -22.394 -17.770  0.00  0.00    -0.312 N 
ATOM     26  C   UNL     1      34.714 -21.325 -19.025  0.00  0.00    -0.008 C 
ATOM     27  C   UNL     1      35.334 -21.560 -17.784  0.00  0.00    +0.011 C 
ATOM     28  C   UNL     1      34.397 -22.241 -17.002  0.00  0.00    +0.048 C 
ATOM     29  C   UNL     1      33.453 -21.837 -19.006  0.00  0.00    +0.058 C 
ATOM     30  C   UNL     1      36.597 -21.271 -17.230  0.00  0.00    +0.001 C 
ATOM     31  C   UNL     1      34.662 -22.648 -15.690  0.00  0.00    +0.015 C 
ATOM     32  C   UNL     1      36.876 -21.671 -15.918  0.00  0.00    +0.000 C 
ATOM     33  C   UNL     1      35.921 -22.349 -15.161  0.00  0.00    +0.001 C 
ATOM     34  H   UNL     1      32.440 -22.841 -17.473  0.00  0.00    +0.152 HD
ENDBRANCH  24  26
ENDBRANCH  19  24
ENDBRANCH  18  19
ENDBRANCH   1  18
TORSDOF 7
ENDMDL
MODEL 4
REMARK VINA RESULT:     -13.1      2.373     10.956
REMARK  Name = 6914614
REMARK  7 active torsions:
REMARK  status: ('A' for Active; 'I' for Inactive)
REMARK    1  A    between atoms: O_1  and  C_4
REMARK    2  A    between atoms: O_1  and  C_18
REMARK    3  A    between atoms: C_9  and  C_13
REMARK    4  A    between atoms: C_18  and  C_19
REMARK    5  A    between atoms: C_19  and  N_20
REMARK    6  A    between atoms: C_19  and  C_24
REMARK    7  A    between atoms: C_24  and  C_26
REMARK                            x       y       z     vdW  Elec       q    Type
REMARK                         _______ _______ _______ _____ _____    ______ ____
ROOT
ATOM      1  O   UNL     1      35.076 -17.175 -20.950  0.00  0.00    -0.476 OA
ENDROOT
BRANCH   1   4
ATOM      2  N   UNL     1      32.874 -13.505 -23.187  0.00  0.00    -0.404 NA
ATOM      3  N   UNL     1      34.189 -16.676 -24.431  0.00  0.00    -0.258 NA
ATOM      4  C   UNL     1      34.573 -16.564 -22.056  0.00  0.00    +0.159 C 
ATOM      5  C   UNL     1      33.967 -15.302 -22.006  0.00  0.00    +0.063 C 
ATOM      6  C   UNL     1      33.465 -14.717 -23.181  0.00  0.00    +0.136 C 
ATOM      7  C   UNL     1      33.841 -14.586 -20.808  0.00  0.00    +0.008 C 
ATOM      8  C   UNL     1      34.657 -17.201 -23.281  0.00  0.00    +0.130 C 
ATOM      9  C   UNL     1      32.771 -12.846 -22.009  0.00  0.00    +0.131 C 
ATOM     10  C   UNL     1      33.232 -13.338 -20.804  0.00  0.00    +0.032 C 
ATOM     11  C   UNL     1      33.610 -15.455 -24.344  0.00  0.00    +0.184 C 
BRANCH   9  13
ATOM     12  N   UNL     1      30.879  -9.057 -22.248  0.00  0.00    -0.242 NA
ATOM     13  C   UNL     1      32.127 -11.557 -22.090  0.00  0.00    +0.033 C 
ATOM     14  C   UNL     1      31.151 -11.202 -21.164  0.00  0.00    +0.023 C 
ATOM     15  C   UNL     1      32.478 -10.661 -23.096  0.00  0.00    +0.023 C 
ATOM     16  C   UNL     1      30.564  -9.952 -21.284  0.00  0.00    +0.099 C 
ATOM     17  C   UNL     1      31.831  -9.436 -23.130  0.00  0.00    +0.099 C 
ENDBRANCH   9  13
ENDBRANCH   1   4
BRANCH   1  18
ATOM     18  C   UNL     1      35.526 -18.522 -21.098  0.00  0.00    +0.184 C 
BRANCH  18  19
ATOM     19  C   UNL     1      34.725 -19.490 -20.219  0.00  0.00    -0.017 C 
BRANCH  19  20
ATOM     20  N   UNL     1      33.420 -19.725 -20.850  0.00  0.00    +0.384 N 
ATOM     21  H   UNL     1      33.141 -20.695 -20.702  0.00  0.00    -0.089 HD
ATOM     22  H   UNL     1      33.488 -19.539 -21.850  0.00  0.00    -0.089 HD
ATOM     23  H   UNL     1      32.725 -19.105 -20.434  0.00  0.00    -0.089 HD
ENDBRANCH  19  20
BRANCH  19  24
ATOM     24  C   UNL     1      35.413 -20.851 -19.996  0.00  0.00    +0.009 C 
BRANCH  24  26
ATOM     25  N   UNL     1      36.116 -21.708 -16.517  0.00  0.00    -0.312 N 
ATOM     26  C   UNL     1      35.426 -21.289 -18.558  0.00  0.00    -0.008 C 
ATOM     27  C   UNL     1      34.337 -21.838 -17.856  0.00  0.00    +0.011 C 
ATOM     28  C   UNL     1      34.795 -22.096 -16.563  0.00  0.00    +0.048 C 
ATOM     29  C   UNL     1      36.505 -21.214 -17.733  0.00  0.00    +0.058 C 
ATOM     30  C   UNL     1      32.999 -22.147 -18.176  0.00  0.00    +0.001 C 
ATOM     31  C   UNL     1      33.981 -22.650 -15.568  0.00  0.00    +0.015 C 
ATOM     32  C   UNL     1      32.173 -22.701 -17.192  0.00  0.00    +0.000 C 
ATOM     33  C   UNL     1      32.658 -22.949 -15.908  0.00  0.00    +0.001 C 
ATOM     34  H   UNL     1      36.695 -21.775 -15.724  0.00  0.00    +0.152 HD
ENDBRANCH  24  26
ENDBRANCH  19  24
ENDBRANCH  18  19
ENDBRANCH   1  18
TORSDOF 7
ENDMDL
MODEL 5
REMARK VINA RESULT:     -12.8      2.385      9.949
REMARK  Name = 6914614
REMARK  7 active torsions:
REMARK  status: ('A' for Active; 'I' for Inactive)
REMARK    1  A    between atoms: O_1  and  C_4
REMARK    2  A    between atoms: O_1  and  C_18
REMARK    3  A    between atoms: C_9  and  C_13
REMARK    4  A    between atoms: C_18  and  C_19
REMARK    5  A    between atoms: C_19  and  N_20
REMARK    6  A    between atoms: C_19  and  C_24
REMARK    7  A    between atoms: C_24  and  C_26
REMARK                            x       y       z     vdW  Elec       q    Type
REMARK                         _______ _______ _______ _____ _____    ______ ____
ROOT
ATOM      1  O   UNL     1      35.972 -21.890 -18.231  0.00  0.00    -0.476 OA
ENDROOT
BRANCH   1   4
ATOM      2  N   UNL     1      33.439 -19.027 -21.182  0.00  0.00    -0.404 NA
ATOM      3  N   UNL     1      32.429 -21.772 -18.997  0.00  0.00    -0.258 NA
ATOM      4  C   UNL     1      34.812 -21.475 -18.806  0.00  0.00    +0.159 C 
ATOM      5  C   UNL     1      34.765 -20.421 -19.727  0.00  0.00    +0.063 C 
ATOM      6  C   UNL     1      33.538 -20.035 -20.292  0.00  0.00    +0.136 C 
ATOM      7  C   UNL     1      35.916 -19.723 -20.114  0.00  0.00    +0.008 C 
ATOM      8  C   UNL     1      33.627 -22.111 -18.480  0.00  0.00    +0.130 C 
ATOM      9  C   UNL     1      34.574 -18.378 -21.530  0.00  0.00    +0.131 C 
ATOM     10  C   UNL     1      35.824 -18.683 -21.030  0.00  0.00    +0.032 C 
ATOM     11  C   UNL     1      32.424 -20.749 -19.884  0.00  0.00    +0.184 C 
BRANCH   9  13
ATOM     12  N   UNL     1      34.043 -15.244 -24.338  0.00  0.00    -0.242 NA
ATOM     13  C   UNL     1      34.394 -17.311 -22.486  0.00  0.00    +0.033 C 
ATOM     14  C   UNL     1      34.620 -15.990 -22.112  0.00  0.00    +0.023 C 
ATOM     15  C   UNL     1      33.992 -17.597 -23.787  0.00  0.00    +0.023 C 
ATOM     16  C   UNL     1      34.434 -15.002 -23.066  0.00  0.00    +0.099 C 
ATOM     17  C   UNL     1      33.833 -16.538 -24.667  0.00  0.00    +0.099 C 
ENDBRANCH   9  13
ENDBRANCH   1   4
BRANCH   1  18
ATOM     18  C   UNL     1      36.182 -21.538 -16.863  0.00  0.00    +0.184 C 
BRANCH  18  19
ATOM     19  C   UNL     1      35.613 -22.596 -15.909  0.00  0.00    -0.017 C 
BRANCH  19  20
ATOM     20  N   UNL     1      36.730 -23.330 -15.303  0.00  0.00    +0.384 N 
ATOM     21  H   UNL     1      37.447 -23.502 -16.009  0.00  0.00    -0.089 HD
ATOM     22  H   UNL     1      36.394 -24.219 -14.936  0.00  0.00    -0.089 HD
ATOM     23  H   UNL     1      37.128 -22.777 -14.543  0.00  0.00    -0.089 HD
ENDBRANCH  19  20
BRANCH  19  24
ATOM     24  C   UNL     1      34.738 -22.016 -14.780  0.00  0.00    +0.009 C 
BRANCH  24  26
ATOM     25  N   UNL     1      32.883 -24.602 -12.991  0.00  0.00    -0.312 N 
ATOM     26  C   UNL     1      33.756 -23.002 -14.215  0.00  0.00    -0.008 C 
ATOM     27  C   UNL     1      32.420 -23.160 -14.628  0.00  0.00    +0.011 C 
ATOM     28  C   UNL     1      31.884 -24.180 -13.839  0.00  0.00    +0.048 C 
ATOM     29  C   UNL     1      34.028 -23.886 -13.216  0.00  0.00    +0.058 C 
ATOM     30  C   UNL     1      31.596 -22.546 -15.593  0.00  0.00    +0.001 C 
ATOM     31  C   UNL     1      30.561 -24.618 -13.965  0.00  0.00    +0.015 C 
ATOM     32  C   UNL     1      30.270 -22.973 -15.731  0.00  0.00    +0.000 C 
ATOM     33  C   UNL     1      29.763 -23.995 -14.929  0.00  0.00    +0.001 C 
ATOM     34  H   UNL     1      32.788 -25.315 -12.320  0.00  0.00    +0.152 HD
ENDBRANCH  24  26
ENDBRANCH  19  24
ENDBRANCH  18  19
ENDBRANCH   1  18
TORSDOF 7
ENDMDL
MODEL 6
REMARK VINA RESULT:     -12.7      3.104      6.351
REMARK  Name = 6914614
REMARK  7 active torsions:
REMARK  status: ('A' for Active; 'I' for Inactive)
REMARK    1  A    between atoms: O_1  and  C_4
REMARK    2  A    between atoms: O_1  and  C_18
REMARK    3  A    between atoms: C_9  and  C_13
REMARK    4  A    between atoms: C_18  and  C_19
REMARK    5  A    between atoms: C_19  and  N_20
REMARK    6  A    between atoms: C_19  and  C_24
REMARK    7  A    between atoms: C_24  and  C_26
REMARK                            x       y       z     vdW  Elec       q    Type
REMARK                         _______ _______ _______ _____ _____    ______ ____
ROOT
ATOM      1  O   UNL     1      36.059 -23.075 -15.850  0.00  0.00    -0.476 OA
ENDROOT
BRANCH   1   4
ATOM      2  N   UNL     1      31.507 -23.251 -14.249  0.00  0.00    -0.404 NA
ATOM      3  N   UNL     1      34.703 -23.742 -12.553  0.00  0.00    -0.258 NA
ATOM      4  C   UNL     1      35.131 -23.253 -14.873  0.00  0.00    +0.159 C 
ATOM      5  C   UNL     1      33.755 -23.147 -15.115  0.00  0.00    +0.063 C 
ATOM      6  C   UNL     1      32.840 -23.341 -14.067  0.00  0.00    +0.136 C 
ATOM      7  C   UNL     1      33.247 -22.851 -16.387  0.00  0.00    +0.008 C 
ATOM      8  C   UNL     1      35.547 -23.549 -13.587  0.00  0.00    +0.130 C 
ATOM      9  C   UNL     1      31.056 -22.962 -15.491  0.00  0.00    +0.131 C 
ATOM     10  C   UNL     1      31.876 -22.755 -16.583  0.00  0.00    +0.032 C 
ATOM     11  C   UNL     1      33.381 -23.633 -12.827  0.00  0.00    +0.184 C 
BRANCH   9  13
ATOM     12  N   UNL     1      26.836 -22.726 -15.844  0.00  0.00    -0.242 NA
ATOM     13  C   UNL     1      29.620 -22.882 -15.612  0.00  0.00    +0.033 C 
ATOM     14  C   UNL     1      28.914 -21.897 -14.926  0.00  0.00    +0.023 C 
ATOM     15  C   UNL     1      28.932 -23.788 -16.413  0.00  0.00    +0.023 C 
ATOM     16  C   UNL     1      27.537 -21.861 -15.075  0.00  0.00    +0.099 C 
ATOM     17  C   UNL     1      27.553 -23.668 -16.494  0.00  0.00    +0.099 C 
ENDBRANCH   9  13
ENDBRANCH   1   4
BRANCH   1  18
ATOM     18  C   UNL     1      36.777 -21.841 -15.851  0.00  0.00    +0.184 C 
BRANCH  18  19
ATOM     19  C   UNL     1      36.256 -20.880 -16.926  0.00  0.00    -0.017 C 
BRANCH  19  20
ATOM     20  N   UNL     1      37.130 -19.701 -16.964  0.00  0.00    +0.384 N 
ATOM     21  H   UNL     1      37.379 -19.494 -17.932  0.00  0.00    -0.089 HD
ATOM     22  H   UNL     1      37.977 -19.889 -16.428  0.00  0.00    -0.089 HD
ATOM     23  H   UNL     1      36.642 -18.902 -16.560  0.00  0.00    -0.089 HD
ENDBRANCH  19  20
BRANCH  19  24
ATOM     24  C   UNL     1      36.196 -21.491 -18.339  0.00  0.00    +0.009 C 
BRANCH  24  26
ATOM     25  N   UNL     1      33.248 -20.378 -20.183  0.00  0.00    -0.312 N 
ATOM     26  C   UNL     1      35.167 -20.852 -19.228  0.00  0.00    -0.008 C 
ATOM     27  C   UNL     1      35.411 -19.832 -20.166  0.00  0.00    +0.011 C 
ATOM     28  C   UNL     1      34.180 -19.545 -20.761  0.00  0.00    +0.048 C 
ATOM     29  C   UNL     1      33.846 -21.177 -19.246  0.00  0.00    +0.058 C 
ATOM     30  C   UNL     1      36.549 -19.111 -20.582  0.00  0.00    +0.001 C 
ATOM     31  C   UNL     1      34.029 -18.570 -21.754  0.00  0.00    +0.015 C 
ATOM     32  C   UNL     1      36.413 -18.133 -21.574  0.00  0.00    +0.000 C 
ATOM     33  C   UNL     1      35.172 -17.869 -22.150  0.00  0.00    +0.001 C 
ATOM     34  H   UNL     1      32.291 -20.395 -20.410  0.00  0.00    +0.152 HD
ENDBRANCH  24  26
ENDBRANCH  19  24
ENDBRANCH  18  19
ENDBRANCH   1  18
TORSDOF 7
ENDMDL
MODEL 7
REMARK VINA RESULT:     -12.5      2.525      3.880
REMARK  Name = 6914614
REMARK  7 active torsions:
REMARK  status: ('A' for Active; 'I' for Inactive)
REMARK    1  A    between atoms: O_1  and  C_4
REMARK    2  A    between atoms: O_1  and  C_18
REMARK    3  A    between atoms: C_9  and  C_13
REMARK    4  A    between atoms: C_18  and  C_19
REMARK    5  A    between atoms: C_19  and  N_20
REMARK    6  A    between atoms: C_19  and  C_24
REMARK    7  A    between atoms: C_24  and  C_26
REMARK                            x       y       z     vdW  Elec       q    Type
REMARK                         _______ _______ _______ _____ _____    ______ ____
ROOT
ATOM      1  O   UNL     1      35.046 -21.053 -19.682  0.00  0.00    -0.476 OA
ENDROOT
BRANCH   1   4
ATOM      2  N   UNL     1      33.441 -22.890 -15.514  0.00  0.00    -0.404 NA
ATOM      3  N   UNL     1      36.750 -21.751 -16.557  0.00  0.00    -0.258 NA
ATOM      4  C   UNL     1      35.222 -21.462 -18.397  0.00  0.00    +0.159 C 
ATOM      5  C   UNL     1      34.175 -21.978 -17.623  0.00  0.00    +0.063 C 
ATOM      6  C   UNL     1      34.414 -22.386 -16.300  0.00  0.00    +0.136 C 
ATOM      7  C   UNL     1      32.874 -22.106 -18.127  0.00  0.00    +0.008 C 
ATOM      8  C   UNL     1      36.477 -21.371 -17.822  0.00  0.00    +0.130 C 
ATOM      9  C   UNL     1      32.198 -22.996 -16.037  0.00  0.00    +0.131 C 
ATOM     10  C   UNL     1      31.865 -22.622 -17.324  0.00  0.00    +0.032 C 
ATOM     11  C   UNL     1      35.713 -22.245 -15.840  0.00  0.00    +0.184 C 
BRANCH   9  13
ATOM     12  N   UNL     1      29.288 -24.603 -13.402  0.00  0.00    -0.242 NA
ATOM     13  C   UNL     1      31.207 -23.543 -15.141  0.00  0.00    +0.033 C 
ATOM     14  C   UNL     1      31.575 -23.968 -13.868  0.00  0.00    +0.023 C 
ATOM     15  C   UNL     1      29.880 -23.649 -15.543  0.00  0.00    +0.023 C 
ATOM     16  C   UNL     1      30.587 -24.485 -13.044  0.00  0.00    +0.099 C 
ATOM     17  C   UNL     1      28.968 -24.180 -14.645  0.00  0.00    +0.099 C 
ENDBRANCH   9  13
ENDBRANCH   1   4
BRANCH   1  18
ATOM     18  C   UNL     1      35.796 -19.916 -20.112  0.00  0.00    +0.184 C 
BRANCH  18  19
ATOM     19  C   UNL     1      34.985 -19.026 -21.062  0.00  0.00    -0.017 C 
BRANCH  19  20
ATOM     20  N   UNL     1      33.566 -19.381 -20.941  0.00  0.00    +0.384 N 
ATOM     21  H   UNL     1      33.256 -19.839 -21.798  0.00  0.00    -0.089 HD
ATOM     22  H   UNL     1      33.016 -18.537 -20.788  0.00  0.00    -0.089 HD
ATOM     23  H   UNL     1      33.441 -20.016 -20.152  0.00  0.00    -0.089 HD
ENDBRANCH  19  20
BRANCH  19  24
ATOM     24  C   UNL     1      35.137 -17.517 -20.790  0.00  0.00    +0.009 C 
BRANCH  24  26
ATOM     25  N   UNL     1      34.342 -15.965 -23.998  0.00  0.00    -0.312 N 
ATOM     26  C   UNL     1      34.727 -16.653 -21.949  0.00  0.00    -0.008 C 
ATOM     27  C   UNL     1      34.208 -15.347 -21.859  0.00  0.00    +0.011 C 
ATOM     28  C   UNL     1      33.971 -14.929 -23.170  0.00  0.00    +0.048 C 
ATOM     29  C   UNL     1      34.804 -17.019 -23.257  0.00  0.00    +0.058 C 
ATOM     30  C   UNL     1      33.910 -14.465 -20.801  0.00  0.00    +0.001 C 
ATOM     31  C   UNL     1      33.447 -13.669 -23.478  0.00  0.00    +0.015 C 
ATOM     32  C   UNL     1      33.387 -13.200 -21.094  0.00  0.00    +0.000 C 
ATOM     33  C   UNL     1      33.160 -12.810 -22.413  0.00  0.00    +0.001 C 
ATOM     34  H   UNL     1      34.283 -15.949 -24.980  0.00  0.00    +0.152 HD
ENDBRANCH  24  26
ENDBRANCH  19  24
ENDBRANCH  18  19
ENDBRANCH   1  18
TORSDOF 7
ENDMDL
MODEL 8
REMARK VINA RESULT:     -12.4      4.429      8.131
REMARK  Name = 6914614
REMARK  7 active torsions:
REMARK  status: ('A' for Active; 'I' for Inactive)
REMARK    1  A    between atoms: O_1  and  C_4
REMARK    2  A    between atoms: O_1  and  C_18
REMARK    3  A    between atoms: C_9  and  C_13
REMARK    4  A    between atoms: C_18  and  C_19
REMARK    5  A    between atoms: C_19  and  N_20
REMARK    6  A    between atoms: C_19  and  C_24
REMARK    7  A    between atoms: C_24  and  C_26
REMARK                            x       y       z     vdW  Elec       q    Type
REMARK                         _______ _______ _______ _____ _____    ______ ____
ROOT
ATOM      1  O   UNL     1      33.487 -12.466 -22.895  0.00  0.00    -0.476 OA
ENDROOT
BRANCH   1   4
ATOM      2  N   UNL     1      34.156 -17.249 -22.882  0.00  0.00    -0.404 NA
ATOM      3  N   UNL     1      33.247 -14.926 -25.549  0.00  0.00    -0.258 NA
ATOM      4  C   UNL     1      33.522 -13.680 -23.506  0.00  0.00    +0.159 C 
ATOM      5  C   UNL     1      33.838 -14.859 -22.817  0.00  0.00    +0.063 C 
ATOM      6  C   UNL     1      33.859 -16.087 -23.499  0.00  0.00    +0.136 C 
ATOM      7  C   UNL     1      34.139 -14.860 -21.449  0.00  0.00    +0.008 C 
ATOM      8  C   UNL     1      33.238 -13.769 -24.856  0.00  0.00    +0.130 C 
ATOM      9  C   UNL     1      34.441 -17.208 -21.560  0.00  0.00    +0.131 C 
ATOM     10  C   UNL     1      34.447 -16.052 -20.806  0.00  0.00    +0.032 C 
ATOM     11  C   UNL     1      33.555 -16.044 -24.849  0.00  0.00    +0.184 C 
BRANCH   9  13
ATOM     12  N   UNL     1      35.348 -20.967 -19.817  0.00  0.00    -0.242 NA
ATOM     13  C   UNL     1      34.750 -18.487 -20.966  0.00  0.00    +0.033 C 
ATOM     14  C   UNL     1      36.065 -18.812 -20.648  0.00  0.00    +0.023 C 
ATOM     15  C   UNL     1      33.735 -19.404 -20.711  0.00  0.00    +0.023 C 
ATOM     16  C   UNL     1      36.309 -20.052 -20.079  0.00  0.00    +0.099 C 
ATOM     17  C   UNL     1      34.083 -20.618 -20.140  0.00  0.00    +0.099 C 
ENDBRANCH   9  13
ENDBRANCH   1   4
BRANCH   1  18
ATOM     18  C   UNL     1      32.270 -11.725 -22.988  0.00  0.00    +0.184 C 
BRANCH  18  19
ATOM     19  C   UNL     1      31.390 -11.917 -21.747  0.00  0.00    -0.017 C 
BRANCH  19  20
ATOM     20  N   UNL     1      32.259 -12.041 -20.571  0.00  0.00    +0.384 N 
ATOM     21  H   UNL     1      31.844 -12.697 -19.908  0.00  0.00    -0.089 HD
ATOM     22  H   UNL     1      32.362 -11.129 -20.126  0.00  0.00    -0.089 HD
ATOM     23  H   UNL     1      33.176 -12.384 -20.859  0.00  0.00    -0.089 HD
ENDBRANCH  19  20
BRANCH  19  24
ATOM     24  C   UNL     1      30.393 -10.768 -21.500  0.00  0.00    +0.009 C 
BRANCH  24  26
ATOM     25  N   UNL     1      31.652  -8.232 -19.194  0.00  0.00    -0.312 N 
ATOM     26  C   UNL     1      30.998  -9.589 -20.791  0.00  0.00    -0.008 C 
ATOM     27  C   UNL     1      31.628  -8.493 -21.409  0.00  0.00    +0.011 C 
ATOM     28  C   UNL     1      32.036  -7.644 -20.378  0.00  0.00    +0.048 C 
ATOM     29  C   UNL     1      31.019  -9.421 -19.441  0.00  0.00    +0.058 C 
ATOM     30  C   UNL     1      31.902  -8.121 -22.741  0.00  0.00    +0.001 C 
ATOM     31  C   UNL     1      32.707  -6.438 -20.612  0.00  0.00    +0.015 C 
ATOM     32  C   UNL     1      32.571  -6.918 -22.991  0.00  0.00    +0.000 C 
ATOM     33  C   UNL     1      32.966  -6.090 -21.942  0.00  0.00    +0.001 C 
ATOM     34  H   UNL     1      31.811  -7.854 -18.300  0.00  0.00    +0.152 HD
ENDBRANCH  24  26
ENDBRANCH  19  24
ENDBRANCH  18  19
ENDBRANCH   1  18
TORSDOF 7
ENDMDL
MODEL 9
REMARK VINA RESULT:     -12.3      3.359      9.666
REMARK  Name = 6914614
REMARK  7 active torsions:
REMARK  status: ('A' for Active; 'I' for Inactive)
REMARK    1  A    between atoms: O_1  and  C_4
REMARK    2  A    between atoms: O_1  and  C_18
REMARK    3  A    between atoms: C_9  and  C_13
REMARK    4  A    between atoms: C_18  and  C_19
REMARK    5  A    between atoms: C_19  and  N_20
REMARK    6  A    between atoms: C_19  and  C_24
REMARK    7  A    between atoms: C_24  and  C_26
REMARK                            x       y       z     vdW  Elec       q    Type
REMARK                         _______ _______ _______ _____ _____    ______ ____
ROOT
ATOM      1  O   UNL     1      34.055 -23.589 -15.540  0.00  0.00    -0.476 OA
ENDROOT
BRANCH   1   4
ATOM      2  N   UNL     1      36.115 -20.459 -18.586  0.00  0.00    -0.404 NA
ATOM      3  N   UNL     1      37.296 -21.961 -15.475  0.00  0.00    -0.258 NA
ATOM      4  C   UNL     1      35.082 -22.790 -15.937  0.00  0.00    +0.159 C 
ATOM      5  C   UNL     1      35.027 -22.024 -17.108  0.00  0.00    +0.063 C 
ATOM      6  C   UNL     1      36.117 -21.215 -17.471  0.00  0.00    +0.136 C 
ATOM      7  C   UNL     1      33.906 -22.032 -17.949  0.00  0.00    +0.008 C 
ATOM      8  C   UNL     1      36.227 -22.723 -15.165  0.00  0.00    +0.130 C 
ATOM      9  C   UNL     1      35.013 -20.495 -19.372  0.00  0.00    +0.131 C 
ATOM     10  C   UNL     1      33.895 -21.257 -19.101  0.00  0.00    +0.032 C 
ATOM     11  C   UNL     1      37.206 -21.234 -16.614  0.00  0.00    +0.184 C 
BRANCH   9  13
ATOM     12  N   UNL     1      35.210 -18.045 -22.829  0.00  0.00    -0.242 NA
ATOM     13  C   UNL     1      35.080 -19.661 -20.549  0.00  0.00    +0.033 C 
ATOM     14  C   UNL     1      36.221 -18.907 -20.809  0.00  0.00    +0.023 C 
ATOM     15  C   UNL     1      34.004 -19.605 -21.430  0.00  0.00    +0.023 C 
ATOM     16  C   UNL     1      36.236 -18.124 -21.952  0.00  0.00    +0.099 C 
ATOM     17  C   UNL     1      34.118 -18.790 -22.545  0.00  0.00    +0.099 C 
ENDBRANCH   9  13
ENDBRANCH   1   4
BRANCH   1  18
ATOM     18  C   UNL     1      34.271 -24.400 -14.385  0.00  0.00    +0.184 C 
BRANCH  18  19
ATOM     19  C   UNL     1      33.433 -23.926 -13.191  0.00  0.00    -0.017 C 
BRANCH  19  20
ATOM     20  N   UNL     1      34.316 -23.238 -12.243  0.00  0.00    +0.384 N 
ATOM     21  H   UNL     1      34.806 -22.481 -12.721  0.00  0.00    -0.089 HD
ATOM     22  H   UNL     1      34.996 -23.900 -11.870  0.00  0.00    -0.089 HD
ATOM     23  H   UNL     1      33.761 -22.853 -11.478  0.00  0.00    -0.089 HD
ENDBRANCH  19  20
BRANCH  19  24
ATOM     24  C   UNL     1      32.284 -22.971 -13.571  0.00  0.00    +0.009 C 
BRANCH  24  26
ATOM     25  N   UNL     1      29.304 -25.081 -13.626  0.00  0.00    -0.312 N 
ATOM     26  C   UNL     1      30.976 -23.671 -13.814  0.00  0.00    -0.008 C 
ATOM     27  C   UNL     1      30.036 -23.335 -14.806  0.00  0.00    +0.011 C 
ATOM     28  C   UNL     1      28.983 -24.242 -14.669  0.00  0.00    +0.048 C 
ATOM     29  C   UNL     1      30.521 -24.736 -13.100  0.00  0.00    +0.058 C 
ATOM     30  C   UNL     1      29.959 -22.353 -15.814  0.00  0.00    +0.001 C 
ATOM     31  C   UNL     1      27.851 -24.216 -15.493  0.00  0.00    +0.015 C 
ATOM     32  C   UNL     1      28.834 -22.315 -16.646  0.00  0.00    +0.000 C 
ATOM     33  C   UNL     1      27.797 -23.234 -16.486  0.00  0.00    +0.001 C 
ATOM     34  H   UNL     1      28.741 -25.821 -13.305  0.00  0.00    +0.152 HD
ENDBRANCH  24  26
ENDBRANCH  19  24
ENDBRANCH  18  19
ENDBRANCH   1  18
TORSDOF 7
ENDMDL
