MODEL 1
REMARK VINA RESULT:     -10.7      0.000      0.000
REMARK  Name = 65687
REMARK  3 active torsions:
REMARK  status: ('A' for Active; 'I' for Inactive)
REMARK    1  A    between atoms: C_3  and  C_18
REMARK    2  A    between atoms: C_5  and  O_16
REMARK    3  A    between atoms: C_18  and  N_19
REMARK                            x       y       z     vdW  Elec       q    Type
REMARK                         _______ _______ _______ _____ _____    ______ ____
ROOT
ATOM      1  O   UNL     1      34.898 -23.655 -15.595  0.00  0.00    -0.454 OA
ATOM      2  O   UNL     1      34.012 -23.465 -11.605  0.00  0.00    -0.286 OA
ATOM      3  C   UNL     1      32.704 -23.018 -16.164  0.00  0.00    +0.025 C 
ATOM      4  C   UNL     1      33.641 -23.302 -15.169  0.00  0.00    +0.145 A 
ATOM      5  C   UNL     1      31.403 -22.652 -15.812  0.00  0.00    +0.136 C 
ATOM      6  C   UNL     1      33.271 -23.218 -13.827  0.00  0.00    +0.073 A 
ATOM      7  C   UNL     1      31.038 -22.569 -14.469  0.00  0.00    +0.037 C 
ATOM      8  C   UNL     1      31.970 -22.853 -13.471  0.00  0.00    +0.009 C 
ATOM      9  C   UNL     1      34.276 -23.524 -12.796  0.00  0.00    +0.201 A 
ATOM     10  C   UNL     1      35.616 -23.899 -13.273  0.00  0.00    +0.074 A 
ATOM     11  C   UNL     1      35.850 -23.943 -14.647  0.00  0.00    +0.148 A 
ATOM     12  C   UNL     1      36.636 -24.207 -12.369  0.00  0.00    +0.006 C 
ATOM     13  C   UNL     1      37.115 -24.298 -15.122  0.00  0.00    +0.038 C 
ATOM     14  C   UNL     1      37.896 -24.560 -12.849  0.00  0.00    +0.000 C 
ATOM     15  C   UNL     1      38.136 -24.605 -14.224  0.00  0.00    +0.003 C 
ENDROOT
BRANCH   5  16
ATOM     16  O   UNL     1      30.475 -22.370 -16.770  0.00  0.00    -0.472 OA
ATOM     17  C   UNL     1      29.105 -22.417 -16.377  0.00  0.00    +0.252 C 
ENDBRANCH   5  16
BRANCH   3  18
ATOM     18  C   UNL     1      33.082 -23.103 -17.608  0.00  0.00    -0.044 C 
BRANCH  18  19
ATOM     19  N   UNL     1      33.538 -21.840 -18.191  0.00  0.00    +0.390 N 
ATOM     20  C   UNL     1      34.950 -21.939 -18.589  0.00  0.00    -0.077 C 
ATOM     21  C   UNL     1      32.690 -21.463 -19.330  0.00  0.00    -0.077 C 
ATOM     22  C   UNL     1      35.456 -20.612 -19.156  0.00  0.00    -0.023 C 
ATOM     23  C   UNL     1      33.123 -20.122 -19.921  0.00  0.00    -0.023 C 
ATOM     24  C   UNL     1      34.593 -20.140 -20.320  0.00  0.00    -0.004 C 
ATOM     25  H   UNL     1      33.461 -21.108 -17.485  0.00  0.00    -0.079 HD
ENDBRANCH  18  19
ENDBRANCH   3  18
TORSDOF 3
ENDMDL
MODEL 2
REMARK VINA RESULT:     -10.5      1.878      6.216
REMARK  Name = 65687
REMARK  3 active torsions:
REMARK  status: ('A' for Active; 'I' for Inactive)
REMARK    1  A    between atoms: C_3  and  C_18
REMARK    2  A    between atoms: C_5  and  O_16
REMARK    3  A    between atoms: C_18  and  N_19
REMARK                            x       y       z     vdW  Elec       q    Type
REMARK                         _______ _______ _______ _____ _____    ______ ____
ROOT
ATOM      1  O   UNL     1      35.592 -21.994 -16.564  0.00  0.00    -0.454 OA
ATOM      2  O   UNL     1      31.664 -22.570 -17.552  0.00  0.00    -0.286 OA
ATOM      3  C   UNL     1      35.277 -23.056 -14.486  0.00  0.00    +0.025 C 
ATOM      4  C   UNL     1      34.734 -22.629 -15.700  0.00  0.00    +0.145 A 
ATOM      5  C   UNL     1      34.469 -23.709 -13.553  0.00  0.00    +0.136 C 
ATOM      6  C   UNL     1      33.385 -22.857 -15.971  0.00  0.00    +0.073 A 
ATOM      7  C   UNL     1      33.121 -23.935 -13.830  0.00  0.00    +0.037 C 
ATOM      8  C   UNL     1      32.574 -23.509 -15.040  0.00  0.00    +0.009 C 
ATOM      9  C   UNL     1      32.836 -22.396 -17.256  0.00  0.00    +0.201 A 
ATOM     10  C   UNL     1      33.772 -21.720 -18.169  0.00  0.00    +0.074 A 
ATOM     11  C   UNL     1      35.098 -21.558 -17.769  0.00  0.00    +0.148 A 
ATOM     12  C   UNL     1      33.342 -21.247 -19.411  0.00  0.00    +0.006 C 
ATOM     13  C   UNL     1      36.002 -20.918 -18.619  0.00  0.00    +0.038 C 
ATOM     14  C   UNL     1      34.250 -20.609 -20.255  0.00  0.00    +0.000 C 
ATOM     15  C   UNL     1      35.579 -20.445 -19.861  0.00  0.00    +0.003 C 
ENDROOT
BRANCH   5  16
ATOM     16  O   UNL     1      34.982 -24.134 -12.363  0.00  0.00    -0.472 OA
ATOM     17  C   UNL     1      34.976 -23.200 -11.286  0.00  0.00    +0.252 C 
ENDBRANCH   5  16
BRANCH   3  18
ATOM     18  C   UNL     1      36.721 -22.820 -14.177  0.00  0.00    -0.044 C 
BRANCH  18  19
ATOM     19  N   UNL     1      37.562 -24.015 -14.258  0.00  0.00    +0.390 N 
ATOM     20  C   UNL     1      38.686 -23.789 -15.178  0.00  0.00    -0.077 C 
ATOM     21  C   UNL     1      38.037 -24.402 -12.923  0.00  0.00    -0.077 C 
ATOM     22  C   UNL     1      39.549 -25.045 -15.313  0.00  0.00    -0.023 C 
ATOM     23  C   UNL     1      38.878 -25.677 -12.984  0.00  0.00    -0.023 C 
ATOM     24  C   UNL     1      40.044 -25.526 -13.954  0.00  0.00    -0.004 C 
ATOM     25  H   UNL     1      37.003 -24.784 -14.629  0.00  0.00    -0.079 HD
ENDBRANCH  18  19
ENDBRANCH   3  18
TORSDOF 3
ENDMDL
MODEL 3
REMARK VINA RESULT:     -10.3      1.927      6.636
REMARK  Name = 65687
REMARK  3 active torsions:
REMARK  status: ('A' for Active; 'I' for Inactive)
REMARK    1  A    between atoms: C_3  and  C_18
REMARK    2  A    between atoms: C_5  and  O_16
REMARK    3  A    between atoms: C_18  and  N_19
REMARK                            x       y       z     vdW  Elec       q    Type
REMARK                         _______ _______ _______ _____ _____    ______ ____
ROOT
ATOM      1  O   UNL     1      35.604 -20.940 -18.337  0.00  0.00    -0.454 OA
ATOM      2  O   UNL     1      31.870 -20.965 -20.010  0.00  0.00    -0.286 OA
ATOM      3  C   UNL     1      34.888 -22.358 -16.598  0.00  0.00    +0.025 C 
ATOM      4  C   UNL     1      34.580 -21.655 -17.765  0.00  0.00    +0.145 A 
ATOM      5  C   UNL     1      33.902 -23.109 -15.955  0.00  0.00    +0.136 C 
ATOM      6  C   UNL     1      33.286 -21.706 -18.280  0.00  0.00    +0.073 A 
ATOM      7  C   UNL     1      32.609 -23.157 -16.476  0.00  0.00    +0.037 C 
ATOM      8  C   UNL     1      32.295 -22.456 -17.640  0.00  0.00    +0.009 C 
ATOM      9  C   UNL     1      32.984 -20.956 -19.510  0.00  0.00    +0.201 A 
ATOM     10  C   UNL     1      34.095 -20.198 -20.108  0.00  0.00    +0.074 A 
ATOM     11  C   UNL     1      35.342 -20.234 -19.486  0.00  0.00    +0.148 A 
ATOM     12  C   UNL     1      33.905 -19.455 -21.275  0.00  0.00    +0.006 C 
ATOM     13  C   UNL     1      36.409 -19.521 -20.036  0.00  0.00    +0.038 C 
ATOM     14  C   UNL     1      34.974 -18.745 -21.820  0.00  0.00    +0.000 C 
ATOM     15  C   UNL     1      36.226 -18.778 -21.202  0.00  0.00    +0.003 C 
ENDROOT
BRANCH   5  16
ATOM     16  O   UNL     1      34.185 -23.802 -14.816  0.00  0.00    -0.472 OA
ATOM     17  C   UNL     1      33.156 -23.879 -13.833  0.00  0.00    +0.252 C 
ENDBRANCH   5  16
BRANCH   3  18
ATOM     18  C   UNL     1      36.271 -22.315 -16.030  0.00  0.00    -0.044 C 
BRANCH  18  19
ATOM     19  N   UNL     1      36.436 -23.054 -14.778  0.00  0.00    +0.390 N 
ATOM     20  C   UNL     1      37.593 -23.957 -14.863  0.00  0.00    -0.077 C 
ATOM     21  C   UNL     1      36.569 -22.126 -13.646  0.00  0.00    -0.077 C 
ATOM     22  C   UNL     1      37.752 -24.773 -13.580  0.00  0.00    -0.023 C 
ATOM     23  C   UNL     1      36.694 -22.882 -12.324  0.00  0.00    -0.023 C 
ATOM     24  C   UNL     1      37.855 -23.869 -12.357  0.00  0.00    -0.004 C 
ATOM     25  H   UNL     1      35.605 -23.624 -14.622  0.00  0.00    -0.079 HD
ENDBRANCH  18  19
ENDBRANCH   3  18
TORSDOF 3
ENDMDL
MODEL 4
REMARK VINA RESULT:     -10.2      1.834      5.743
REMARK  Name = 65687
REMARK  3 active torsions:
REMARK  status: ('A' for Active; 'I' for Inactive)
REMARK    1  A    between atoms: C_3  and  C_18
REMARK    2  A    between atoms: C_5  and  O_16
REMARK    3  A    between atoms: C_18  and  N_19
REMARK                            x       y       z     vdW  Elec       q    Type
REMARK                         _______ _______ _______ _____ _____    ______ ____
ROOT
ATOM      1  O   UNL     1      33.600 -23.120 -15.748  0.00  0.00    -0.454 OA
ATOM      2  O   UNL     1      37.279 -21.370 -16.117  0.00  0.00    -0.286 OA
ATOM      3  C   UNL     1      34.067 -23.752 -13.528  0.00  0.00    +0.025 C 
ATOM      4  C   UNL     1      34.489 -23.124 -14.702  0.00  0.00    +0.145 A 
ATOM      5  C   UNL     1      34.914 -23.799 -12.419  0.00  0.00    +0.136 C 
ATOM      6  C   UNL     1      35.758 -22.548 -14.759  0.00  0.00    +0.073 A 
ATOM      7  C   UNL     1      36.182 -23.221 -12.482  0.00  0.00    +0.037 C 
ATOM      8  C   UNL     1      36.609 -22.594 -13.652  0.00  0.00    +0.009 C 
ATOM      9  C   UNL     1      36.182 -21.894 -16.007  0.00  0.00    +0.201 A 
ATOM     10  C   UNL     1      35.214 -21.900 -17.115  0.00  0.00    +0.074 A 
ATOM     11  C   UNL     1      33.977 -22.514 -16.921  0.00  0.00    +0.148 A 
ATOM     12  C   UNL     1      35.526 -21.304 -18.340  0.00  0.00    +0.006 C 
ATOM     13  C   UNL     1      33.043 -22.531 -17.960  0.00  0.00    +0.038 C 
ATOM     14  C   UNL     1      34.590 -21.324 -19.373  0.00  0.00    +0.000 C 
ATOM     15  C   UNL     1      33.349 -21.937 -19.184  0.00  0.00    +0.003 C 
ENDROOT
BRANCH   5  16
ATOM     16  O   UNL     1      34.519 -24.406 -11.265  0.00  0.00    -0.472 OA
ATOM     17  C   UNL     1      35.242 -24.079 -10.081  0.00  0.00    +0.252 C 
ENDBRANCH   5  16
BRANCH   3  18
ATOM     18  C   UNL     1      32.710 -24.375 -13.448  0.00  0.00    -0.044 C 
BRANCH  18  19
ATOM     19  N   UNL     1      31.690 -23.714 -14.262  0.00  0.00    +0.390 N 
ATOM     20  C   UNL     1      30.631 -24.665 -14.629  0.00  0.00    -0.077 C 
ATOM     21  C   UNL     1      31.137 -22.553 -13.552  0.00  0.00    -0.077 C 
ATOM     22  C   UNL     1      29.580 -24.004 -15.521  0.00  0.00    -0.023 C 
ATOM     23  C   UNL     1      30.104 -21.822 -14.408  0.00  0.00    -0.023 C 
ATOM     24  C   UNL     1      28.992 -22.763 -14.859  0.00  0.00    -0.004 C 
ATOM     25  H   UNL     1      32.123 -23.381 -15.123  0.00  0.00    -0.079 HD
ENDBRANCH  18  19
ENDBRANCH   3  18
TORSDOF 3
ENDMDL
MODEL 5
REMARK VINA RESULT:     -10.2      1.721      5.524
REMARK  Name = 65687
REMARK  3 active torsions:
REMARK  status: ('A' for Active; 'I' for Inactive)
REMARK    1  A    between atoms: C_3  and  C_18
REMARK    2  A    between atoms: C_5  and  O_16
REMARK    3  A    between atoms: C_18  and  N_19
REMARK                            x       y       z     vdW  Elec       q    Type
REMARK                         _______ _______ _______ _____ _____    ______ ____
ROOT
ATOM      1  O   UNL     1      34.656 -22.244 -16.312  0.00  0.00    -0.454 OA
ATOM      2  O   UNL     1      31.525 -21.707 -18.891  0.00  0.00    -0.286 OA
ATOM      3  C   UNL     1      33.233 -23.216 -14.708  0.00  0.00    +0.025 C 
ATOM      4  C   UNL     1      33.386 -22.635 -15.968  0.00  0.00    +0.145 A 
ATOM      5  C   UNL     1      31.972 -23.640 -14.283  0.00  0.00    +0.136 C 
ATOM      6  C   UNL     1      32.274 -22.481 -16.797  0.00  0.00    +0.073 A 
ATOM      7  C   UNL     1      30.864 -23.484 -15.117  0.00  0.00    +0.037 C 
ATOM      8  C   UNL     1      31.011 -22.903 -16.376  0.00  0.00    +0.009 C 
ATOM      9  C   UNL     1      32.459 -21.865 -18.120  0.00  0.00    +0.201 A 
ATOM     10  C   UNL     1      33.828 -21.454 -18.470  0.00  0.00    +0.074 A 
ATOM     11  C   UNL     1      34.849 -21.667 -17.544  0.00  0.00    +0.148 A 
ATOM     12  C   UNL     1      34.103 -20.860 -19.704  0.00  0.00    +0.006 C 
ATOM     13  C   UNL     1      36.155 -21.284 -17.855  0.00  0.00    +0.038 C 
ATOM     14  C   UNL     1      35.409 -20.479 -20.009  0.00  0.00    +0.000 C 
ATOM     15  C   UNL     1      36.435 -20.691 -19.086  0.00  0.00    +0.003 C 
ENDROOT
BRANCH   5  16
ATOM     16  O   UNL     1      31.804 -24.209 -13.056  0.00  0.00    -0.472 OA
ATOM     17  C   UNL     1      30.482 -24.611 -12.705  0.00  0.00    +0.252 C 
ENDBRANCH   5  16
BRANCH   3  18
ATOM     18  C   UNL     1      34.412 -23.389 -13.805  0.00  0.00    -0.044 C 
BRANCH  18  19
ATOM     19  N   UNL     1      35.557 -24.059 -14.424  0.00  0.00    +0.390 N 
ATOM     20  C   UNL     1      36.815 -23.569 -13.842  0.00  0.00    -0.077 C 
ATOM     21  C   UNL     1      35.438 -25.516 -14.281  0.00  0.00    -0.077 C 
ATOM     22  C   UNL     1      38.023 -24.223 -14.511  0.00  0.00    -0.023 C 
ATOM     23  C   UNL     1      36.602 -26.235 -14.965  0.00  0.00    -0.023 C 
ATOM     24  C   UNL     1      37.944 -25.744 -14.436  0.00  0.00    -0.004 C 
ATOM     25  H   UNL     1      35.565 -23.839 -15.420  0.00  0.00    -0.079 HD
ENDBRANCH  18  19
ENDBRANCH   3  18
TORSDOF 3
ENDMDL
MODEL 6
REMARK VINA RESULT:      -9.6     11.754     14.941
REMARK  Name = 65687
REMARK  3 active torsions:
REMARK  status: ('A' for Active; 'I' for Inactive)
REMARK    1  A    between atoms: C_3  and  C_18
REMARK    2  A    between atoms: C_5  and  O_16
REMARK    3  A    between atoms: C_18  and  N_19
REMARK                            x       y       z     vdW  Elec       q    Type
REMARK                         _______ _______ _______ _____ _____    ______ ____
ROOT
ATOM      1  O   UNL     1      32.212 -11.215 -23.652  0.00  0.00    -0.454 OA
ATOM      2  O   UNL     1      32.623 -13.875 -20.571  0.00  0.00    -0.286 OA
ATOM      3  C   UNL     1      31.540  -9.518 -22.164  0.00  0.00    +0.025 C 
ATOM      4  C   UNL     1      31.949 -10.839 -22.358  0.00  0.00    +0.145 A 
ATOM      5  C   UNL     1      31.253  -9.059 -20.877  0.00  0.00    +0.136 C 
ATOM      6  C   UNL     1      32.067 -11.693 -21.262  0.00  0.00    +0.073 A 
ATOM      7  C   UNL     1      31.374  -9.918 -19.784  0.00  0.00    +0.037 C 
ATOM      8  C   UNL     1      31.781 -11.238 -19.972  0.00  0.00    +0.009 C 
ATOM      9  C   UNL     1      32.498 -13.082 -21.491  0.00  0.00    +0.201 A 
ATOM     10  C   UNL     1      32.776 -13.463 -22.885  0.00  0.00    +0.074 A 
ATOM     11  C   UNL     1      32.616 -12.506 -23.886  0.00  0.00    +0.148 A 
ATOM     12  C   UNL     1      33.190 -14.760 -23.201  0.00  0.00    +0.006 C 
ATOM     13  C   UNL     1      32.873 -12.848 -25.216  0.00  0.00    +0.038 C 
ATOM     14  C   UNL     1      33.445 -15.094 -24.531  0.00  0.00    +0.000 C 
ATOM     15  C   UNL     1      33.288 -14.140 -25.537  0.00  0.00    +0.003 C 
ENDROOT
BRANCH   5  16
ATOM     16  O   UNL     1      30.853  -7.772 -20.668  0.00  0.00    -0.472 OA
ATOM     17  C   UNL     1      31.604  -7.006 -19.729  0.00  0.00    +0.252 C 
ENDBRANCH   5  16
BRANCH   3  18
ATOM     18  C   UNL     1      31.407  -8.587 -23.327  0.00  0.00    -0.044 C 
BRANCH  18  19
ATOM     19  N   UNL     1      32.088  -7.303 -23.157  0.00  0.00    +0.390 N 
ATOM     20  C   UNL     1      33.546  -7.494 -23.139  0.00  0.00    -0.077 C 
ATOM     21  C   UNL     1      31.689  -6.365 -24.215  0.00  0.00    -0.077 C 
ATOM     22  C   UNL     1      34.273  -6.168 -22.915  0.00  0.00    -0.023 C 
ATOM     23  C   UNL     1      32.355  -5.002 -24.025  0.00  0.00    -0.023 C 
ATOM     24  C   UNL     1      33.872  -5.132 -23.957  0.00  0.00    -0.004 C 
ATOM     25  H   UNL     1      31.814  -6.903 -22.260  0.00  0.00    -0.079 HD
ENDBRANCH  18  19
ENDBRANCH   3  18
TORSDOF 3
ENDMDL
MODEL 7
REMARK VINA RESULT:      -9.6      1.776      4.606
REMARK  Name = 65687
REMARK  3 active torsions:
REMARK  status: ('A' for Active; 'I' for Inactive)
REMARK    1  A    between atoms: C_3  and  C_18
REMARK    2  A    between atoms: C_5  and  O_16
REMARK    3  A    between atoms: C_18  and  N_19
REMARK                            x       y       z     vdW  Elec       q    Type
REMARK                         _______ _______ _______ _____ _____    ______ ____
ROOT
ATOM      1  O   UNL     1      33.849 -23.168 -14.908  0.00  0.00    -0.454 OA
ATOM      2  O   UNL     1      37.722 -22.133 -15.726  0.00  0.00    -0.286 OA
ATOM      3  C   UNL     1      33.149 -22.423 -17.030  0.00  0.00    +0.025 C 
ATOM      4  C   UNL     1      34.189 -22.611 -16.116  0.00  0.00    +0.145 A 
ATOM      5  C   UNL     1      33.413 -21.862 -18.281  0.00  0.00    +0.136 C 
ATOM      6  C   UNL     1      35.487 -22.234 -16.460  0.00  0.00    +0.073 A 
ATOM      7  C   UNL     1      34.713 -21.488 -18.619  0.00  0.00    +0.037 C 
ATOM      8  C   UNL     1      35.755 -21.672 -17.711  0.00  0.00    +0.009 C 
ATOM      9  C   UNL     1      36.566 -22.440 -15.481  0.00  0.00    +0.201 A 
ATOM     10  C   UNL     1      36.180 -23.039 -14.193  0.00  0.00    +0.074 A 
ATOM     11  C   UNL     1      34.842 -23.368 -13.981  0.00  0.00    +0.148 A 
ATOM     12  C   UNL     1      37.135 -23.272 -13.200  0.00  0.00    +0.006 C 
ATOM     13  C   UNL     1      34.455 -23.937 -12.765  0.00  0.00    +0.038 C 
ATOM     14  C   UNL     1      36.743 -23.840 -11.989  0.00  0.00    +0.000 C 
ATOM     15  C   UNL     1      35.404 -24.173 -11.771  0.00  0.00    +0.003 C 
ENDROOT
BRANCH   5  16
ATOM     16  O   UNL     1      32.411 -21.672 -19.185  0.00  0.00    -0.472 OA
ATOM     17  C   UNL     1      32.393 -20.427 -19.879  0.00  0.00    +0.252 C 
ENDBRANCH   5  16
BRANCH   3  18
ATOM     18  C   UNL     1      31.751 -22.821 -16.679  0.00  0.00    -0.044 C 
BRANCH  18  19
ATOM     19  N   UNL     1      31.574 -23.255 -15.293  0.00  0.00    +0.390 N 
ATOM     20  C   UNL     1      31.089 -22.142 -14.464  0.00  0.00    -0.077 C 
ATOM     21  C   UNL     1      30.659 -24.403 -15.226  0.00  0.00    -0.077 C 
ATOM     22  C   UNL     1      30.944 -22.565 -13.002  0.00  0.00    -0.023 C 
ATOM     23  C   UNL     1      30.500 -24.900 -13.789  0.00  0.00    -0.023 C 
ATOM     24  C   UNL     1      30.037 -23.781 -12.864  0.00  0.00    -0.004 C 
ATOM     25  H   UNL     1      32.477 -23.550 -14.924  0.00  0.00    -0.079 HD
ENDBRANCH  18  19
ENDBRANCH   3  18
TORSDOF 3
ENDMDL
MODEL 8
REMARK VINA RESULT:      -9.6      1.997      6.110
REMARK  Name = 65687
REMARK  3 active torsions:
REMARK  status: ('A' for Active; 'I' for Inactive)
REMARK    1  A    between atoms: C_3  and  C_18
REMARK    2  A    between atoms: C_5  and  O_16
REMARK    3  A    between atoms: C_18  and  N_19
REMARK                            x       y       z     vdW  Elec       q    Type
REMARK                         _______ _______ _______ _____ _____    ______ ____
ROOT
ATOM      1  O   UNL     1      33.225 -23.416 -14.445  0.00  0.00    -0.454 OA
ATOM      2  O   UNL     1      30.546 -22.625 -17.435  0.00  0.00    -0.286 OA
ATOM      3  C   UNL     1      34.995 -22.548 -15.733  0.00  0.00    +0.025 C 
ATOM      4  C   UNL     1      33.634 -22.840 -15.622  0.00  0.00    +0.145 A 
ATOM      5  C   UNL     1      35.490 -21.962 -16.900  0.00  0.00    +0.136 C 
ATOM      6  C   UNL     1      32.776 -22.545 -16.682  0.00  0.00    +0.073 A 
ATOM      7  C   UNL     1      34.627 -21.668 -17.955  0.00  0.00    +0.037 C 
ATOM      8  C   UNL     1      33.267 -21.959 -17.851  0.00  0.00    +0.009 C 
ATOM      9  C   UNL     1      31.346 -22.863 -16.543  0.00  0.00    +0.201 A 
ATOM     10  C   UNL     1      30.929 -23.478 -15.273  0.00  0.00    +0.074 A 
ATOM     11  C   UNL     1      31.894 -23.720 -14.296  0.00  0.00    +0.148 A 
ATOM     12  C   UNL     1      29.592 -23.817 -15.049  0.00  0.00    +0.006 C 
ATOM     13  C   UNL     1      31.519 -24.304 -13.085  0.00  0.00    +0.038 C 
ATOM     14  C   UNL     1      29.224 -24.399 -13.837  0.00  0.00    +0.000 C 
ATOM     15  C   UNL     1      30.186 -24.642 -12.855  0.00  0.00    +0.003 C 
ENDROOT
BRANCH   5  16
ATOM     16  O   UNL     1      36.816 -21.669 -17.024  0.00  0.00    -0.472 OA
ATOM     17  C   UNL     1      37.212 -20.330 -16.738  0.00  0.00    +0.252 C 
ENDBRANCH   5  16
BRANCH   3  18
ATOM     18  C   UNL     1      35.930 -22.858 -14.608  0.00  0.00    -0.044 C 
BRANCH  18  19
ATOM     19  N   UNL     1      36.854 -23.962 -14.873  0.00  0.00    +0.390 N 
ATOM     20  C   UNL     1      38.238 -23.549 -14.601  0.00  0.00    -0.077 C 
ATOM     21  C   UNL     1      36.486 -25.142 -14.080  0.00  0.00    -0.077 C 
ATOM     22  C   UNL     1      39.222 -24.676 -14.919  0.00  0.00    -0.023 C 
ATOM     23  C   UNL     1      37.412 -26.321 -14.381  0.00  0.00    -0.023 C 
ATOM     24  C   UNL     1      38.873 -25.949 -14.157  0.00  0.00    -0.004 C 
ATOM     25  H   UNL     1      36.790 -24.212 -15.859  0.00  0.00    -0.079 HD
ENDBRANCH  18  19
ENDBRANCH   3  18
TORSDOF 3
ENDMDL
MODEL 9
REMARK VINA RESULT:      -9.5      1.943      6.062
REMARK  Name = 65687
REMARK  3 active torsions:
REMARK  status: ('A' for Active; 'I' for Inactive)
REMARK    1  A    between atoms: C_3  and  C_18
REMARK    2  A    between atoms: C_5  and  O_16
REMARK    3  A    between atoms: C_18  and  N_19
REMARK                            x       y       z     vdW  Elec       q    Type
REMARK                         _______ _______ _______ _____ _____    ______ ____
ROOT
ATOM      1  O   UNL     1      34.224 -22.806 -16.754  0.00  0.00    -0.454 OA
ATOM      2  O   UNL     1      37.573 -20.457 -16.696  0.00  0.00    -0.286 OA
ATOM      3  C   UNL     1      34.685 -23.604 -14.587  0.00  0.00    +0.025 C 
ATOM      4  C   UNL     1      35.052 -22.787 -15.659  0.00  0.00    +0.145 A 
ATOM      5  C   UNL     1      35.475 -23.641 -13.436  0.00  0.00    +0.136 C 
ATOM      6  C   UNL     1      36.208 -22.012 -15.572  0.00  0.00    +0.073 A 
ATOM      7  C   UNL     1      36.630 -22.863 -13.355  0.00  0.00    +0.037 C 
ATOM      8  C   UNL     1      37.001 -22.046 -14.423  0.00  0.00    +0.009 C 
ATOM      9  C   UNL     1      36.575 -21.160 -16.714  0.00  0.00    +0.201 A 
ATOM     10  C   UNL     1      35.674 -21.194 -17.878  0.00  0.00    +0.074 A 
ATOM     11  C   UNL     1      34.549 -22.017 -17.830  0.00  0.00    +0.148 A 
ATOM     12  C   UNL     1      35.940 -20.420 -19.010  0.00  0.00    +0.006 C 
ATOM     13  C   UNL     1      33.682 -22.065 -18.924  0.00  0.00    +0.038 C 
ATOM     14  C   UNL     1      35.070 -20.472 -20.098  0.00  0.00    +0.000 C 
ATOM     15  C   UNL     1      33.942 -21.293 -20.056  0.00  0.00    +0.003 C 
ENDROOT
BRANCH   5  16
ATOM     16  O   UNL     1      35.132 -24.432 -12.380  0.00  0.00    -0.472 OA
ATOM     17  C   UNL     1      36.195 -24.920 -11.566  0.00  0.00    +0.252 C 
ENDBRANCH   5  16
BRANCH   3  18
ATOM     18  C   UNL     1      33.449 -24.442 -14.661  0.00  0.00    -0.044 C 
BRANCH  18  19
ATOM     19  N   UNL     1      32.228 -23.763 -14.227  0.00  0.00    +0.390 N 
ATOM     20  C   UNL     1      31.473 -23.272 -15.390  0.00  0.00    -0.077 C 
ATOM     21  C   UNL     1      31.407 -24.657 -13.401  0.00  0.00    -0.077 C 
ATOM     22  C   UNL     1      30.218 -22.516 -14.953  0.00  0.00    -0.023 C 
ATOM     23  C   UNL     1      30.150 -23.947 -12.898  0.00  0.00    -0.023 C 
ATOM     24  C   UNL     1      29.337 -23.377 -14.054  0.00  0.00    -0.004 C 
ATOM     25  H   UNL     1      32.487 -22.957 -13.659  0.00  0.00    -0.079 HD
ENDBRANCH  18  19
ENDBRANCH   3  18
TORSDOF 3
ENDMDL
