MODEL 1
REMARK VINA RESULT:     -12.8      0.000      0.000
REMARK  Name = 5288018
REMARK  3 active torsions:
REMARK  status: ('A' for Active; 'I' for Inactive)
REMARK    1  A    between atoms: C_9  and  N_24
REMARK    2  A    between atoms: C_10  and  C_17
REMARK    3  A    between atoms: N_23  and  N_29
REMARK                            x       y       z     vdW  Elec       q    Type
REMARK                         _______ _______ _______ _____ _____    ______ ____
ROOT
ATOM      1  O   UNL     1      31.875 -21.880 -18.099  0.00  0.00    -0.286 OA
ATOM      2  N   UNL     1      31.960 -23.613 -13.988  0.00  0.00    -0.278 N 
ATOM      3  N   UNL     1      33.317 -23.483 -13.990  0.00  0.00    -0.173 NA
ATOM      4  C   UNL     1      34.151 -22.044 -17.199  0.00  0.00    +0.054 C 
ATOM      5  C   UNL     1      32.362 -22.752 -15.929  0.00  0.00    +0.072 A 
ATOM      6  C   UNL     1      34.657 -22.522 -15.958  0.00  0.00    +0.024 C 
ATOM      7  C   UNL     1      33.533 -22.956 -15.186  0.00  0.00    +0.105 A 
ATOM      8  C   UNL     1      32.652 -22.180 -17.216  0.00  0.00    +0.199 C 
ATOM      9  C   UNL     1      34.989 -21.556 -18.161  0.00  0.00    +0.055 C 
ATOM     10  C   UNL     1      31.340 -23.183 -15.144  0.00  0.00    +0.073 A 
ATOM     11  C   UNL     1      36.004 -22.511 -15.676  0.00  0.00    +0.002 C 
ATOM     12  C   UNL     1      36.352 -21.536 -17.900  0.00  0.00    +0.015 C 
ATOM     13  C   UNL     1      36.855 -22.010 -16.667  0.00  0.00    +0.001 C 
ATOM     14  H   UNL     1      31.462 -23.984 -13.225  0.00  0.00    +0.189 HD
ENDROOT
BRANCH  10  17
ATOM     15  S   UNL     1      29.094 -21.912 -16.053  0.00  0.00    -0.075 S 
ATOM     16  N   UNL     1      27.729 -23.999 -15.372  0.00  0.00    -0.407 NA
ATOM     17  C   UNL     1      29.944 -23.229 -15.348  0.00  0.00    +0.141 C 
ATOM     18  C   UNL     1      29.050 -24.243 -15.055  0.00  0.00    +0.103 C 
ATOM     19  C   UNL     1      27.633 -22.801 -15.904  0.00  0.00    +0.135 C 
ATOM     20  C   UNL     1      29.382 -25.547 -14.441  0.00  0.00    +0.063 C 
ATOM     21  C   UNL     1      26.369 -22.190 -16.371  0.00  0.00    +0.074 C 
ENDBRANCH  10  17
BRANCH   9  24
ATOM     22  O   UNL     1      35.932 -19.280 -19.874  0.00  0.00    -0.251 OA
ATOM     23  N   UNL     1      34.223 -19.863 -21.319  0.00  0.00    -0.231 N 
ATOM     24  N   UNL     1      34.501 -21.079 -19.399  0.00  0.00    -0.267 N 
ATOM     25  C   UNL     1      34.983 -20.007 -20.158  0.00  0.00    +0.318 C 
ATOM     26  H   UNL     1      33.471 -20.471 -21.501  0.00  0.00    +0.171 HD
ATOM     27  H   UNL     1      33.727 -21.559 -19.773  0.00  0.00    +0.156 HD
BRANCH  23  29
ATOM     28  N   UNL     1      33.911 -16.432 -23.650  0.00  0.00    +0.387 N 
ATOM     29  N   UNL     1      34.537 -18.854 -22.210  0.00  0.00    -0.209 NA
ATOM     30  C   UNL     1      34.846 -16.425 -22.518  0.00  0.00    -0.058 C 
ATOM     31  C   UNL     1      33.929 -17.736 -24.324  0.00  0.00    -0.058 C 
ATOM     32  C   UNL     1      34.519 -17.553 -21.534  0.00  0.00    +0.069 C 
ATOM     33  C   UNL     1      33.603 -18.864 -23.340  0.00  0.00    +0.069 C 
ATOM     34  C   UNL     1      34.224 -15.357 -24.590  0.00  0.00    -0.101 C 
ATOM     35  H   UNL     1      32.970 -16.270 -23.290  0.00  0.00    -0.080 HD
ENDBRANCH  23  29
ENDBRANCH   9  24
TORSDOF 3
ENDMDL
MODEL 2
REMARK VINA RESULT:     -12.3      2.904      5.481
REMARK  Name = 5288018
REMARK  3 active torsions:
REMARK  status: ('A' for Active; 'I' for Inactive)
REMARK    1  A    between atoms: C_9  and  N_24
REMARK    2  A    between atoms: C_10  and  C_17
REMARK    3  A    between atoms: N_23  and  N_29
REMARK                            x       y       z     vdW  Elec       q    Type
REMARK                         _______ _______ _______ _____ _____    ______ ____
ROOT
ATOM      1  O   UNL     1      36.009 -22.467 -16.765  0.00  0.00    -0.286 OA
ATOM      2  N   UNL     1      34.268 -24.465 -13.175  0.00  0.00    -0.278 N 
ATOM      3  N   UNL     1      33.024 -24.173 -13.649  0.00  0.00    -0.173 NA
ATOM      4  C   UNL     1      33.557 -22.421 -16.765  0.00  0.00    +0.054 C 
ATOM      5  C   UNL     1      34.685 -23.427 -15.024  0.00  0.00    +0.072 A 
ATOM      6  C   UNL     1      32.590 -22.921 -15.848  0.00  0.00    +0.024 C 
ATOM      7  C   UNL     1      33.310 -23.540 -14.777  0.00  0.00    +0.105 A 
ATOM      8  C   UNL     1      34.939 -22.734 -16.258  0.00  0.00    +0.199 C 
ATOM      9  C   UNL     1      33.178 -21.770 -17.904  0.00  0.00    +0.055 C 
ATOM     10  C   UNL     1      35.305 -24.031 -13.977  0.00  0.00    +0.073 A 
ATOM     11  C   UNL     1      31.241 -22.771 -16.070  0.00  0.00    +0.002 C 
ATOM     12  C   UNL     1      31.821 -21.606 -18.149  0.00  0.00    +0.015 C 
ATOM     13  C   UNL     1      30.861 -22.103 -17.239  0.00  0.00    +0.001 C 
ATOM     14  H   UNL     1      34.416 -24.946 -12.329  0.00  0.00    +0.189 HD
ENDROOT
BRANCH  10  17
ATOM     15  S   UNL     1      37.623 -25.376 -14.524  0.00  0.00    -0.075 S 
ATOM     16  N   UNL     1      38.768 -24.015 -12.648  0.00  0.00    -0.407 NA
ATOM     17  C   UNL     1      36.669 -24.230 -13.671  0.00  0.00    +0.141 C 
ATOM     18  C   UNL     1      37.451 -23.608 -12.716  0.00  0.00    +0.103 C 
ATOM     19  C   UNL     1      38.973 -24.944 -13.555  0.00  0.00    +0.135 C 
ATOM     20  C   UNL     1      37.006 -22.558 -11.774  0.00  0.00    +0.063 C 
ATOM     21  C   UNL     1      40.267 -25.622 -13.783  0.00  0.00    +0.074 C 
ENDBRANCH  10  17
BRANCH   9  24
ATOM     22  O   UNL     1      32.871 -19.751 -20.102  0.00  0.00    -0.251 OA
ATOM     23  N   UNL     1      35.119 -20.096 -20.522  0.00  0.00    -0.231 N 
ATOM     24  N   UNL     1      34.126 -21.267 -18.824  0.00  0.00    -0.267 N 
ATOM     25  C   UNL     1      33.926 -20.320 -19.834  0.00  0.00    +0.318 C 
ATOM     26  H   UNL     1      35.938 -20.578 -20.269  0.00  0.00    +0.171 HD
ATOM     27  H   UNL     1      35.039 -21.627 -18.744  0.00  0.00    +0.156 HD
BRANCH  23  29
ATOM     28  N   UNL     1      34.005 -16.993 -23.059  0.00  0.00    +0.387 N 
ATOM     29  N   UNL     1      35.135 -19.190 -21.566  0.00  0.00    -0.209 NA
ATOM     30  C   UNL     1      35.180 -16.805 -22.199  0.00  0.00    -0.058 C 
ATOM     31  C   UNL     1      33.958 -18.368 -23.573  0.00  0.00    -0.058 C 
ATOM     32  C   UNL     1      35.183 -17.819 -21.050  0.00  0.00    +0.069 C 
ATOM     33  C   UNL     1      33.961 -19.381 -22.424  0.00  0.00    +0.069 C 
ATOM     34  C   UNL     1      34.004 -16.028 -24.156  0.00  0.00    -0.101 C 
ATOM     35  H   UNL     1      33.168 -16.832 -22.498  0.00  0.00    -0.080 HD
ENDBRANCH  23  29
ENDBRANCH   9  24
TORSDOF 3
ENDMDL
MODEL 3
REMARK VINA RESULT:     -11.3      2.983      6.145
REMARK  Name = 5288018
REMARK  3 active torsions:
REMARK  status: ('A' for Active; 'I' for Inactive)
REMARK    1  A    between atoms: C_9  and  N_24
REMARK    2  A    between atoms: C_10  and  C_17
REMARK    3  A    between atoms: N_23  and  N_29
REMARK                            x       y       z     vdW  Elec       q    Type
REMARK                         _______ _______ _______ _____ _____    ______ ____
ROOT
ATOM      1  O   UNL     1      34.438 -23.431 -16.441  0.00  0.00    -0.286 OA
ATOM      2  N   UNL     1      34.936 -24.282 -12.089  0.00  0.00    -0.278 N 
ATOM      3  N   UNL     1      33.603 -24.053 -11.919  0.00  0.00    -0.173 NA
ATOM      4  C   UNL     1      32.330 -23.237 -15.202  0.00  0.00    +0.054 C 
ATOM      5  C   UNL     1      34.267 -23.806 -14.088  0.00  0.00    +0.072 A 
ATOM      6  C   UNL     1      32.008 -23.413 -13.827  0.00  0.00    +0.024 C 
ATOM      7  C   UNL     1      33.222 -23.765 -13.154  0.00  0.00    +0.105 A 
ATOM      8  C   UNL     1      33.800 -23.486 -15.409  0.00  0.00    +0.199 C 
ATOM      9  C   UNL     1      31.371 -22.894 -16.112  0.00  0.00    +0.055 C 
ATOM     10  C   UNL     1      35.382 -24.143 -13.389  0.00  0.00    +0.073 A 
ATOM     11  C   UNL     1      30.725 -23.246 -13.359  0.00  0.00    +0.002 C 
ATOM     12  C   UNL     1      30.069 -22.719 -15.664  0.00  0.00    +0.015 C 
ATOM     13  C   UNL     1      29.750 -22.894 -14.298  0.00  0.00    +0.001 C 
ATOM     14  H   UNL     1      35.533 -24.527 -11.346  0.00  0.00    +0.189 HD
ENDROOT
BRANCH  10  17
ATOM     15  S   UNL     1      37.613 -25.723 -13.295  0.00  0.00    -0.075 S 
ATOM     16  N   UNL     1      38.815 -23.985 -14.784  0.00  0.00    -0.407 NA
ATOM     17  C   UNL     1      36.723 -24.337 -13.782  0.00  0.00    +0.141 C 
ATOM     18  C   UNL     1      37.529 -23.532 -14.567  0.00  0.00    +0.103 C 
ATOM     19  C   UNL     1      38.972 -25.132 -14.161  0.00  0.00    +0.135 C 
ATOM     20  C   UNL     1      37.139 -22.246 -15.185  0.00  0.00    +0.063 C 
ATOM     21  C   UNL     1      40.222 -25.923 -14.164  0.00  0.00    +0.074 C 
ENDBRANCH  10  17
BRANCH   9  24
ATOM     22  O   UNL     1      33.436 -21.164 -17.434  0.00  0.00    -0.251 OA
ATOM     23  N   UNL     1      32.632 -22.002 -19.434  0.00  0.00    -0.231 N 
ATOM     24  N   UNL     1      31.675 -22.715 -17.480  0.00  0.00    -0.267 N 
ATOM     25  C   UNL     1      32.655 -21.890 -18.044  0.00  0.00    +0.318 C 
ATOM     26  H   UNL     1      31.985 -22.598 -19.876  0.00  0.00    +0.171 HD
ATOM     27  H   UNL     1      31.130 -23.234 -18.116  0.00  0.00    +0.156 HD
BRANCH  23  29
ATOM     28  N   UNL     1      35.283 -19.004 -20.571  0.00  0.00    +0.387 N 
ATOM     29  N   UNL     1      33.527 -21.263 -20.185  0.00  0.00    -0.209 NA
ATOM     30  C   UNL     1      35.815 -20.348 -20.317  0.00  0.00    -0.058 C 
ATOM     31  C   UNL     1      33.985 -19.085 -21.253  0.00  0.00    -0.058 C 
ATOM     32  C   UNL     1      34.821 -21.184 -19.502  0.00  0.00    +0.069 C 
ATOM     33  C   UNL     1      32.992 -19.921 -20.439  0.00  0.00    +0.069 C 
ATOM     34  C   UNL     1      36.229 -18.208 -21.350  0.00  0.00    -0.101 C 
ATOM     35  H   UNL     1      35.144 -18.538 -19.673  0.00  0.00    -0.080 HD
ENDBRANCH  23  29
ENDBRANCH   9  24
TORSDOF 3
ENDMDL
MODEL 4
REMARK VINA RESULT:     -10.5      8.655     14.994
REMARK  Name = 5288018
REMARK  3 active torsions:
REMARK  status: ('A' for Active; 'I' for Inactive)
REMARK    1  A    between atoms: C_9  and  N_24
REMARK    2  A    between atoms: C_10  and  C_17
REMARK    3  A    between atoms: N_23  and  N_29
REMARK                            x       y       z     vdW  Elec       q    Type
REMARK                         _______ _______ _______ _____ _____    ______ ____
ROOT
ATOM      1  O   UNL     1      32.705  -9.020 -23.869  0.00  0.00    -0.286 OA
ATOM      2  N   UNL     1      31.876  -4.907 -22.350  0.00  0.00    -0.278 N 
ATOM      3  N   UNL     1      31.478  -5.453 -21.166  0.00  0.00    -0.173 NA
ATOM      4  C   UNL     1      31.862  -9.025 -21.566  0.00  0.00    +0.054 C 
ATOM      5  C   UNL     1      32.138  -7.027 -22.681  0.00  0.00    +0.072 A 
ATOM      6  C   UNL     1      31.470  -7.976 -20.688  0.00  0.00    +0.024 C 
ATOM      7  C   UNL     1      31.649  -6.746 -21.398  0.00  0.00    +0.105 A 
ATOM      8  C   UNL     1      32.304  -8.440 -22.880  0.00  0.00    +0.199 C 
ATOM      9  C   UNL     1      31.805 -10.332 -21.173  0.00  0.00    +0.055 C 
ATOM     10  C   UNL     1      32.284  -5.824 -23.298  0.00  0.00    +0.073 A 
ATOM     11  C   UNL     1      31.022  -8.233 -19.412  0.00  0.00    +0.002 C 
ATOM     12  C   UNL     1      31.355 -10.616 -19.890  0.00  0.00    +0.015 C 
ATOM     13  C   UNL     1      30.966  -9.574 -19.018  0.00  0.00    +0.001 C 
ATOM     14  H   UNL     1      31.872  -3.937 -22.516  0.00  0.00    +0.189 HD
ENDROOT
BRANCH  10  17
ATOM     15  S   UNL     1      34.066  -4.411 -24.817  0.00  0.00    -0.075 S 
ATOM     16  N   UNL     1      32.899  -5.349 -26.925  0.00  0.00    -0.407 NA
ATOM     17  C   UNL     1      32.734  -5.471 -24.588  0.00  0.00    +0.141 C 
ATOM     18  C   UNL     1      32.247  -5.863 -25.822  0.00  0.00    +0.103 C 
ATOM     19  C   UNL     1      33.876  -4.569 -26.515  0.00  0.00    +0.135 C 
ATOM     20  C   UNL     1      31.106  -6.774 -26.060  0.00  0.00    +0.063 C 
ATOM     21  C   UNL     1      34.796  -3.839 -27.414  0.00  0.00    +0.074 C 
ENDBRANCH  10  17
BRANCH   9  24
ATOM     22  O   UNL     1      32.529 -13.178 -20.558  0.00  0.00    -0.251 OA
ATOM     23  N   UNL     1      32.842 -13.427 -22.836  0.00  0.00    -0.231 N 
ATOM     24  N   UNL     1      32.190 -11.385 -22.033  0.00  0.00    -0.267 N 
ATOM     25  C   UNL     1      32.518 -12.700 -21.690  0.00  0.00    +0.318 C 
ATOM     26  H   UNL     1      32.819 -12.998 -23.722  0.00  0.00    +0.171 HD
ATOM     27  H   UNL     1      32.233 -11.165 -22.993  0.00  0.00    +0.156 HD
BRANCH  23  29
ATOM     28  N   UNL     1      35.132 -16.900 -22.775  0.00  0.00    +0.387 N 
ATOM     29  N   UNL     1      33.198 -14.757 -22.713  0.00  0.00    -0.209 NA
ATOM     30  C   UNL     1      34.597 -16.393 -21.505  0.00  0.00    -0.058 C 
ATOM     31  C   UNL     1      34.149 -16.729 -23.853  0.00  0.00    -0.058 C 
ATOM     32  C   UNL     1      34.178 -14.924 -21.636  0.00  0.00    +0.069 C 
ATOM     33  C   UNL     1      33.731 -15.261 -23.983  0.00  0.00    +0.069 C 
ATOM     34  C   UNL     1      35.528 -18.301 -22.650  0.00  0.00    -0.101 C 
ATOM     35  H   UNL     1      35.964 -16.357 -23.012  0.00  0.00    -0.080 HD
ENDBRANCH  23  29
ENDBRANCH   9  24
TORSDOF 3
ENDMDL
MODEL 5
REMARK VINA RESULT:     -10.4      1.589      2.107
REMARK  Name = 5288018
REMARK  3 active torsions:
REMARK  status: ('A' for Active; 'I' for Inactive)
REMARK    1  A    between atoms: C_9  and  N_24
REMARK    2  A    between atoms: C_10  and  C_17
REMARK    3  A    between atoms: N_23  and  N_29
REMARK                            x       y       z     vdW  Elec       q    Type
REMARK                         _______ _______ _______ _____ _____    ______ ____
ROOT
ATOM      1  O   UNL     1      33.574 -21.528 -16.639  0.00  0.00    -0.286 OA
ATOM      2  N   UNL     1      32.837 -24.790 -13.685  0.00  0.00    -0.278 N 
ATOM      3  N   UNL     1      34.185 -24.956 -13.571  0.00  0.00    -0.173 NA
ATOM      4  C   UNL     1      35.655 -22.520 -15.801  0.00  0.00    +0.054 C 
ATOM      5  C   UNL     1      33.624 -23.304 -15.042  0.00  0.00    +0.072 A 
ATOM      6  C   UNL     1      35.909 -23.564 -14.868  0.00  0.00    +0.024 C 
ATOM      7  C   UNL     1      34.638 -24.037 -14.410  0.00  0.00    +0.105 A 
ATOM      8  C   UNL     1      34.169 -22.323 -15.940  0.00  0.00    +0.199 C 
ATOM      9  C   UNL     1      36.679 -21.862 -16.420  0.00  0.00    +0.055 C 
ATOM     10  C   UNL     1      32.451 -23.800 -14.567  0.00  0.00    +0.073 A 
ATOM     11  C   UNL     1      37.191 -23.952 -14.552  0.00  0.00    +0.002 C 
ATOM     12  C   UNL     1      37.981 -22.235 -16.116  0.00  0.00    +0.015 C 
ATOM     13  C   UNL     1      38.234 -23.273 -15.190  0.00  0.00    +0.001 C 
ATOM     14  H   UNL     1      32.189 -25.333 -13.180  0.00  0.00    +0.189 HD
ENDROOT
BRANCH  10  17
ATOM     15  S   UNL     1      30.637 -22.717 -16.304  0.00  0.00    -0.075 S 
ATOM     16  N   UNL     1      28.788 -23.220 -14.569  0.00  0.00    -0.407 NA
ATOM     17  C   UNL     1      31.106 -23.466 -14.831  0.00  0.00    +0.141 C 
ATOM     18  C   UNL     1      29.987 -23.652 -14.039  0.00  0.00    +0.103 C 
ATOM     19  C   UNL     1      29.010 -22.709 -15.760  0.00  0.00    +0.135 C 
ATOM     20  C   UNL     1      29.963 -24.266 -12.694  0.00  0.00    +0.063 C 
ATOM     21  C   UNL     1      27.962 -22.141 -16.636  0.00  0.00    +0.074 C 
ENDBRANCH  10  17
BRANCH   9  24
ATOM     22  O   UNL     1      35.737 -21.978 -19.266  0.00  0.00    -0.251 OA
ATOM     23  N   UNL     1      35.892 -19.671 -19.249  0.00  0.00    -0.231 N 
ATOM     24  N   UNL     1      36.442 -20.823 -17.348  0.00  0.00    -0.267 N 
ATOM     25  C   UNL     1      36.000 -20.936 -18.671  0.00  0.00    +0.318 C 
ATOM     26  H   UNL     1      36.116 -18.865 -18.730  0.00  0.00    +0.171 HD
ATOM     27  H   UNL     1      36.609 -19.908 -17.026  0.00  0.00    +0.156 HD
BRANCH  23  29
ATOM     28  N   UNL     1      34.148 -18.159 -22.710  0.00  0.00    +0.387 N 
ATOM     29  N   UNL     1      35.470 -19.562 -20.560  0.00  0.00    -0.209 NA
ATOM     30  C   UNL     1      35.612 -18.257 -22.650  0.00  0.00    -0.058 C 
ATOM     31  C   UNL     1      33.528 -19.324 -22.066  0.00  0.00    -0.058 C 
ATOM     32  C   UNL     1      36.091 -18.399 -21.201  0.00  0.00    +0.069 C 
ATOM     33  C   UNL     1      34.007 -19.466 -20.617  0.00  0.00    +0.069 C 
ATOM     34  C   UNL     1      33.692 -18.027 -24.092  0.00  0.00    -0.101 C 
ATOM     35  H   UNL     1      33.862 -17.322 -22.202  0.00  0.00    -0.080 HD
ENDBRANCH  23  29
ENDBRANCH   9  24
TORSDOF 3
ENDMDL
MODEL 6
REMARK VINA RESULT:     -10.3     10.344     16.976
REMARK  Name = 5288018
REMARK  3 active torsions:
REMARK  status: ('A' for Active; 'I' for Inactive)
REMARK    1  A    between atoms: C_9  and  N_24
REMARK    2  A    between atoms: C_10  and  C_17
REMARK    3  A    between atoms: N_23  and  N_29
REMARK                            x       y       z     vdW  Elec       q    Type
REMARK                         _______ _______ _______ _____ _____    ______ ____
ROOT
ATOM      1  O   UNL     1      32.606  -6.845 -24.747  0.00  0.00    -0.286 OA
ATOM      2  N   UNL     1      31.663  -2.706 -23.374  0.00  0.00    -0.278 N 
ATOM      3  N   UNL     1      31.363  -3.211 -22.144  0.00  0.00    -0.173 NA
ATOM      4  C   UNL     1      31.900  -6.776 -22.399  0.00  0.00    +0.054 C 
ATOM      5  C   UNL     1      32.010  -4.825 -23.622  0.00  0.00    +0.072 A 
ATOM      6  C   UNL     1      31.509  -5.705 -21.549  0.00  0.00    +0.024 C 
ATOM      7  C   UNL     1      31.584  -4.504 -22.325  0.00  0.00    +0.105 A 
ATOM      8  C   UNL     1      32.235  -6.237 -23.764  0.00  0.00    +0.199 C 
ATOM      9  C   UNL     1      31.932  -8.063 -21.943  0.00  0.00    +0.055 C 
ATOM     10  C   UNL     1      32.059  -3.649 -24.301  0.00  0.00    +0.073 A 
ATOM     11  C   UNL     1      31.149  -5.919 -20.238  0.00  0.00    +0.002 C 
ATOM     12  C   UNL     1      31.573  -8.304 -20.624  0.00  0.00    +0.015 C 
ATOM     13  C   UNL     1      31.184  -7.240 -19.779  0.00  0.00    +0.001 C 
ATOM     14  H   UNL     1      31.601  -1.747 -23.585  0.00  0.00    +0.189 HD
ENDROOT
BRANCH  10  17
ATOM     15  S   UNL     1      31.326  -2.535 -26.690  0.00  0.00    -0.075 S 
ATOM     16  N   UNL     1      33.657  -3.164 -27.613  0.00  0.00    -0.407 NA
ATOM     17  C   UNL     1      32.415  -3.339 -25.631  0.00  0.00    +0.141 C 
ATOM     18  C   UNL     1      33.599  -3.589 -26.301  0.00  0.00    +0.103 C 
ATOM     19  C   UNL     1      32.514  -2.595 -27.927  0.00  0.00    +0.135 C 
ATOM     20  C   UNL     1      34.792  -4.262 -25.742  0.00  0.00    +0.063 C 
ATOM     21  C   UNL     1      32.203  -2.016 -29.252  0.00  0.00    +0.074 C 
ENDBRANCH  10  17
BRANCH   9  24
ATOM     22  O   UNL     1      31.855 -11.023 -21.456  0.00  0.00    -0.251 OA
ATOM     23  N   UNL     1      32.734 -11.239 -23.584  0.00  0.00    -0.231 N 
ATOM     24  N   UNL     1      32.317  -9.138 -22.776  0.00  0.00    -0.267 N 
ATOM     25  C   UNL     1      32.259 -10.507 -22.495  0.00  0.00    +0.318 C 
ATOM     26  H   UNL     1      33.048 -10.779 -24.395  0.00  0.00    +0.171 HD
ATOM     27  H   UNL     1      32.671  -8.894 -23.662  0.00  0.00    +0.156 HD
BRANCH  23  29
ATOM     28  N   UNL     1      34.063 -15.171 -23.864  0.00  0.00    +0.387 N 
ATOM     29  N   UNL     1      32.761 -12.619 -23.509  0.00  0.00    -0.209 NA
ATOM     30  C   UNL     1      33.879 -14.589 -22.529  0.00  0.00    -0.058 C 
ATOM     31  C   UNL     1      32.997 -14.727 -24.771  0.00  0.00    -0.058 C 
ATOM     32  C   UNL     1      33.826 -13.059 -22.603  0.00  0.00    +0.069 C 
ATOM     33  C   UNL     1      32.944 -13.198 -24.844  0.00  0.00    +0.069 C 
ATOM     34  C   UNL     1      34.110 -16.630 -23.793  0.00  0.00    -0.101 C 
ATOM     35  H   UNL     1      34.956 -14.845 -24.236  0.00  0.00    -0.080 HD
ENDBRANCH  23  29
ENDBRANCH   9  24
TORSDOF 3
ENDMDL
MODEL 7
REMARK VINA RESULT:     -10.2     11.191     18.485
REMARK  Name = 5288018
REMARK  3 active torsions:
REMARK  status: ('A' for Active; 'I' for Inactive)
REMARK    1  A    between atoms: C_9  and  N_24
REMARK    2  A    between atoms: C_10  and  C_17
REMARK    3  A    between atoms: N_23  and  N_29
REMARK                            x       y       z     vdW  Elec       q    Type
REMARK                         _______ _______ _______ _____ _____    ______ ____
ROOT
ATOM      1  O   UNL     1      32.492  -6.419 -25.448  0.00  0.00    -0.286 OA
ATOM      2  N   UNL     1      33.276  -2.105 -26.276  0.00  0.00    -0.278 N 
ATOM      3  N   UNL     1      32.512  -1.786 -25.194  0.00  0.00    -0.173 NA
ATOM      4  C   UNL     1      31.393  -4.940 -23.830  0.00  0.00    +0.054 C 
ATOM      5  C   UNL     1      32.658  -4.038 -25.533  0.00  0.00    +0.072 A 
ATOM      6  C   UNL     1      31.359  -3.524 -23.696  0.00  0.00    +0.024 C 
ATOM      7  C   UNL     1      32.149  -2.984 -24.761  0.00  0.00    +0.105 A 
ATOM      8  C   UNL     1      32.234  -5.312 -25.021  0.00  0.00    +0.199 C 
ATOM      9  C   UNL     1      30.727  -5.747 -22.952  0.00  0.00    +0.055 C 
ATOM     10  C   UNL     1      33.392  -3.459 -26.519  0.00  0.00    +0.073 A 
ATOM     11  C   UNL     1      30.659  -2.911 -22.683  0.00  0.00    +0.002 C 
ATOM     12  C   UNL     1      30.013  -5.152 -21.921  0.00  0.00    +0.015 C 
ATOM     13  C   UNL     1      29.979  -3.745 -21.789  0.00  0.00    +0.001 C 
ATOM     14  H   UNL     1      33.712  -1.425 -26.840  0.00  0.00    +0.189 HD
ENDROOT
BRANCH  10  17
ATOM     15  S   UNL     1      35.573  -4.906 -27.315  0.00  0.00    -0.075 S 
ATOM     16  N   UNL     1      34.809  -4.571 -29.762  0.00  0.00    -0.407 NA
ATOM     17  C   UNL     1      34.137  -4.003 -27.587  0.00  0.00    +0.141 C 
ATOM     18  C   UNL     1      33.894  -3.934 -28.947  0.00  0.00    +0.103 C 
ATOM     19  C   UNL     1      35.739  -5.118 -29.010  0.00  0.00    +0.135 C 
ATOM     20  C   UNL     1      32.756  -3.248 -29.596  0.00  0.00    +0.063 C 
ATOM     21  C   UNL     1      36.890  -5.888 -29.529  0.00  0.00    +0.074 C 
ENDBRANCH  10  17
BRANCH   9  24
ATOM     22  O   UNL     1      32.551  -7.773 -21.697  0.00  0.00    -0.251 OA
ATOM     23  N   UNL     1      31.315  -9.362 -22.837  0.00  0.00    -0.231 N 
ATOM     24  N   UNL     1      30.751  -7.155 -23.071  0.00  0.00    -0.267 N 
ATOM     25  C   UNL     1      31.629  -8.056 -22.460  0.00  0.00    +0.318 C 
ATOM     26  H   UNL     1      30.566  -9.537 -23.452  0.00  0.00    +0.171 HD
ATOM     27  H   UNL     1      30.066  -7.551 -23.658  0.00  0.00    +0.156 HD
BRANCH  23  29
ATOM     28  N   UNL     1      32.695 -13.216 -22.095  0.00  0.00    +0.387 N 
ATOM     29  N   UNL     1      32.069 -10.408 -22.340  0.00  0.00    -0.209 NA
ATOM     30  C   UNL     1      33.534 -12.315 -22.896  0.00  0.00    -0.058 C 
ATOM     31  C   UNL     1      32.051 -12.480 -21.000  0.00  0.00    -0.058 C 
ATOM     32  C   UNL     1      32.712 -11.139 -23.435  0.00  0.00    +0.069 C 
ATOM     33  C   UNL     1      31.229 -11.305 -21.539  0.00  0.00    +0.069 C 
ATOM     34  C   UNL     1      33.480 -14.335 -21.579  0.00  0.00    -0.101 C 
ATOM     35  H   UNL     1      31.965 -13.595 -22.699  0.00  0.00    -0.080 HD
ENDBRANCH  23  29
ENDBRANCH   9  24
TORSDOF 3
ENDMDL
MODEL 8
REMARK VINA RESULT:      -9.8     10.666     17.740
REMARK  Name = 5288018
REMARK  3 active torsions:
REMARK  status: ('A' for Active; 'I' for Inactive)
REMARK    1  A    between atoms: C_9  and  N_24
REMARK    2  A    between atoms: C_10  and  C_17
REMARK    3  A    between atoms: N_23  and  N_29
REMARK                            x       y       z     vdW  Elec       q    Type
REMARK                         _______ _______ _______ _____ _____    ______ ____
ROOT
ATOM      1  O   UNL     1      34.004  -6.654 -25.065  0.00  0.00    -0.286 OA
ATOM      2  N   UNL     1      32.720  -2.384 -25.237  0.00  0.00    -0.278 N 
ATOM      3  N   UNL     1      32.025  -2.574 -24.080  0.00  0.00    -0.173 NA
ATOM      4  C   UNL     1      32.566  -6.032 -23.178  0.00  0.00    +0.054 C 
ATOM      5  C   UNL     1      33.100  -4.462 -24.779  0.00  0.00    +0.072 A 
ATOM      6  C   UNL     1      31.931  -4.810 -22.820  0.00  0.00    +0.024 C 
ATOM      7  C   UNL     1      32.275  -3.850 -23.825  0.00  0.00    +0.105 A 
ATOM      8  C   UNL     1      33.339  -5.842 -24.455  0.00  0.00    +0.199 C 
ATOM      9  C   UNL     1      32.427  -7.151 -22.406  0.00  0.00    +0.055 C 
ATOM     10  C   UNL     1      33.387  -3.502 -25.697  0.00  0.00    +0.073 A 
ATOM     11  C   UNL     1      31.157  -4.703 -21.687  0.00  0.00    +0.002 C 
ATOM     12  C   UNL     1      31.650  -7.068 -21.259  0.00  0.00    +0.015 C 
ATOM     13  C   UNL     1      31.020  -5.853 -20.903  0.00  0.00    +0.001 C 
ATOM     14  H   UNL     1      32.745  -1.520 -25.707  0.00  0.00    +0.189 HD
ENDROOT
BRANCH  10  17
ATOM     15  S   UNL     1      35.443  -2.402 -27.127  0.00  0.00    -0.075 S 
ATOM     16  N   UNL     1      34.982  -4.140 -28.984  0.00  0.00    -0.407 NA
ATOM     17  C   UNL     1      34.164  -3.521 -26.875  0.00  0.00    +0.141 C 
ATOM     18  C   UNL     1      34.074  -4.363 -27.969  0.00  0.00    +0.103 C 
ATOM     19  C   UNL     1      35.754  -3.130 -28.650  0.00  0.00    +0.135 C 
ATOM     20  C   UNL     1      33.103  -5.465 -28.143  0.00  0.00    +0.063 C 
ATOM     21  C   UNL     1      36.849  -2.598 -29.490  0.00  0.00    +0.074 C 
ENDBRANCH  10  17
BRANCH   9  24
ATOM     22  O   UNL     1      31.258  -9.888 -22.786  0.00  0.00    -0.251 OA
ATOM     23  N   UNL     1      33.417 -10.575 -23.253  0.00  0.00    -0.231 N 
ATOM     24  N   UNL     1      33.050  -8.372 -22.749  0.00  0.00    -0.267 N 
ATOM     25  C   UNL     1      32.452  -9.626 -22.913  0.00  0.00    +0.318 C 
ATOM     26  H   UNL     1      34.362 -10.315 -23.342  0.00  0.00    +0.171 HD
ATOM     27  H   UNL     1      34.024  -8.337 -22.888  0.00  0.00    +0.156 HD
BRANCH  23  29
ATOM     28  N   UNL     1      33.557 -14.607 -24.267  0.00  0.00    +0.387 N 
ATOM     29  N   UNL     1      33.030 -11.886 -23.460  0.00  0.00    -0.209 NA
ATOM     30  C   UNL     1      33.409 -14.247 -22.851  0.00  0.00    -0.058 C 
ATOM     31  C   UNL     1      32.772 -13.700 -25.113  0.00  0.00    -0.058 C 
ATOM     32  C   UNL     1      33.815 -12.789 -22.613  0.00  0.00    +0.069 C 
ATOM     33  C   UNL     1      33.178 -12.242 -24.875  0.00  0.00    +0.069 C 
ATOM     34  C   UNL     1      33.167 -15.997 -24.493  0.00  0.00    -0.101 C 
ATOM     35  H   UNL     1      34.541 -14.511 -24.521  0.00  0.00    -0.080 HD
ENDBRANCH  23  29
ENDBRANCH   9  24
TORSDOF 3
ENDMDL
