MODEL 1
REMARK VINA RESULT:     -13.4      0.000      0.000
REMARK  Name = 10389239
REMARK  2 active torsions:
REMARK  status: ('A' for Active; 'I' for Inactive)
REMARK    1  A    between atoms: C_2  and  C_14
REMARK    2  A    between atoms: C_4  and  C_20
REMARK                            x       y       z     vdW  Elec       q    Type
REMARK                         _______ _______ _______ _____ _____    ______ ____
ROOT
ATOM      1  N   UNL     1      34.422 -16.950 -23.985  0.00  0.00    -0.244 NA
ATOM      2  C   UNL     1      33.440 -14.484 -23.112  0.00  0.00    +0.016 C 
ATOM      3  C   UNL     1      33.818 -15.450 -22.187  0.00  0.00    +0.020 C 
ATOM      4  C   UNL     1      34.298 -16.656 -22.671  0.00  0.00    +0.083 C 
ATOM      5  C   UNL     1      33.551 -14.748 -24.473  0.00  0.00    +0.022 C 
ATOM      6  C   UNL     1      34.044 -15.986 -24.853  0.00  0.00    +0.099 C 
ENDROOT
BRANCH   2  14
ATOM      7  O   UNL     1      32.218  -9.032 -23.609  0.00  0.00    -0.270 OA
ATOM      8  N   UNL     1      32.483 -13.017 -21.380  0.00  0.00    -0.316 N 
ATOM      9  N   UNL     1      31.232  -9.124 -21.521  0.00  0.00    -0.300 N 
ATOM     10  C   UNL     1      32.072 -11.723 -21.245  0.00  0.00    +0.031 C 
ATOM     11  C   UNL     1      31.542 -11.097 -20.011  0.00  0.00    +0.063 C 
ATOM     12  C   UNL     1      32.251 -11.074 -22.449  0.00  0.00    +0.064 C 
ATOM     13  C   UNL     1      30.659  -9.914 -20.425  0.00  0.00    +0.096 C 
ATOM     14  C   UNL     1      32.933 -13.209 -22.663  0.00  0.00    +0.048 C 
ATOM     15  C   UNL     1      32.807 -12.016 -23.347  0.00  0.00    +0.020 C 
ATOM     16  C   UNL     1      31.911  -9.673 -22.608  0.00  0.00    +0.247 C 
ATOM     17  H   UNL     1      32.459 -13.702 -20.673  0.00  0.00    +0.152 HD
ATOM     18  H   UNL     1      31.129  -8.145 -21.486  0.00  0.00    +0.150 HD
ENDBRANCH   2  14
BRANCH   4  20
ATOM     19  N   UNL     1      36.471 -18.786 -20.520  0.00  0.00    -0.244 NA
ATOM     20  C   UNL     1      34.709 -17.707 -21.770  0.00  0.00    +0.037 C 
ATOM     21  C   UNL     1      33.800 -18.635 -21.285  0.00  0.00    +0.005 C 
ATOM     22  C   UNL     1      34.223 -19.646 -20.411  0.00  0.00    +0.018 C 
ATOM     23  C   UNL     1      35.587 -19.686 -20.051  0.00  0.00    +0.081 C 
ATOM     24  C   UNL     1      36.023 -17.826 -21.361  0.00  0.00    +0.100 C 
ATOM     25  C   UNL     1      33.327 -20.602 -19.901  0.00  0.00    +0.001 C 
ATOM     26  C   UNL     1      36.006 -20.690 -19.184  0.00  0.00    +0.019 C 
ATOM     27  C   UNL     1      33.775 -21.596 -19.035  0.00  0.00    +0.000 C 
ATOM     28  C   UNL     1      35.116 -21.640 -18.676  0.00  0.00    +0.002 C 
ENDBRANCH   4  20
TORSDOF 2
ENDMDL
MODEL 2
REMARK VINA RESULT:     -13.4      6.604     11.846
REMARK  Name = 10389239
REMARK  2 active torsions:
REMARK  status: ('A' for Active; 'I' for Inactive)
REMARK    1  A    between atoms: C_2  and  C_14
REMARK    2  A    between atoms: C_4  and  C_20
REMARK                            x       y       z     vdW  Elec       q    Type
REMARK                         _______ _______ _______ _____ _____    ______ ____
ROOT
ATOM      1  N   UNL     1      31.989 -22.149 -17.649  0.00  0.00    -0.244 NA
ATOM      2  C   UNL     1      34.016 -23.141 -16.002  0.00  0.00    +0.016 C 
ATOM      3  C   UNL     1      34.333 -22.331 -17.086  0.00  0.00    +0.020 C 
ATOM      4  C   UNL     1      33.291 -21.864 -17.872  0.00  0.00    +0.083 C 
ATOM      5  C   UNL     1      32.688 -23.457 -15.739  0.00  0.00    +0.022 C 
ATOM      6  C   UNL     1      31.720 -22.939 -16.586  0.00  0.00    +0.099 C 
ENDROOT
BRANCH   2  14
ATOM      7  O   UNL     1      36.102 -25.487 -11.354  0.00  0.00    -0.270 OA
ATOM      8  N   UNL     1      36.389 -23.564 -15.494  0.00  0.00    -0.316 N 
ATOM      9  N   UNL     1      38.183 -25.488 -12.359  0.00  0.00    -0.300 N 
ATOM     10  C   UNL     1      37.141 -24.125 -14.502  0.00  0.00    +0.031 C 
ATOM     11  C   UNL     1      38.620 -24.209 -14.467  0.00  0.00    +0.063 C 
ATOM     12  C   UNL     1      36.297 -24.586 -13.514  0.00  0.00    +0.064 C 
ATOM     13  C   UNL     1      39.002 -25.394 -13.574  0.00  0.00    +0.096 C 
ATOM     14  C   UNL     1      35.063 -23.653 -15.150  0.00  0.00    +0.048 C 
ATOM     15  C   UNL     1      34.977 -24.279 -13.921  0.00  0.00    +0.020 C 
ATOM     16  C   UNL     1      36.814 -25.225 -12.318  0.00  0.00    +0.247 C 
ATOM     17  H   UNL     1      36.740 -23.161 -16.320  0.00  0.00    +0.152 HD
ATOM     18  H   UNL     1      38.628 -25.755 -11.522  0.00  0.00    +0.150 HD
ENDBRANCH   2  14
BRANCH   4  20
ATOM     19  N   UNL     1      32.696 -19.863 -20.958  0.00  0.00    -0.244 NA
ATOM     20  C   UNL     1      33.543 -21.018 -19.014  0.00  0.00    +0.037 C 
ATOM     21  C   UNL     1      34.817 -20.544 -19.291  0.00  0.00    +0.005 C 
ATOM     22  C   UNL     1      35.037 -19.724 -20.406  0.00  0.00    +0.018 C 
ATOM     23  C   UNL     1      33.933 -19.405 -21.224  0.00  0.00    +0.081 C 
ATOM     24  C   UNL     1      32.526 -20.652 -19.873  0.00  0.00    +0.100 C 
ATOM     25  C   UNL     1      36.315 -19.227 -20.713  0.00  0.00    +0.001 C 
ATOM     26  C   UNL     1      34.152 -18.590 -22.331  0.00  0.00    +0.019 C 
ATOM     27  C   UNL     1      36.506 -18.414 -21.828  0.00  0.00    +0.000 C 
ATOM     28  C   UNL     1      35.422 -18.095 -22.637  0.00  0.00    +0.002 C 
ENDBRANCH   4  20
TORSDOF 2
ENDMDL
MODEL 3
REMARK VINA RESULT:     -12.8      2.370      4.378
REMARK  Name = 10389239
REMARK  2 active torsions:
REMARK  status: ('A' for Active; 'I' for Inactive)
REMARK    1  A    between atoms: C_2  and  C_14
REMARK    2  A    between atoms: C_4  and  C_20
REMARK                            x       y       z     vdW  Elec       q    Type
REMARK                         _______ _______ _______ _____ _____    ______ ____
ROOT
ATOM      1  N   UNL     1      36.131 -19.959 -20.633  0.00  0.00    -0.244 NA
ATOM      2  C   UNL     1      35.068 -17.674 -21.841  0.00  0.00    +0.016 C 
ATOM      3  C   UNL     1      34.282 -18.442 -20.991  0.00  0.00    +0.020 C 
ATOM      4  C   UNL     1      34.855 -19.566 -20.417  0.00  0.00    +0.083 C 
ATOM      5  C   UNL     1      36.385 -18.046 -22.090  0.00  0.00    +0.022 C 
ATOM      6  C   UNL     1      36.864 -19.187 -21.465  0.00  0.00    +0.099 C 
ENDROOT
BRANCH   2  14
ATOM      7  O   UNL     1      33.069 -14.640 -26.114  0.00  0.00    -0.270 OA
ATOM      8  N   UNL     1      34.365 -15.314 -21.780  0.00  0.00    -0.316 N 
ATOM      9  N   UNL     1      32.623 -12.937 -24.618  0.00  0.00    -0.300 N 
ATOM     10  C   UNL     1      33.833 -14.381 -22.622  0.00  0.00    +0.031 C 
ATOM     11  C   UNL     1      33.533 -12.969 -22.285  0.00  0.00    +0.063 C 
ATOM     12  C   UNL     1      33.638 -14.960 -23.858  0.00  0.00    +0.064 C 
ATOM     13  C   UNL     1      32.432 -12.484 -23.235  0.00  0.00    +0.096 C 
ATOM     14  C   UNL     1      34.521 -16.494 -22.466  0.00  0.00    +0.048 C 
ATOM     15  C   UNL     1      34.083 -16.300 -23.761  0.00  0.00    +0.020 C 
ATOM     16  C   UNL     1      33.092 -14.202 -24.968  0.00  0.00    +0.247 C 
ATOM     17  H   UNL     1      34.597 -15.167 -20.835  0.00  0.00    +0.152 HD
ATOM     18  H   UNL     1      32.405 -12.307 -25.343  0.00  0.00    +0.150 HD
ENDBRANCH   2  14
BRANCH   4  20
ATOM     19  N   UNL     1      31.972 -21.342 -18.863  0.00  0.00    -0.244 NA
ATOM     20  C   UNL     1      34.100 -20.411 -19.523  0.00  0.00    +0.037 C 
ATOM     21  C   UNL     1      34.719 -21.098 -18.489  0.00  0.00    +0.005 C 
ATOM     22  C   UNL     1      33.964 -21.914 -17.635  0.00  0.00    +0.018 C 
ATOM     23  C   UNL     1      32.575 -22.007 -17.860  0.00  0.00    +0.081 C 
ATOM     24  C   UNL     1      32.735 -20.565 -19.665  0.00  0.00    +0.100 C 
ATOM     25  C   UNL     1      34.561 -22.624 -16.578  0.00  0.00    +0.001 C 
ATOM     26  C   UNL     1      31.826 -22.817 -17.011  0.00  0.00    +0.019 C 
ATOM     27  C   UNL     1      33.787 -23.426 -15.743  0.00  0.00    +0.000 C 
ATOM     28  C   UNL     1      32.419 -23.523 -15.961  0.00  0.00    +0.002 C 
ENDBRANCH   4  20
TORSDOF 2
ENDMDL
MODEL 4
REMARK VINA RESULT:     -12.4      3.293     10.603
REMARK  Name = 10389239
REMARK  2 active torsions:
REMARK  status: ('A' for Active; 'I' for Inactive)
REMARK    1  A    between atoms: C_2  and  C_14
REMARK    2  A    between atoms: C_4  and  C_20
REMARK                            x       y       z     vdW  Elec       q    Type
REMARK                         _______ _______ _______ _____ _____    ______ ____
ROOT
ATOM      1  N   UNL     1      30.917  -8.831 -21.099  0.00  0.00    -0.244 NA
ATOM      2  C   UNL     1      32.005 -11.268 -21.926  0.00  0.00    +0.016 C 
ATOM      3  C   UNL     1      32.105 -10.148 -22.743  0.00  0.00    +0.020 C 
ATOM      4  C   UNL     1      31.549  -8.963 -22.287  0.00  0.00    +0.083 C 
ATOM      5  C   UNL     1      31.361 -11.173 -20.697  0.00  0.00    +0.022 C 
ATOM      6  C   UNL     1      30.840  -9.942 -20.334  0.00  0.00    +0.099 C 
ENDROOT
BRANCH   2  14
ATOM      7  O   UNL     1      33.210 -15.314 -25.618  0.00  0.00    -0.270 OA
ATOM      8  N   UNL     1      33.153 -13.399 -21.466  0.00  0.00    -0.316 N 
ATOM      9  N   UNL     1      34.412 -16.387 -23.962  0.00  0.00    -0.300 N 
ATOM     10  C   UNL     1      33.586 -14.498 -22.149  0.00  0.00    +0.031 C 
ATOM     11  C   UNL     1      34.249 -15.687 -21.562  0.00  0.00    +0.063 C 
ATOM     12  C   UNL     1      33.285 -14.336 -23.485  0.00  0.00    +0.064 C 
ATOM     13  C   UNL     1      35.092 -16.344 -22.661  0.00  0.00    +0.096 C 
ATOM     14  C   UNL     1      32.567 -12.528 -22.352  0.00  0.00    +0.048 C 
ATOM     15  C   UNL     1      32.629 -13.088 -23.612  0.00  0.00    +0.020 C 
ATOM     16  C   UNL     1      33.617 -15.356 -24.461  0.00  0.00    +0.247 C 
ATOM     17  H   UNL     1      33.246 -13.253 -20.497  0.00  0.00    +0.152 HD
ATOM     18  H   UNL     1      34.526 -17.193 -24.515  0.00  0.00    +0.150 HD
ENDBRANCH   2  14
BRANCH   4  20
ATOM     19  N   UNL     1      30.466  -6.053 -24.347  0.00  0.00    -0.244 NA
ATOM     20  C   UNL     1      31.614  -7.759 -23.080  0.00  0.00    +0.037 C 
ATOM     21  C   UNL     1      32.826  -7.141 -23.351  0.00  0.00    +0.005 C 
ATOM     22  C   UNL     1      32.864  -5.972 -24.124  0.00  0.00    +0.018 C 
ATOM     23  C   UNL     1      31.643  -5.456 -24.609  0.00  0.00    +0.081 C 
ATOM     24  C   UNL     1      30.472  -7.180 -23.598  0.00  0.00    +0.100 C 
ATOM     25  C   UNL     1      34.075  -5.321 -24.416  0.00  0.00    +0.001 C 
ATOM     26  C   UNL     1      31.682  -4.295 -25.375  0.00  0.00    +0.019 C 
ATOM     27  C   UNL     1      34.084  -4.161 -25.186  0.00  0.00    +0.000 C 
ATOM     28  C   UNL     1      32.886  -3.648 -25.666  0.00  0.00    +0.002 C 
ENDBRANCH   4  20
TORSDOF 2
ENDMDL
MODEL 5
REMARK VINA RESULT:     -12.4      3.329     10.498
REMARK  Name = 10389239
REMARK  2 active torsions:
REMARK  status: ('A' for Active; 'I' for Inactive)
REMARK    1  A    between atoms: C_2  and  C_14
REMARK    2  A    between atoms: C_4  and  C_20
REMARK                            x       y       z     vdW  Elec       q    Type
REMARK                         _______ _______ _______ _____ _____    ______ ____
ROOT
ATOM      1  N   UNL     1      31.029  -9.169 -21.176  0.00  0.00    -0.244 NA
ATOM      2  C   UNL     1      32.209 -11.615 -21.837  0.00  0.00    +0.016 C 
ATOM      3  C   UNL     1      32.316 -10.533 -22.703  0.00  0.00    +0.020 C 
ATOM      4  C   UNL     1      31.713  -9.343 -22.330  0.00  0.00    +0.083 C 
ATOM      5  C   UNL     1      31.513 -11.477 -20.641  0.00  0.00    +0.022 C 
ATOM      6  C   UNL     1      30.947 -10.244 -20.360  0.00  0.00    +0.099 C 
ENDROOT
BRANCH   2  14
ATOM      7  O   UNL     1      34.861 -16.438 -20.760  0.00  0.00    -0.270 OA
ATOM      8  N   UNL     1      32.958 -13.292 -23.479  0.00  0.00    -0.316 N 
ATOM      9  N   UNL     1      34.642 -16.989 -22.993  0.00  0.00    -0.300 N 
ATOM     10  C   UNL     1      33.568 -14.513 -23.492  0.00  0.00    +0.031 C 
ATOM     11  C   UNL     1      33.929 -15.297 -24.696  0.00  0.00    +0.063 C 
ATOM     12  C   UNL     1      33.819 -14.896 -22.191  0.00  0.00    +0.064 C 
ATOM     13  C   UNL     1      33.993 -16.774 -24.292  0.00  0.00    +0.096 C 
ATOM     14  C   UNL     1      32.819 -12.879 -22.177  0.00  0.00    +0.048 C 
ATOM     15  C   UNL     1      33.351 -13.853 -21.356  0.00  0.00    +0.020 C 
ATOM     16  C   UNL     1      34.475 -16.154 -21.889  0.00  0.00    +0.247 C 
ATOM     17  H   UNL     1      32.665 -12.789 -24.273  0.00  0.00    +0.152 HD
ATOM     18  H   UNL     1      35.231 -17.772 -22.896  0.00  0.00    +0.150 HD
ENDBRANCH   2  14
BRANCH   4  20
ATOM     19  N   UNL     1      30.691  -6.680 -24.727  0.00  0.00    -0.244 NA
ATOM     20  C   UNL     1      31.782  -8.177 -23.178  0.00  0.00    +0.037 C 
ATOM     21  C   UNL     1      32.948  -7.433 -23.284  0.00  0.00    +0.005 C 
ATOM     22  C   UNL     1      32.990  -6.304 -24.114  0.00  0.00    +0.018 C 
ATOM     23  C   UNL     1      31.823  -5.959 -24.828  0.00  0.00    +0.081 C 
ATOM     24  C   UNL     1      30.691  -7.762 -23.915  0.00  0.00    +0.100 C 
ATOM     25  C   UNL     1      34.156  -5.528 -24.243  0.00  0.00    +0.001 C 
ATOM     26  C   UNL     1      31.866  -4.839 -25.652  0.00  0.00    +0.019 C 
ATOM     27  C   UNL     1      34.170  -4.412 -25.075  0.00  0.00    +0.000 C 
ATOM     28  C   UNL     1      33.024  -4.067 -25.780  0.00  0.00    +0.002 C 
ENDBRANCH   4  20
TORSDOF 2
ENDMDL
MODEL 6
REMARK VINA RESULT:     -12.4      4.537      9.570
REMARK  Name = 10389239
REMARK  2 active torsions:
REMARK  status: ('A' for Active; 'I' for Inactive)
REMARK    1  A    between atoms: C_2  and  C_14
REMARK    2  A    between atoms: C_4  and  C_20
REMARK                            x       y       z     vdW  Elec       q    Type
REMARK                         _______ _______ _______ _____ _____    ______ ____
ROOT
ATOM      1  N   UNL     1      35.903 -20.403 -20.023  0.00  0.00    -0.244 NA
ATOM      2  C   UNL     1      33.827 -21.384 -18.430  0.00  0.00    +0.016 C 
ATOM      3  C   UNL     1      33.552 -20.496 -19.463  0.00  0.00    +0.020 C 
ATOM      4  C   UNL     1      34.616 -20.038 -20.224  0.00  0.00    +0.083 C 
ATOM      5  C   UNL     1      35.137 -21.782 -18.190  0.00  0.00    +0.022 C 
ATOM      6  C   UNL     1      36.130 -21.268 -19.009  0.00  0.00    +0.099 C 
ENDROOT
BRANCH   2  14
ATOM      7  O   UNL     1      28.486 -21.981 -16.826  0.00  0.00    -0.270 OA
ATOM      8  N   UNL     1      32.996 -22.664 -16.496  0.00  0.00    -0.316 N 
ATOM      9  N   UNL     1      29.193 -23.511 -15.246  0.00  0.00    -0.300 N 
ATOM     10  C   UNL     1      31.803 -22.991 -15.920  0.00  0.00    +0.031 C 
ATOM     11  C   UNL     1      31.618 -23.790 -14.685  0.00  0.00    +0.063 C 
ATOM     12  C   UNL     1      30.784 -22.434 -16.664  0.00  0.00    +0.064 C 
ATOM     13  C   UNL     1      30.225 -24.426 -14.742  0.00  0.00    +0.096 C 
ATOM     14  C   UNL     1      32.756 -21.892 -17.606  0.00  0.00    +0.048 C 
ATOM     15  C   UNL     1      31.390 -21.729 -17.731  0.00  0.00    +0.020 C 
ATOM     16  C   UNL     1      29.394 -22.604 -16.285  0.00  0.00    +0.247 C 
ATOM     17  H   UNL     1      33.884 -22.937 -16.170  0.00  0.00    +0.152 HD
ATOM     18  H   UNL     1      28.304 -23.541 -14.823  0.00  0.00    +0.150 HD
ENDBRANCH   2  14
BRANCH   4  20
ATOM     19  N   UNL     1      33.867 -18.749 -23.638  0.00  0.00    -0.244 NA
ATOM     20  C   UNL     1      34.408 -19.115 -21.313  0.00  0.00    +0.037 C 
ATOM     21  C   UNL     1      34.536 -17.746 -21.130  0.00  0.00    +0.005 C 
ATOM     22  C   UNL     1      34.328 -16.869 -22.204  0.00  0.00    +0.018 C 
ATOM     23  C   UNL     1      33.992 -17.421 -23.458  0.00  0.00    +0.081 C 
ATOM     24  C   UNL     1      34.076 -19.561 -22.577  0.00  0.00    +0.100 C 
ATOM     25  C   UNL     1      34.449 -15.477 -22.051  0.00  0.00    +0.001 C 
ATOM     26  C   UNL     1      33.786 -16.549 -24.523  0.00  0.00    +0.019 C 
ATOM     27  C   UNL     1      34.238 -14.628 -23.134  0.00  0.00    +0.000 C 
ATOM     28  C   UNL     1      33.906 -15.165 -24.372  0.00  0.00    +0.002 C 
ENDBRANCH   4  20
TORSDOF 2
ENDMDL
MODEL 7
REMARK VINA RESULT:     -12.4      3.110      6.335
REMARK  Name = 10389239
REMARK  2 active torsions:
REMARK  status: ('A' for Active; 'I' for Inactive)
REMARK    1  A    between atoms: C_2  and  C_14
REMARK    2  A    between atoms: C_4  and  C_20
REMARK                            x       y       z     vdW  Elec       q    Type
REMARK                         _______ _______ _______ _____ _____    ______ ____
ROOT
ATOM      1  N   UNL     1      31.606 -11.320 -20.387  0.00  0.00    -0.244 NA
ATOM      2  C   UNL     1      31.386  -8.974 -21.888  0.00  0.00    +0.016 C 
ATOM      3  C   UNL     1      31.934 -10.116 -22.459  0.00  0.00    +0.020 C 
ATOM      4  C   UNL     1      32.022 -11.254 -21.672  0.00  0.00    +0.083 C 
ATOM      5  C   UNL     1      30.948  -9.001 -20.569  0.00  0.00    +0.022 C 
ATOM      6  C   UNL     1      31.079 -10.189 -19.868  0.00  0.00    +0.099 C 
ENDROOT
BRANCH   2  14
ATOM      7  O   UNL     1      29.907  -3.642 -22.803  0.00  0.00    -0.270 OA
ATOM      8  N   UNL     1      31.660  -7.699 -23.978  0.00  0.00    -0.316 N 
ATOM      9  N   UNL     1      30.951  -3.766 -24.860  0.00  0.00    -0.300 N 
ATOM     10  C   UNL     1      31.432  -6.437 -24.447  0.00  0.00    +0.031 C 
ATOM     11  C   UNL     1      31.687  -5.957 -25.826  0.00  0.00    +0.063 C 
ATOM     12  C   UNL     1      30.897  -5.677 -23.429  0.00  0.00    +0.064 C 
ATOM     13  C   UNL     1      31.893  -4.440 -25.763  0.00  0.00    +0.096 C 
ATOM     14  C   UNL     1      31.271  -7.761 -22.663  0.00  0.00    +0.048 C 
ATOM     15  C   UNL     1      30.787  -6.520 -22.297  0.00  0.00    +0.020 C 
ATOM     16  C   UNL     1      30.538  -4.287 -23.635  0.00  0.00    +0.247 C 
ATOM     17  H   UNL     1      32.043  -8.442 -24.498  0.00  0.00    +0.152 HD
ATOM     18  H   UNL     1      30.591  -2.894 -25.138  0.00  0.00    +0.150 HD
ENDBRANCH   2  14
BRANCH   4  20
ATOM     19  N   UNL     1      33.063 -13.880 -24.102  0.00  0.00    -0.244 NA
ATOM     20  C   UNL     1      32.579 -12.478 -22.196  0.00  0.00    +0.037 C 
ATOM     21  C   UNL     1      33.155 -13.422 -21.358  0.00  0.00    +0.005 C 
ATOM     22  C   UNL     1      33.690 -14.604 -21.890  0.00  0.00    +0.018 C 
ATOM     23  C   UNL     1      33.621 -14.795 -23.287  0.00  0.00    +0.081 C 
ATOM     24  C   UNL     1      32.558 -12.754 -23.549  0.00  0.00    +0.100 C 
ATOM     25  C   UNL     1      34.280 -15.580 -21.069  0.00  0.00    +0.001 C 
ATOM     26  C   UNL     1      34.153 -15.968 -23.814  0.00  0.00    +0.019 C 
ATOM     27  C   UNL     1      34.804 -16.744 -21.624  0.00  0.00    +0.000 C 
ATOM     28  C   UNL     1      34.740 -16.938 -22.998  0.00  0.00    +0.002 C 
ENDBRANCH   4  20
TORSDOF 2
ENDMDL
MODEL 8
REMARK VINA RESULT:     -12.2      6.591     11.684
REMARK  Name = 10389239
REMARK  2 active torsions:
REMARK  status: ('A' for Active; 'I' for Inactive)
REMARK    1  A    between atoms: C_2  and  C_14
REMARK    2  A    between atoms: C_4  and  C_20
REMARK                            x       y       z     vdW  Elec       q    Type
REMARK                         _______ _______ _______ _____ _____    ______ ____
ROOT
ATOM      1  N   UNL     1      32.322 -21.929 -18.159  0.00  0.00    -0.244 NA
ATOM      2  C   UNL     1      33.747 -23.034 -16.025  0.00  0.00    +0.016 C 
ATOM      3  C   UNL     1      34.401 -22.249 -16.967  0.00  0.00    +0.020 C 
ATOM      4  C   UNL     1      33.650 -21.724 -18.007  0.00  0.00    +0.083 C 
ATOM      5  C   UNL     1      32.382 -23.269 -16.148  0.00  0.00    +0.022 C 
ATOM      6  C   UNL     1      31.721 -22.698 -17.224  0.00  0.00    +0.099 C 
ENDROOT
BRANCH   2  14
ATOM      7  O   UNL     1      37.249 -26.673 -13.584  0.00  0.00    -0.270 OA
ATOM      8  N   UNL     1      34.334 -23.148 -13.635  0.00  0.00    -0.316 N 
ATOM      9  N   UNL     1      37.033 -25.472 -11.621  0.00  0.00    -0.300 N 
ATOM     10  C   UNL     1      35.145 -23.875 -12.812  0.00  0.00    +0.031 C 
ATOM     11  C   UNL     1      35.265 -23.721 -11.344  0.00  0.00    +0.063 C 
ATOM     12  C   UNL     1      35.827 -24.803 -13.571  0.00  0.00    +0.064 C 
ATOM     13  C   UNL     1      36.647 -24.237 -10.929  0.00  0.00    +0.096 C 
ATOM     14  C   UNL     1      34.482 -23.605 -14.922  0.00  0.00    +0.048 C 
ATOM     15  C   UNL     1      35.400 -24.637 -14.910  0.00  0.00    +0.020 C 
ATOM     16  C   UNL     1      36.762 -25.732 -12.963  0.00  0.00    +0.247 C 
ATOM     17  H   UNL     1      33.740 -22.416 -13.353  0.00  0.00    +0.152 HD
ATOM     18  H   UNL     1      37.514 -26.159 -11.105  0.00  0.00    +0.150 HD
ENDBRANCH   2  14
BRANCH   4  20
ATOM     19  N   UNL     1      36.241 -19.849 -19.917  0.00  0.00    -0.244 NA
ATOM     20  C   UNL     1      34.259 -20.900 -19.022  0.00  0.00    +0.037 C 
ATOM     21  C   UNL     1      33.510 -20.364 -20.060  0.00  0.00    +0.005 C 
ATOM     22  C   UNL     1      34.125 -19.566 -21.034  0.00  0.00    +0.018 C 
ATOM     23  C   UNL     1      35.512 -19.330 -20.922  0.00  0.00    +0.081 C 
ATOM     24  C   UNL     1      35.610 -20.613 -18.997  0.00  0.00    +0.100 C 
ATOM     25  C   UNL     1      33.394 -19.009 -22.098  0.00  0.00    +0.001 C 
ATOM     26  C   UNL     1      36.121 -18.538 -21.890  0.00  0.00    +0.019 C 
ATOM     27  C   UNL     1      34.030 -18.220 -23.052  0.00  0.00    +0.000 C 
ATOM     28  C   UNL     1      35.395 -17.984 -22.948  0.00  0.00    +0.002 C 
ENDBRANCH   4  20
TORSDOF 2
ENDMDL
MODEL 9
REMARK VINA RESULT:     -12.2      4.003      7.254
REMARK  Name = 10389239
REMARK  2 active torsions:
REMARK  status: ('A' for Active; 'I' for Inactive)
REMARK    1  A    between atoms: C_2  and  C_14
REMARK    2  A    between atoms: C_4  and  C_20
REMARK                            x       y       z     vdW  Elec       q    Type
REMARK                         _______ _______ _______ _____ _____    ______ ____
ROOT
ATOM      1  N   UNL     1      35.058 -21.980 -17.869  0.00  0.00    -0.244 NA
ATOM      2  C   UNL     1      34.669 -20.158 -19.951  0.00  0.00    +0.016 C 
ATOM      3  C   UNL     1      33.581 -20.626 -19.223  0.00  0.00    +0.020 C 
ATOM      4  C   UNL     1      33.827 -21.529 -18.200  0.00  0.00    +0.083 C 
ATOM      5  C   UNL     1      35.950 -20.600 -19.642  0.00  0.00    +0.022 C 
ATOM      6  C   UNL     1      36.090 -21.503 -18.599  0.00  0.00    +0.099 C 
ENDROOT
BRANCH   2  14
ATOM      7  O   UNL     1      33.155 -18.578 -25.115  0.00  0.00    -0.270 OA
ATOM      8  N   UNL     1      34.853 -17.902 -20.923  0.00  0.00    -0.316 N 
ATOM      9  N   UNL     1      33.593 -16.391 -24.510  0.00  0.00    -0.300 N 
ATOM     10  C   UNL     1      34.545 -17.259 -22.086  0.00  0.00    +0.031 C 
ATOM     11  C   UNL     1      34.818 -15.836 -22.398  0.00  0.00    +0.063 C 
ATOM     12  C   UNL     1      33.953 -18.160 -22.946  0.00  0.00    +0.064 C 
ATOM     13  C   UNL     1      33.810 -15.387 -23.462  0.00  0.00    +0.096 C 
ATOM     14  C   UNL     1      34.469 -19.217 -21.027  0.00  0.00    +0.048 C 
ATOM     15  C   UNL     1      33.913 -19.405 -22.276  0.00  0.00    +0.020 C 
ATOM     16  C   UNL     1      33.524 -17.763 -24.275  0.00  0.00    +0.247 C 
ATOM     17  H   UNL     1      35.280 -17.491 -20.136  0.00  0.00    +0.152 HD
ATOM     18  H   UNL     1      33.488 -16.075 -25.437  0.00  0.00    +0.150 HD
ENDBRANCH   2  14
BRANCH   4  20
ATOM     19  N   UNL     1      30.375 -22.341 -17.060  0.00  0.00    -0.244 NA
ATOM     20  C   UNL     1      32.748 -22.058 -17.401  0.00  0.00    +0.037 C 
ATOM     21  C   UNL     1      32.998 -22.772 -16.238  0.00  0.00    +0.005 C 
ATOM     22  C   UNL     1      31.934 -23.277 -15.479  0.00  0.00    +0.018 C 
ATOM     23  C   UNL     1      30.620 -23.034 -15.932  0.00  0.00    +0.081 C 
ATOM     24  C   UNL     1      31.429 -21.871 -17.764  0.00  0.00    +0.100 C 
ATOM     25  C   UNL     1      32.153 -24.005 -14.297  0.00  0.00    +0.001 C 
ATOM     26  C   UNL     1      29.563 -23.535 -15.177  0.00  0.00    +0.019 C 
ATOM     27  C   UNL     1      31.077 -24.494 -13.561  0.00  0.00    +0.000 C 
ATOM     28  C   UNL     1      29.781 -24.259 -14.002  0.00  0.00    +0.002 C 
ENDBRANCH   4  20
TORSDOF 2
ENDMDL
