MODEL 1
REMARK VINA RESULT:     -11.8      0.000      0.000
REMARK  Name = 16741245
REMARK  7 active torsions:
REMARK  status: ('A' for Active; 'I' for Inactive)
REMARK    1  A    between atoms: C_2  and  S_20
REMARK    2  A    between atoms: C_3  and  N_9
REMARK    3  A    between atoms: C_10  and  C_12
REMARK    4  A    between atoms: C_12  and  C_17
REMARK    5  A    between atoms: C_12  and  O_18
REMARK    6  A    between atoms: S_20  and  C_23
REMARK    7  A    between atoms: C_26  and  C_31
REMARK                            x       y       z     vdW  Elec       q    Type
REMARK                         _______ _______ _______ _____ _____    ______ ____
ROOT
ATOM      1 CL   UNL     1      32.163 -12.922 -20.314  0.00  0.00    -0.081 Cl
ATOM      2  C   UNL     1      33.169 -14.229 -23.950  0.00  0.00    +0.111 C 
ATOM      3  C   UNL     1      32.368 -11.832 -22.809  0.00  0.00    +0.061 C 
ATOM      4  C   UNL     1      32.895 -14.164 -22.584  0.00  0.00    +0.031 C 
ATOM      5  C   UNL     1      33.040 -13.088 -24.742  0.00  0.00    +0.020 C 
ATOM      6  C   UNL     1      32.492 -12.958 -22.010  0.00  0.00    +0.072 C 
ATOM      7  C   UNL     1      32.636 -11.883 -24.169  0.00  0.00    +0.017 C 
ENDROOT
BRANCH   3   9
ATOM      8  O   UNL     1      33.456  -9.079 -23.231  0.00  0.00    -0.272 OA
ATOM      9  N   UNL     1      31.960 -10.593 -22.258  0.00  0.00    -0.281 N 
ATOM     10  C   UNL     1      32.508  -9.338 -22.491  0.00  0.00    +0.259 C 
ATOM     11  H   UNL     1      31.200 -10.626 -21.634  0.00  0.00    +0.155 HD
BRANCH  10  12
ATOM     12  C   UNL     1      31.795  -8.221 -21.707  0.00  0.00    +0.245 C 
ATOM     13  C   UNL     1      31.120  -8.767 -20.449  0.00  0.00    +0.048 C 
BRANCH  12  17
ATOM     14  F   UNL     1      31.393  -6.986 -23.706  0.00  0.00    -0.167 F 
ATOM     15  F   UNL     1      30.292  -6.399 -21.922  0.00  0.00    -0.167 F 
ATOM     16  F   UNL     1      29.777  -8.247 -22.958  0.00  0.00    -0.167 F 
ATOM     17  C   UNL     1      30.811  -7.460 -22.584  0.00  0.00    +0.427 C 
ENDBRANCH  12  17
BRANCH  12  18
ATOM     18  O   UNL     1      32.795  -7.287 -21.300  0.00  0.00    -0.372 OA
ATOM     19  H   UNL     1      32.367  -6.480 -20.971  0.00  0.00    +0.211 HD
ENDBRANCH  12  18
ENDBRANCH  10  12
ENDBRANCH   3   9
BRANCH   2  20
ATOM     20  S   UNL     1      33.674 -15.737 -24.669  0.00  0.00    +0.027 S 
ATOM     21  O   UNL     1      34.911 -15.522 -25.409  0.00  0.00    -0.164 OA
ATOM     22  O   UNL     1      32.508 -16.277 -25.353  0.00  0.00    -0.164 OA
BRANCH  20  23
ATOM     23  C   UNL     1      34.108 -16.862 -23.369  0.00  0.00    +0.110 C 
ATOM     24  C   UNL     1      33.884 -18.213 -23.550  0.00  0.00    +0.019 C 
ATOM     25  C   UNL     1      34.658 -16.361 -22.204  0.00  0.00    +0.019 C 
ATOM     26  C   UNL     1      34.779 -18.615 -21.342  0.00  0.00    +0.054 C 
ATOM     27  C   UNL     1      34.222 -19.098 -22.526  0.00  0.00    +0.006 C 
ATOM     28  C   UNL     1      34.997 -17.247 -21.181  0.00  0.00    +0.006 C 
BRANCH  26  31
ATOM     29  O   UNL     1      36.318 -19.552 -19.916  0.00  0.00    -0.270 OA
ATOM     30  N   UNL     1      34.134 -20.362 -19.728  0.00  0.00    -0.273 N 
ATOM     31  C   UNL     1      35.134 -19.538 -20.276  0.00  0.00    +0.249 C 
ATOM     32  C   UNL     1      32.747 -20.313 -20.185  0.00  0.00    +0.115 C 
ATOM     33  C   UNL     1      34.415 -21.323 -18.670  0.00  0.00    +0.115 C 
ENDBRANCH  26  31
ENDBRANCH  20  23
ENDBRANCH   2  20
TORSDOF 7
ENDMDL
MODEL 2
REMARK VINA RESULT:     -11.6      1.262      1.774
REMARK  Name = 16741245
REMARK  7 active torsions:
REMARK  status: ('A' for Active; 'I' for Inactive)
REMARK    1  A    between atoms: C_2  and  S_20
REMARK    2  A    between atoms: C_3  and  N_9
REMARK    3  A    between atoms: C_10  and  C_12
REMARK    4  A    between atoms: C_12  and  C_17
REMARK    5  A    between atoms: C_12  and  O_18
REMARK    6  A    between atoms: S_20  and  C_23
REMARK    7  A    between atoms: C_26  and  C_31
REMARK                            x       y       z     vdW  Elec       q    Type
REMARK                         _______ _______ _______ _____ _____    ______ ____
ROOT
ATOM      1 CL   UNL     1      32.012 -13.027 -20.187  0.00  0.00    -0.081 Cl
ATOM      2  C   UNL     1      33.156 -14.189 -23.832  0.00  0.00    +0.111 C 
ATOM      3  C   UNL     1      32.308 -11.839 -22.628  0.00  0.00    +0.061 C 
ATOM      4  C   UNL     1      32.831 -14.178 -22.476  0.00  0.00    +0.031 C 
ATOM      5  C   UNL     1      33.055 -13.017 -24.582  0.00  0.00    +0.020 C 
ATOM      6  C   UNL     1      32.404 -12.996 -21.870  0.00  0.00    +0.072 C 
ATOM      7  C   UNL     1      32.628 -11.836 -23.977  0.00  0.00    +0.017 C 
ENDROOT
BRANCH   3   9
ATOM      8  O   UNL     1      33.239  -9.036 -23.096  0.00  0.00    -0.272 OA
ATOM      9  N   UNL     1      31.879 -10.623 -22.043  0.00  0.00    -0.281 N 
ATOM     10  C   UNL     1      32.352  -9.342 -22.301  0.00  0.00    +0.259 C 
ATOM     11  H   UNL     1      31.161 -10.694 -21.374  0.00  0.00    +0.155 HD
BRANCH  10  12
ATOM     12  C   UNL     1      31.638  -8.264 -21.466  0.00  0.00    +0.245 C 
ATOM     13  C   UNL     1      32.486  -6.998 -21.347  0.00  0.00    +0.048 C 
BRANCH  12  17
ATOM     14  F   UNL     1      32.215  -9.506 -19.514  0.00  0.00    -0.167 F 
ATOM     15  F   UNL     1      30.149  -9.604 -20.195  0.00  0.00    -0.167 F 
ATOM     16  F   UNL     1      30.901  -7.783 -19.260  0.00  0.00    -0.167 F 
ATOM     17  C   UNL     1      31.229  -8.792 -20.098  0.00  0.00    +0.427 C 
ENDBRANCH  12  17
BRANCH  12  18
ATOM     18  O   UNL     1      30.434  -7.926 -22.155  0.00  0.00    -0.372 OA
ATOM     19  H   UNL     1      30.565  -7.099 -22.646  0.00  0.00    +0.211 HD
ENDBRANCH  12  18
ENDBRANCH  10  12
ENDBRANCH   3   9
BRANCH   2  20
ATOM     20  S   UNL     1      33.691 -15.667 -24.591  0.00  0.00    +0.027 S 
ATOM     21  O   UNL     1      34.935 -15.414 -25.306  0.00  0.00    -0.164 OA
ATOM     22  O   UNL     1      32.540 -16.199 -25.309  0.00  0.00    -0.164 OA
BRANCH  20  23
ATOM     23  C   UNL     1      34.119 -16.827 -23.321  0.00  0.00    +0.110 C 
ATOM     24  C   UNL     1      34.675 -16.359 -22.146  0.00  0.00    +0.019 C 
ATOM     25  C   UNL     1      33.889 -18.173 -23.536  0.00  0.00    +0.019 C 
ATOM     26  C   UNL     1      34.790 -18.635 -21.343  0.00  0.00    +0.054 C 
ATOM     27  C   UNL     1      35.014 -17.272 -21.147  0.00  0.00    +0.006 C 
ATOM     28  C   UNL     1      34.227 -19.085 -22.536  0.00  0.00    +0.006 C 
BRANCH  26  31
ATOM     29  O   UNL     1      36.334 -19.642 -19.971  0.00  0.00    -0.270 OA
ATOM     30  N   UNL     1      34.132 -20.389 -19.742  0.00  0.00    -0.273 N 
ATOM     31  C   UNL     1      35.142 -19.586 -20.301  0.00  0.00    +0.249 C 
ATOM     32  C   UNL     1      32.736 -20.290 -20.164  0.00  0.00    +0.115 C 
ATOM     33  C   UNL     1      34.408 -21.376 -18.707  0.00  0.00    +0.115 C 
ENDBRANCH  26  31
ENDBRANCH  20  23
ENDBRANCH   2  20
TORSDOF 7
ENDMDL
MODEL 3
REMARK VINA RESULT:     -11.5      6.221     10.754
REMARK  Name = 16741245
REMARK  7 active torsions:
REMARK  status: ('A' for Active; 'I' for Inactive)
REMARK    1  A    between atoms: C_2  and  S_20
REMARK    2  A    between atoms: C_3  and  N_9
REMARK    3  A    between atoms: C_10  and  C_12
REMARK    4  A    between atoms: C_12  and  C_17
REMARK    5  A    between atoms: C_12  and  O_18
REMARK    6  A    between atoms: S_20  and  C_23
REMARK    7  A    between atoms: C_26  and  C_31
REMARK                            x       y       z     vdW  Elec       q    Type
REMARK                         _______ _______ _______ _____ _____    ______ ____
ROOT
ATOM      1 CL   UNL     1      35.608 -21.556 -17.953  0.00  0.00    -0.081 Cl
ATOM      2  C   UNL     1      34.383 -19.512 -21.157  0.00  0.00    +0.111 C 
ATOM      3  C   UNL     1      33.203 -20.797 -19.001  0.00  0.00    +0.061 C 
ATOM      4  C   UNL     1      35.178 -20.142 -20.200  0.00  0.00    +0.031 C 
ATOM      5  C   UNL     1      32.994 -19.528 -21.028  0.00  0.00    +0.020 C 
ATOM      6  C   UNL     1      34.585 -20.789 -19.116  0.00  0.00    +0.072 C 
ATOM      7  C   UNL     1      32.401 -20.175 -19.945  0.00  0.00    +0.017 C 
ENDROOT
BRANCH   3   9
ATOM      8  O   UNL     1      33.191 -23.681 -18.212  0.00  0.00    -0.272 OA
ATOM      9  N   UNL     1      32.571 -21.444 -17.913  0.00  0.00    -0.281 N 
ATOM     10  C   UNL     1      32.600 -22.797 -17.595  0.00  0.00    +0.259 C 
ATOM     11  H   UNL     1      32.047 -20.868 -17.310  0.00  0.00    +0.155 HD
BRANCH  10  12
ATOM     12  C   UNL     1      31.786 -23.130 -16.331  0.00  0.00    +0.245 C 
ATOM     13  C   UNL     1      30.458 -22.373 -16.307  0.00  0.00    +0.048 C 
BRANCH  12  17
ATOM     14  F   UNL     1      33.813 -22.372 -15.330  0.00  0.00    -0.167 F 
ATOM     15  F   UNL     1      32.780 -24.034 -14.376  0.00  0.00    -0.167 F 
ATOM     16  F   UNL     1      31.957 -22.020 -14.239  0.00  0.00    -0.167 F 
ATOM     17  C   UNL     1      32.592 -22.883 -15.063  0.00  0.00    +0.427 C 
ENDBRANCH  12  17
BRANCH  12  18
ATOM     18  O   UNL     1      31.497 -24.527 -16.371  0.00  0.00    -0.372 OA
ATOM     19  H   UNL     1      31.452 -24.821 -17.295  0.00  0.00    +0.211 HD
ENDBRANCH  12  18
ENDBRANCH  10  12
ENDBRANCH   3   9
BRANCH   2  20
ATOM     20  S   UNL     1      35.124 -18.701 -22.513  0.00  0.00    +0.027 S 
ATOM     21  O   UNL     1      34.629 -19.290 -23.750  0.00  0.00    -0.164 OA
ATOM     22  O   UNL     1      36.556 -18.680 -22.246  0.00  0.00    -0.164 OA
BRANCH  20  23
ATOM     23  C   UNL     1      34.555 -17.023 -22.545  0.00  0.00    +0.110 C 
ATOM     24  C   UNL     1      34.565 -16.290 -21.373  0.00  0.00    +0.019 C 
ATOM     25  C   UNL     1      34.114 -16.486 -23.740  0.00  0.00    +0.019 C 
ATOM     26  C   UNL     1      33.665 -14.408 -22.592  0.00  0.00    +0.054 C 
ATOM     27  C   UNL     1      34.115 -14.970 -21.397  0.00  0.00    +0.006 C 
ATOM     28  C   UNL     1      33.666 -15.165 -23.763  0.00  0.00    +0.006 C 
BRANCH  26  31
ATOM     29  O   UNL     1      33.592 -12.322 -23.552  0.00  0.00    -0.270 OA
ATOM     30  N   UNL     1      32.351 -12.580 -21.589  0.00  0.00    -0.273 N 
ATOM     31  C   UNL     1      33.198 -13.031 -22.617  0.00  0.00    +0.249 C 
ATOM     32  C   UNL     1      31.912 -13.454 -20.502  0.00  0.00    +0.115 C 
ATOM     33  C   UNL     1      31.856 -11.212 -21.536  0.00  0.00    +0.115 C 
ENDBRANCH  26  31
ENDBRANCH  20  23
ENDBRANCH   2  20
TORSDOF 7
ENDMDL
MODEL 4
REMARK VINA RESULT:     -11.3      6.553     11.170
REMARK  Name = 16741245
REMARK  7 active torsions:
REMARK  status: ('A' for Active; 'I' for Inactive)
REMARK    1  A    between atoms: C_2  and  S_20
REMARK    2  A    between atoms: C_3  and  N_9
REMARK    3  A    between atoms: C_10  and  C_12
REMARK    4  A    between atoms: C_12  and  C_17
REMARK    5  A    between atoms: C_12  and  O_18
REMARK    6  A    between atoms: S_20  and  C_23
REMARK    7  A    between atoms: C_26  and  C_31
REMARK                            x       y       z     vdW  Elec       q    Type
REMARK                         _______ _______ _______ _____ _____    ______ ____
ROOT
ATOM      1 CL   UNL     1      31.840 -20.777 -19.225  0.00  0.00    -0.081 Cl
ATOM      2  C   UNL     1      35.158 -19.372 -20.945  0.00  0.00    +0.111 C 
ATOM      3  C   UNL     1      34.528 -21.042 -18.823  0.00  0.00    +0.061 C 
ATOM      4  C   UNL     1      33.824 -19.636 -20.638  0.00  0.00    +0.031 C 
ATOM      5  C   UNL     1      36.176 -19.948 -20.184  0.00  0.00    +0.020 C 
ATOM      6  C   UNL     1      33.507 -20.476 -19.570  0.00  0.00    +0.072 C 
ATOM      7  C   UNL     1      35.859 -20.787 -19.116  0.00  0.00    +0.017 C 
ENDROOT
BRANCH   3   9
ATOM      8  O   UNL     1      35.997 -21.456 -16.251  0.00  0.00    -0.272 OA
ATOM      9  N   UNL     1      34.240 -21.898 -17.733  0.00  0.00    -0.281 N 
ATOM     10  C   UNL     1      34.964 -22.050 -16.556  0.00  0.00    +0.259 C 
ATOM     11  H   UNL     1      33.431 -22.452 -17.819  0.00  0.00    +0.155 HD
BRANCH  10  12
ATOM     12  C   UNL     1      34.338 -23.081 -15.600  0.00  0.00    +0.245 C 
ATOM     13  C   UNL     1      33.122 -22.504 -14.875  0.00  0.00    +0.048 C 
BRANCH  12  17
ATOM     14  F   UNL     1      36.468 -24.091 -15.245  0.00  0.00    -0.167 F 
ATOM     15  F   UNL     1      34.848 -24.663 -13.909  0.00  0.00    -0.167 F 
ATOM     16  F   UNL     1      35.754 -22.688 -13.735  0.00  0.00    -0.167 F 
ATOM     17  C   UNL     1      35.363 -23.633 -14.619  0.00  0.00    +0.427 C 
ENDBRANCH  12  17
BRANCH  12  18
ATOM     18  O   UNL     1      33.895 -24.180 -16.397  0.00  0.00    -0.372 OA
ATOM     19  H   UNL     1      33.266 -23.862 -17.063  0.00  0.00    +0.211 HD
ENDBRANCH  12  18
ENDBRANCH  10  12
ENDBRANCH   3   9
BRANCH   2  20
ATOM     20  S   UNL     1      35.556 -18.322 -22.281  0.00  0.00    +0.027 S 
ATOM     21  O   UNL     1      34.987 -18.870 -23.505  0.00  0.00    -0.164 OA
ATOM     22  O   UNL     1      36.989 -18.076 -22.198  0.00  0.00    -0.164 OA
BRANCH  20  23
ATOM     23  C   UNL     1      34.728 -16.772 -22.044  0.00  0.00    +0.110 C 
ATOM     24  C   UNL     1      34.518 -16.315 -20.758  0.00  0.00    +0.019 C 
ATOM     25  C   UNL     1      34.309 -16.059 -23.152  0.00  0.00    +0.019 C 
ATOM     26  C   UNL     1      33.433 -14.360 -21.674  0.00  0.00    +0.054 C 
ATOM     27  C   UNL     1      33.864 -15.097 -20.571  0.00  0.00    +0.006 C 
ATOM     28  C   UNL     1      33.657 -14.841 -22.964  0.00  0.00    +0.006 C 
BRANCH  26  31
ATOM     29  O   UNL     1      32.195 -12.913 -20.388  0.00  0.00    -0.270 OA
ATOM     30  N   UNL     1      32.753 -12.150 -22.526  0.00  0.00    -0.273 N 
ATOM     31  C   UNL     1      32.753 -13.089 -21.479  0.00  0.00    +0.249 C 
ATOM     32  C   UNL     1      33.425 -12.401 -23.799  0.00  0.00    +0.115 C 
ATOM     33  C   UNL     1      32.080 -10.863 -22.413  0.00  0.00    +0.115 C 
ENDBRANCH  26  31
ENDBRANCH  20  23
ENDBRANCH   2  20
TORSDOF 7
ENDMDL
MODEL 5
REMARK VINA RESULT:     -11.1      6.047     10.767
REMARK  Name = 16741245
REMARK  7 active torsions:
REMARK  status: ('A' for Active; 'I' for Inactive)
REMARK    1  A    between atoms: C_2  and  S_20
REMARK    2  A    between atoms: C_3  and  N_9
REMARK    3  A    between atoms: C_10  and  C_12
REMARK    4  A    between atoms: C_12  and  C_17
REMARK    5  A    between atoms: C_12  and  O_18
REMARK    6  A    between atoms: S_20  and  C_23
REMARK    7  A    between atoms: C_26  and  C_31
REMARK                            x       y       z     vdW  Elec       q    Type
REMARK                         _______ _______ _______ _____ _____    ______ ____
ROOT
ATOM      1 CL   UNL     1      31.769 -20.835 -19.073  0.00  0.00    -0.081 Cl
ATOM      2  C   UNL     1      35.028 -19.578 -21.009  0.00  0.00    +0.111 C 
ATOM      3  C   UNL     1      34.469 -21.028 -18.712  0.00  0.00    +0.061 C 
ATOM      4  C   UNL     1      33.704 -19.824 -20.644  0.00  0.00    +0.031 C 
ATOM      5  C   UNL     1      36.070 -20.062 -20.218  0.00  0.00    +0.020 C 
ATOM      6  C   UNL     1      33.423 -20.553 -19.488  0.00  0.00    +0.072 C 
ATOM      7  C   UNL     1      35.789 -20.790 -19.062  0.00  0.00    +0.017 C 
ENDROOT
BRANCH   3   9
ATOM      8  O   UNL     1      36.318 -21.829 -16.502  0.00  0.00    -0.272 OA
ATOM      9  N   UNL     1      34.217 -21.770 -17.533  0.00  0.00    -0.281 N 
ATOM     10  C   UNL     1      35.123 -22.115 -16.536  0.00  0.00    +0.259 C 
ATOM     11  H   UNL     1      33.292 -22.080 -17.405  0.00  0.00    +0.155 HD
BRANCH  10  12
ATOM     12  C   UNL     1      34.477 -22.933 -15.403  0.00  0.00    +0.245 C 
ATOM     13  C   UNL     1      35.260 -24.217 -15.126  0.00  0.00    +0.048 C 
BRANCH  12  17
ATOM     14  F   UNL     1      32.803 -23.588 -16.969  0.00  0.00    -0.167 F 
ATOM     15  F   UNL     1      32.245 -22.132 -15.449  0.00  0.00    -0.167 F 
ATOM     16  F   UNL     1      32.546 -24.219 -14.896  0.00  0.00    -0.167 F 
ATOM     17  C   UNL     1      33.010 -23.224 -15.685  0.00  0.00    +0.427 C 
ENDBRANCH  12  17
BRANCH  12  18
ATOM     18  O   UNL     1      34.520 -22.128 -14.225  0.00  0.00    -0.372 OA
ATOM     19  H   UNL     1      34.123 -21.263 -14.411  0.00  0.00    +0.211 HD
ENDBRANCH  12  18
ENDBRANCH  10  12
ENDBRANCH   3   9
BRANCH   2  20
ATOM     20  S   UNL     1      35.381 -18.667 -22.455  0.00  0.00    +0.027 S 
ATOM     21  O   UNL     1      34.636 -19.235 -23.571  0.00  0.00    -0.164 OA
ATOM     22  O   UNL     1      36.832 -18.564 -22.532  0.00  0.00    -0.164 OA
BRANCH  20  23
ATOM     23  C   UNL     1      34.733 -17.028 -22.259  0.00  0.00    +0.110 C 
ATOM     24  C   UNL     1      34.630 -16.496 -20.988  0.00  0.00    +0.019 C 
ATOM     25  C   UNL     1      34.345 -16.321 -23.381  0.00  0.00    +0.019 C 
ATOM     26  C   UNL     1      33.720 -14.476 -21.952  0.00  0.00    +0.054 C 
ATOM     27  C   UNL     1      34.118 -15.208 -20.833  0.00  0.00    +0.006 C 
ATOM     28  C   UNL     1      33.834 -15.033 -23.225  0.00  0.00    +0.006 C 
BRANCH  26  31
ATOM     29  O   UNL     1      33.599 -12.268 -22.576  0.00  0.00    -0.270 OA
ATOM     30  N   UNL     1      32.264 -12.885 -20.759  0.00  0.00    -0.273 N 
ATOM     31  C   UNL     1      33.189 -13.132 -21.790  0.00  0.00    +0.249 C 
ATOM     32  C   UNL     1      31.808 -13.937 -19.853  0.00  0.00    +0.115 C 
ATOM     33  C   UNL     1      31.700 -11.563 -20.524  0.00  0.00    +0.115 C 
ENDBRANCH  26  31
ENDBRANCH  20  23
ENDBRANCH   2  20
TORSDOF 7
ENDMDL
MODEL 6
REMARK VINA RESULT:     -10.9      7.606     11.696
REMARK  Name = 16741245
REMARK  7 active torsions:
REMARK  status: ('A' for Active; 'I' for Inactive)
REMARK    1  A    between atoms: C_2  and  S_20
REMARK    2  A    between atoms: C_3  and  N_9
REMARK    3  A    between atoms: C_10  and  C_12
REMARK    4  A    between atoms: C_12  and  C_17
REMARK    5  A    between atoms: C_12  and  O_18
REMARK    6  A    between atoms: S_20  and  C_23
REMARK    7  A    between atoms: C_26  and  C_31
REMARK                            x       y       z     vdW  Elec       q    Type
REMARK                         _______ _______ _______ _____ _____    ______ ____
ROOT
ATOM      1 CL   UNL     1      33.552 -23.693 -15.581  0.00  0.00    -0.081 Cl
ATOM      2  C   UNL     1      34.362 -21.309 -18.681  0.00  0.00    +0.111 C 
ATOM      3  C   UNL     1      32.097 -22.301 -17.426  0.00  0.00    +0.061 C 
ATOM      4  C   UNL     1      34.489 -22.152 -17.577  0.00  0.00    +0.031 C 
ATOM      5  C   UNL     1      33.095 -20.965 -19.152  0.00  0.00    +0.020 C 
ATOM      6  C   UNL     1      33.350 -22.652 -16.946  0.00  0.00    +0.072 C 
ATOM      7  C   UNL     1      31.957 -21.464 -18.522  0.00  0.00    +0.017 C 
ENDROOT
BRANCH   3   9
ATOM      8  O   UNL     1      31.082 -21.928 -14.637  0.00  0.00    -0.272 OA
ATOM      9  N   UNL     1      30.921 -22.791 -16.808  0.00  0.00    -0.281 N 
ATOM     10  C   UNL     1      30.499 -22.584 -15.499  0.00  0.00    +0.259 C 
ATOM     11  H   UNL     1      30.333 -23.343 -17.371  0.00  0.00    +0.155 HD
BRANCH  10  12
ATOM     12  C   UNL     1      29.162 -23.280 -15.188  0.00  0.00    +0.245 C 
ATOM     13  C   UNL     1      28.095 -22.272 -14.759  0.00  0.00    +0.048 C 
BRANCH  12  17
ATOM     14  F   UNL     1      29.693 -23.903 -12.949  0.00  0.00    -0.167 F 
ATOM     15  F   UNL     1      30.287 -25.265 -14.541  0.00  0.00    -0.167 F 
ATOM     16  F   UNL     1      28.184 -25.084 -13.993  0.00  0.00    -0.167 F 
ATOM     17  C   UNL     1      29.331 -24.387 -14.157  0.00  0.00    +0.427 C 
ENDBRANCH  12  17
BRANCH  12  18
ATOM     18  O   UNL     1      28.720 -23.903 -16.394  0.00  0.00    -0.372 OA
ATOM     19  H   UNL     1      29.133 -24.777 -16.476  0.00  0.00    +0.211 HD
ENDBRANCH  12  18
ENDBRANCH  10  12
ENDBRANCH   3   9
BRANCH   2  20
ATOM     20  S   UNL     1      35.788 -20.684 -19.470  0.00  0.00    +0.027 S 
ATOM     21  O   UNL     1      36.432 -21.759 -20.213  0.00  0.00    -0.164 OA
ATOM     22  O   UNL     1      36.536 -19.959 -18.452  0.00  0.00    -0.164 OA
BRANCH  20  23
ATOM     23  C   UNL     1      35.280 -19.515 -20.703  0.00  0.00    +0.110 C 
ATOM     24  C   UNL     1      34.099 -19.732 -21.386  0.00  0.00    +0.019 C 
ATOM     25  C   UNL     1      36.078 -18.414 -20.953  0.00  0.00    +0.019 C 
ATOM     26  C   UNL     1      34.490 -17.696 -22.626  0.00  0.00    +0.054 C 
ATOM     27  C   UNL     1      33.700 -18.814 -22.357  0.00  0.00    +0.006 C 
ATOM     28  C   UNL     1      35.678 -17.496 -21.923  0.00  0.00    +0.006 C 
BRANCH  26  31
ATOM     29  O   UNL     1      33.929 -17.165 -24.790  0.00  0.00    -0.270 OA
ATOM     30  N   UNL     1      33.873 -15.396 -23.263  0.00  0.00    -0.273 N 
ATOM     31  C   UNL     1      34.073 -16.737 -23.637  0.00  0.00    +0.249 C 
ATOM     32  C   UNL     1      34.056 -14.936 -21.888  0.00  0.00    +0.115 C 
ATOM     33  C   UNL     1      33.472 -14.376 -24.221  0.00  0.00    +0.115 C 
ENDBRANCH  26  31
ENDBRANCH  20  23
ENDBRANCH   2  20
TORSDOF 7
ENDMDL
MODEL 7
REMARK VINA RESULT:     -10.8      2.634      3.779
REMARK  Name = 16741245
REMARK  7 active torsions:
REMARK  status: ('A' for Active; 'I' for Inactive)
REMARK    1  A    between atoms: C_2  and  S_20
REMARK    2  A    between atoms: C_3  and  N_9
REMARK    3  A    between atoms: C_10  and  C_12
REMARK    4  A    between atoms: C_12  and  C_17
REMARK    5  A    between atoms: C_12  and  O_18
REMARK    6  A    between atoms: S_20  and  C_23
REMARK    7  A    between atoms: C_26  and  C_31
REMARK                            x       y       z     vdW  Elec       q    Type
REMARK                         _______ _______ _______ _____ _____    ______ ____
ROOT
ATOM      1 CL   UNL     1      33.828 -14.066 -19.652  0.00  0.00    -0.081 Cl
ATOM      2  C   UNL     1      34.663 -16.816 -22.424  0.00  0.00    +0.111 C 
ATOM      3  C   UNL     1      33.470 -14.313 -22.347  0.00  0.00    +0.061 C 
ATOM      4  C   UNL     1      34.549 -16.134 -21.212  0.00  0.00    +0.031 C 
ATOM      5  C   UNL     1      34.178 -16.237 -23.597  0.00  0.00    +0.020 C 
ATOM      6  C   UNL     1      33.949 -14.876 -21.174  0.00  0.00    +0.072 C 
ATOM      7  C   UNL     1      33.577 -14.980 -23.559  0.00  0.00    +0.017 C 
ENDROOT
BRANCH   3   9
ATOM      8  O   UNL     1      31.249 -13.247 -20.653  0.00  0.00    -0.272 OA
ATOM      9  N   UNL     1      32.856 -13.038 -22.342  0.00  0.00    -0.281 N 
ATOM     10  C   UNL     1      31.820 -12.597 -21.527  0.00  0.00    +0.259 C 
ATOM     11  H   UNL     1      33.203 -12.387 -22.994  0.00  0.00    +0.155 HD
BRANCH  10  12
ATOM     12  C   UNL     1      31.414 -11.140 -21.815  0.00  0.00    +0.245 C 
ATOM     13  C   UNL     1      32.309 -10.514 -22.885  0.00  0.00    +0.048 C 
BRANCH  12  17
ATOM     14  F   UNL     1      31.997 -10.928 -19.513  0.00  0.00    -0.167 F 
ATOM     15  F   UNL     1      30.122 -10.033 -20.163  0.00  0.00    -0.167 F 
ATOM     16  F   UNL     1      32.017  -9.116 -20.729  0.00  0.00    -0.167 F 
ATOM     17  C   UNL     1      31.392 -10.301 -20.545  0.00  0.00    +0.427 C 
ENDBRANCH  12  17
BRANCH  12  18
ATOM     18  O   UNL     1      30.078 -11.166 -22.317  0.00  0.00    -0.372 OA
ATOM     19  H   UNL     1      30.018 -10.600 -23.103  0.00  0.00    +0.211 HD
ENDBRANCH  12  18
ENDBRANCH  10  12
ENDBRANCH   3   9
BRANCH   2  20
ATOM     20  S   UNL     1      35.415 -18.390 -22.473  0.00  0.00    +0.027 S 
ATOM     21  O   UNL     1      36.819 -18.260 -22.107  0.00  0.00    -0.164 OA
ATOM     22  O   UNL     1      35.055 -18.977 -23.757  0.00  0.00    -0.164 OA
BRANCH  20  23
ATOM     23  C   UNL     1      34.700 -19.394 -21.200  0.00  0.00    +0.110 C 
ATOM     24  C   UNL     1      35.534 -20.119 -20.370  0.00  0.00    +0.019 C 
ATOM     25  C   UNL     1      33.325 -19.431 -21.067  0.00  0.00    +0.019 C 
ATOM     26  C   UNL     1      33.586 -20.963 -19.217  0.00  0.00    +0.054 C 
ATOM     27  C   UNL     1      34.971 -20.911 -19.369  0.00  0.00    +0.006 C 
ATOM     28  C   UNL     1      32.763 -20.223 -20.065  0.00  0.00    +0.006 C 
BRANCH  26  31
ATOM     29  O   UNL     1      31.787 -22.021 -18.256  0.00  0.00    -0.270 OA
ATOM     30  N   UNL     1      33.822 -22.254 -17.131  0.00  0.00    -0.273 N 
ATOM     31  C   UNL     1      33.000 -21.787 -18.172  0.00  0.00    +0.249 C 
ATOM     32  C   UNL     1      35.251 -21.952 -17.072  0.00  0.00    +0.115 C 
ATOM     33  C   UNL     1      33.306 -23.070 -16.041  0.00  0.00    +0.115 C 
ENDBRANCH  26  31
ENDBRANCH  20  23
ENDBRANCH   2  20
TORSDOF 7
ENDMDL
MODEL 8
REMARK VINA RESULT:     -10.6      4.810     10.338
REMARK  Name = 16741245
REMARK  7 active torsions:
REMARK  status: ('A' for Active; 'I' for Inactive)
REMARK    1  A    between atoms: C_2  and  S_20
REMARK    2  A    between atoms: C_3  and  N_9
REMARK    3  A    between atoms: C_10  and  C_12
REMARK    4  A    between atoms: C_12  and  C_17
REMARK    5  A    between atoms: C_12  and  O_18
REMARK    6  A    between atoms: S_20  and  C_23
REMARK    7  A    between atoms: C_26  and  C_31
REMARK                            x       y       z     vdW  Elec       q    Type
REMARK                         _______ _______ _______ _____ _____    ______ ____
ROOT
ATOM      1 CL   UNL     1      32.968 -13.392 -24.588  0.00  0.00    -0.081 Cl
ATOM      2  C   UNL     1      31.818 -11.685 -21.166  0.00  0.00    +0.111 C 
ATOM      3  C   UNL     1      33.059 -14.042 -21.938  0.00  0.00    +0.061 C 
ATOM      4  C   UNL     1      32.062 -11.936 -22.516  0.00  0.00    +0.031 C 
ATOM      5  C   UNL     1      32.200 -12.620 -20.204  0.00  0.00    +0.020 C 
ATOM      6  C   UNL     1      32.686 -13.121 -22.905  0.00  0.00    +0.072 C 
ATOM      7  C   UNL     1      32.823 -13.806 -20.592  0.00  0.00    +0.017 C 
ENDROOT
BRANCH   3   9
ATOM      8  O   UNL     1      34.513 -16.038 -20.250  0.00  0.00    -0.272 OA
ATOM      9  N   UNL     1      33.695 -15.254 -22.299  0.00  0.00    -0.281 N 
ATOM     10  C   UNL     1      34.359 -16.146 -21.465  0.00  0.00    +0.259 C 
ATOM     11  H   UNL     1      33.662 -15.493 -23.253  0.00  0.00    +0.155 HD
BRANCH  10  12
ATOM     12  C   UNL     1      34.925 -17.361 -22.223  0.00  0.00    +0.245 C 
ATOM     13  C   UNL     1      34.400 -17.417 -23.658  0.00  0.00    +0.048 C 
BRANCH  12  17
ATOM     14  F   UNL     1      33.562 -18.582 -20.695  0.00  0.00    -0.167 F 
ATOM     15  F   UNL     1      35.701 -18.986 -20.680  0.00  0.00    -0.167 F 
ATOM     16  F   UNL     1      34.473 -19.689 -22.339  0.00  0.00    -0.167 F 
ATOM     17  C   UNL     1      34.658 -18.662 -21.480  0.00  0.00    +0.427 C 
ENDBRANCH  12  17
BRANCH  12  18
ATOM     18  O   UNL     1      36.343 -17.200 -22.279  0.00  0.00    -0.372 OA
ATOM     19  H   UNL     1      36.569 -16.572 -22.984  0.00  0.00    +0.211 HD
ENDBRANCH  12  18
ENDBRANCH  10  12
ENDBRANCH   3   9
BRANCH   2  20
ATOM     20  S   UNL     1      31.038 -10.201 -20.680  0.00  0.00    +0.027 S 
ATOM     21  O   UNL     1      31.467  -9.857 -19.330  0.00  0.00    -0.164 OA
ATOM     22  O   UNL     1      29.620 -10.370 -20.966  0.00  0.00    -0.164 OA
BRANCH  20  23
ATOM     23  C   UNL     1      31.644  -8.886 -21.703  0.00  0.00    +0.110 C 
ATOM     24  C   UNL     1      31.413  -8.936 -23.064  0.00  0.00    +0.019 C 
ATOM     25  C   UNL     1      32.335  -7.843 -21.116  0.00  0.00    +0.019 C 
ATOM     26  C   UNL     1      32.590  -6.839 -23.299  0.00  0.00    +0.054 C 
ATOM     27  C   UNL     1      31.891  -7.903 -23.870  0.00  0.00    +0.006 C 
ATOM     28  C   UNL     1      32.811  -6.809 -21.922  0.00  0.00    +0.006 C 
BRANCH  26  31
ATOM     29  O   UNL     1      34.164  -5.953 -24.718  0.00  0.00    -0.270 OA
ATOM     30  N   UNL     1      32.340  -4.574 -24.235  0.00  0.00    -0.273 N 
ATOM     31  C   UNL     1      33.087  -5.761 -24.138  0.00  0.00    +0.249 C 
ATOM     32  C   UNL     1      31.072  -4.392 -23.531  0.00  0.00    +0.115 C 
ATOM     33  C   UNL     1      32.780  -3.444 -25.042  0.00  0.00    +0.115 C 
ENDBRANCH  26  31
ENDBRANCH  20  23
ENDBRANCH   2  20
TORSDOF 7
ENDMDL
MODEL 9
REMARK VINA RESULT:     -10.3      6.142     10.711
REMARK  Name = 16741245
REMARK  7 active torsions:
REMARK  status: ('A' for Active; 'I' for Inactive)
REMARK    1  A    between atoms: C_2  and  S_20
REMARK    2  A    between atoms: C_3  and  N_9
REMARK    3  A    between atoms: C_10  and  C_12
REMARK    4  A    between atoms: C_12  and  C_17
REMARK    5  A    between atoms: C_12  and  O_18
REMARK    6  A    between atoms: S_20  and  C_23
REMARK    7  A    between atoms: C_26  and  C_31
REMARK                            x       y       z     vdW  Elec       q    Type
REMARK                         _______ _______ _______ _____ _____    ______ ____
ROOT
ATOM      1 CL   UNL     1      36.469 -21.313 -17.880  0.00  0.00    -0.081 Cl
ATOM      2  C   UNL     1      34.706 -19.565 -21.008  0.00  0.00    +0.111 C 
ATOM      3  C   UNL     1      33.914 -21.061 -18.811  0.00  0.00    +0.061 C 
ATOM      4  C   UNL     1      35.657 -20.019 -20.093  0.00  0.00    +0.031 C 
ATOM      5  C   UNL     1      33.357 -19.864 -20.816  0.00  0.00    +0.020 C 
ATOM      6  C   UNL     1      35.259 -20.771 -18.988  0.00  0.00    +0.072 C 
ATOM      7  C   UNL     1      32.959 -20.616 -19.712  0.00  0.00    +0.017 C 
ENDROOT
BRANCH   3   9
ATOM      8  O   UNL     1      31.150 -21.600 -17.806  0.00  0.00    -0.272 OA
ATOM      9  N   UNL     1      33.478 -21.822 -17.700  0.00  0.00    -0.281 N 
ATOM     10  C   UNL     1      32.171 -22.038 -17.279  0.00  0.00    +0.259 C 
ATOM     11  H   UNL     1      34.183 -22.248 -17.162  0.00  0.00    +0.155 HD
BRANCH  10  12
ATOM     12  C   UNL     1      32.089 -22.924 -16.022  0.00  0.00    +0.245 C 
ATOM     13  C   UNL     1      32.807 -24.257 -16.232  0.00  0.00    +0.048 C 
BRANCH  12  17
ATOM     14  F   UNL     1      29.877 -23.632 -16.561  0.00  0.00    -0.167 F 
ATOM     15  F   UNL     1      30.091 -21.961 -15.182  0.00  0.00    -0.167 F 
ATOM     16  F   UNL     1      30.579 -23.982 -14.525  0.00  0.00    -0.167 F 
ATOM     17  C   UNL     1      30.649 -23.130 -15.573  0.00  0.00    +0.427 C 
ENDBRANCH  12  17
BRANCH  12  18
ATOM     18  O   UNL     1      32.754 -22.225 -14.970  0.00  0.00    -0.372 OA
ATOM     19  H   UNL     1      32.134 -22.081 -14.237  0.00  0.00    +0.211 HD
ENDBRANCH  12  18
ENDBRANCH  10  12
ENDBRANCH   3   9
BRANCH   2  20
ATOM     20  S   UNL     1      35.204 -18.623 -22.390  0.00  0.00    +0.027 S 
ATOM     21  O   UNL     1      34.550 -19.144 -23.583  0.00  0.00    -0.164 OA
ATOM     22  O   UNL     1      36.658 -18.551 -22.336  0.00  0.00    -0.164 OA
BRANCH  20  23
ATOM     23  C   UNL     1      34.574 -16.976 -22.204  0.00  0.00    +0.110 C 
ATOM     24  C   UNL     1      34.193 -16.273 -23.331  0.00  0.00    +0.019 C 
ATOM     25  C   UNL     1      34.479 -16.433 -20.937  0.00  0.00    +0.019 C 
ATOM     26  C   UNL     1      33.595 -14.409 -21.915  0.00  0.00    +0.054 C 
ATOM     27  C   UNL     1      33.700 -14.977 -23.185  0.00  0.00    +0.006 C 
ATOM     28  C   UNL     1      33.984 -15.137 -20.792  0.00  0.00    +0.006 C 
BRANCH  26  31
ATOM     29  O   UNL     1      32.908 -12.649 -20.607  0.00  0.00    -0.270 OA
ATOM     30  N   UNL     1      32.790 -12.306 -22.916  0.00  0.00    -0.273 N 
ATOM     31  C   UNL     1      33.079 -13.058 -21.763  0.00  0.00    +0.249 C 
ATOM     32  C   UNL     1      33.007 -12.830 -24.263  0.00  0.00    +0.115 C 
ATOM     33  C   UNL     1      32.255 -10.953 -22.845  0.00  0.00    +0.115 C 
ENDBRANCH  26  31
ENDBRANCH  20  23
ENDBRANCH   2  20
TORSDOF 7
ENDMDL
