MODEL 1
REMARK VINA RESULT:     -10.7      0.000      0.000
REMARK  Name = 54727980
REMARK  5 active torsions:
REMARK  status: ('A' for Active; 'I' for Inactive)
REMARK    1  A    between atoms: C_2  and  C_9
REMARK    2  A    between atoms: C_3  and  N_16
REMARK    3  A    between atoms: C_17  and  C_19
REMARK    4  A    between atoms: C_19  and  C_25
REMARK    5  A    between atoms: C_20  and  O_22
REMARK                            x       y       z     vdW  Elec       q    Type
REMARK                         _______ _______ _______ _____ _____    ______ ____
ROOT
ATOM      1 CL   UNL     1      33.881  -7.511 -23.574  0.00  0.00    -0.082 Cl
ATOM      2  C   UNL     1      31.747  -8.572 -22.227  0.00  0.00    +0.011 C 
ATOM      3  C   UNL     1      32.494 -11.184 -22.863  0.00  0.00    +0.051 C 
ATOM      4  C   UNL     1      32.890  -8.804 -22.993  0.00  0.00    +0.059 C 
ATOM      5  C   UNL     1      30.978  -9.646 -21.779  0.00  0.00    +0.002 C 
ATOM      6  C   UNL     1      33.263 -10.110 -23.311  0.00  0.00    +0.026 C 
ATOM      7  C   UNL     1      31.352 -10.952 -22.098  0.00  0.00    +0.015 C 
ENDROOT
BRANCH   2   9
ATOM      8 CL   UNL     1      30.202  -6.962 -24.356  0.00  0.00    -0.082 Cl
ATOM      9  C   UNL     1      31.323  -7.232 -21.874  0.00  0.00    +0.011 C 
ATOM     10  C   UNL     1      30.619  -6.423 -22.767  0.00  0.00    +0.058 C 
ATOM     11  C   UNL     1      31.637  -6.755 -20.601  0.00  0.00    +0.001 C 
ATOM     12  C   UNL     1      30.228  -5.140 -22.386  0.00  0.00    +0.011 C 
ATOM     13  C   UNL     1      31.246  -5.471 -20.220  0.00  0.00    +0.000 C 
ATOM     14  C   UNL     1      30.541  -4.663 -21.113  0.00  0.00    +0.001 C 
ENDBRANCH   2   9
BRANCH   3  16
ATOM     15  O   UNL     1      33.905 -13.250 -21.214  0.00  0.00    -0.269 OA
ATOM     16  N   UNL     1      32.873 -12.511 -23.186  0.00  0.00    -0.280 N 
ATOM     17  C   UNL     1      33.529 -13.423 -22.368  0.00  0.00    +0.262 C 
ATOM     18  H   UNL     1      32.646 -12.821 -24.091  0.00  0.00    +0.155 HD
BRANCH  17  19
ATOM     19  C   UNL     1      33.766 -14.742 -23.057  0.00  0.00    +0.151 C 
ATOM     20  C   UNL     1      34.271 -15.767 -22.340  0.00  0.00    +0.126 C 
ATOM     21  C   UNL     1      34.582 -17.137 -22.880  0.00  0.00    +0.072 C 
BRANCH  20  22
ATOM     22  O   UNL     1      34.532 -15.630 -20.985  0.00  0.00    -0.509 OA
ATOM     23  H   UNL     1      35.252 -15.103 -20.698  0.00  0.00    +0.292 HD
ENDBRANCH  20  22
BRANCH  19  25
ATOM     24  N   UNL     1      33.214 -14.959 -25.577  0.00  0.00    -0.191 NA
ATOM     25  C   UNL     1      33.466 -14.866 -24.448  0.00  0.00    +0.108 C 
ENDBRANCH  19  25
ENDBRANCH  17  19
ENDBRANCH   3  16
TORSDOF 5
ENDMDL
MODEL 2
REMARK VINA RESULT:     -10.6      8.048     11.134
REMARK  Name = 54727980
REMARK  5 active torsions:
REMARK  status: ('A' for Active; 'I' for Inactive)
REMARK    1  A    between atoms: C_2  and  C_9
REMARK    2  A    between atoms: C_3  and  N_16
REMARK    3  A    between atoms: C_17  and  C_19
REMARK    4  A    between atoms: C_19  and  C_25
REMARK    5  A    between atoms: C_20  and  O_22
REMARK                            x       y       z     vdW  Elec       q    Type
REMARK                         _______ _______ _______ _____ _____    ______ ____
ROOT
ATOM      1 CL   UNL     1      37.145 -18.293 -21.731  0.00  0.00    -0.082 Cl
ATOM      2  C   UNL     1      34.529 -19.015 -21.376  0.00  0.00    +0.011 C 
ATOM      3  C   UNL     1      35.154 -20.668 -19.217  0.00  0.00    +0.051 C 
ATOM      4  C   UNL     1      35.852 -19.139 -20.954  0.00  0.00    +0.059 C 
ATOM      5  C   UNL     1      33.518 -19.716 -20.719  0.00  0.00    +0.002 C 
ATOM      6  C   UNL     1      36.165 -19.966 -19.875  0.00  0.00    +0.026 C 
ATOM      7  C   UNL     1      33.830 -20.543 -19.640  0.00  0.00    +0.015 C 
ENDROOT
BRANCH   2   9
ATOM      8 CL   UNL     1      34.599 -15.964 -20.930  0.00  0.00    -0.082 Cl
ATOM      9  C   UNL     1      34.159 -18.167 -22.493  0.00  0.00    +0.011 C 
ATOM     10  C   UNL     1      34.159 -16.776 -22.392  0.00  0.00    +0.058 C 
ATOM     11  C   UNL     1      33.797 -18.779 -23.693  0.00  0.00    +0.001 C 
ATOM     12  C   UNL     1      33.797 -15.997 -23.492  0.00  0.00    +0.011 C 
ATOM     13  C   UNL     1      33.435 -18.000 -24.793  0.00  0.00    +0.000 C 
ATOM     14  C   UNL     1      33.436 -16.608 -24.692  0.00  0.00    +0.001 C 
ENDBRANCH   2   9
BRANCH   3  16
ATOM     15  O   UNL     1      36.853 -20.144 -16.806  0.00  0.00    -0.269 OA
ATOM     16  N   UNL     1      35.471 -21.508 -18.121  0.00  0.00    -0.280 N 
ATOM     17  C   UNL     1      36.270 -21.200 -17.027  0.00  0.00    +0.262 C 
ATOM     18  H   UNL     1      35.081 -22.411 -18.137  0.00  0.00    +0.155 HD
BRANCH  17  19
ATOM     19  C   UNL     1      36.380 -22.348 -16.058  0.00  0.00    +0.151 C 
ATOM     20  C   UNL     1      35.249 -22.911 -15.586  0.00  0.00    +0.126 C 
ATOM     21  C   UNL     1      35.187 -24.049 -14.602  0.00  0.00    +0.072 C 
BRANCH  20  22
ATOM     22  O   UNL     1      34.004 -22.473 -16.011  0.00  0.00    -0.509 OA
ATOM     23  H   UNL     1      33.677 -21.642 -15.725  0.00  0.00    +0.292 HD
ENDBRANCH  20  22
BRANCH  19  25
ATOM     24  N   UNL     1      38.730 -23.158 -15.336  0.00  0.00    -0.191 NA
ATOM     25  C   UNL     1      37.675 -22.798 -15.654  0.00  0.00    +0.108 C 
ENDBRANCH  19  25
ENDBRANCH  17  19
ENDBRANCH   3  16
TORSDOF 5
ENDMDL
MODEL 3
REMARK VINA RESULT:     -10.3      1.571      2.330
REMARK  Name = 54727980
REMARK  5 active torsions:
REMARK  status: ('A' for Active; 'I' for Inactive)
REMARK    1  A    between atoms: C_2  and  C_9
REMARK    2  A    between atoms: C_3  and  N_16
REMARK    3  A    between atoms: C_17  and  C_19
REMARK    4  A    between atoms: C_19  and  C_25
REMARK    5  A    between atoms: C_20  and  O_22
REMARK                            x       y       z     vdW  Elec       q    Type
REMARK                         _______ _______ _______ _____ _____    ______ ____
ROOT
ATOM      1 CL   UNL     1      29.826 -10.169 -20.887  0.00  0.00    -0.082 Cl
ATOM      2  C   UNL     1      31.856  -9.382 -22.547  0.00  0.00    +0.011 C 
ATOM      3  C   UNL     1      32.784 -11.996 -22.845  0.00  0.00    +0.051 C 
ATOM      4  C   UNL     1      31.209 -10.431 -21.894  0.00  0.00    +0.059 C 
ATOM      5  C   UNL     1      32.967  -9.641 -23.350  0.00  0.00    +0.002 C 
ATOM      6  C   UNL     1      31.673 -11.738 -22.042  0.00  0.00    +0.026 C 
ATOM      7  C   UNL     1      33.431 -10.948 -23.498  0.00  0.00    +0.015 C 
ENDROOT
BRANCH   2   9
ATOM      8 CL   UNL     1      32.210  -8.018 -19.804  0.00  0.00    -0.082 Cl
ATOM      9  C   UNL     1      31.407  -8.009 -22.421  0.00  0.00    +0.011 C 
ATOM     10  C   UNL     1      31.523  -7.305 -21.222  0.00  0.00    +0.058 C 
ATOM     11  C   UNL     1      30.847  -7.393 -23.540  0.00  0.00    +0.001 C 
ATOM     12  C   UNL     1      31.080  -5.985 -21.144  0.00  0.00    +0.011 C 
ATOM     13  C   UNL     1      30.403  -6.072 -23.461  0.00  0.00    +0.000 C 
ATOM     14  C   UNL     1      30.520  -5.369 -22.263  0.00  0.00    +0.001 C 
ENDBRANCH   2   9
BRANCH   3  16
ATOM     15  O   UNL     1      34.050 -13.839 -20.850  0.00  0.00    -0.269 OA
ATOM     16  N   UNL     1      33.256 -13.324 -22.996  0.00  0.00    -0.280 N 
ATOM     17  C   UNL     1      33.836 -14.129 -22.023  0.00  0.00    +0.262 C 
ATOM     18  H   UNL     1      33.163 -13.720 -23.892  0.00  0.00    +0.155 HD
BRANCH  17  19
ATOM     19  C   UNL     1      34.216 -15.486 -22.553  0.00  0.00    +0.151 C 
ATOM     20  C   UNL     1      34.614 -16.436 -21.682  0.00  0.00    +0.126 C 
ATOM     21  C   UNL     1      35.042 -17.831 -22.051  0.00  0.00    +0.072 C 
BRANCH  20  22
ATOM     22  O   UNL     1      34.636 -16.188 -20.318  0.00  0.00    -0.509 OA
ATOM     23  H   UNL     1      34.804 -15.322 -20.002  0.00  0.00    +0.292 HD
ENDBRANCH  20  22
BRANCH  19  25
ATOM     24  N   UNL     1      34.104 -15.915 -25.104  0.00  0.00    -0.191 NA
ATOM     25  C   UNL     1      34.160 -15.725 -23.961  0.00  0.00    +0.108 C 
ENDBRANCH  19  25
ENDBRANCH  17  19
ENDBRANCH   3  16
TORSDOF 5
ENDMDL
MODEL 4
REMARK VINA RESULT:     -10.2      1.775      1.983
REMARK  Name = 54727980
REMARK  5 active torsions:
REMARK  status: ('A' for Active; 'I' for Inactive)
REMARK    1  A    between atoms: C_2  and  C_9
REMARK    2  A    between atoms: C_3  and  N_16
REMARK    3  A    between atoms: C_17  and  C_19
REMARK    4  A    between atoms: C_19  and  C_25
REMARK    5  A    between atoms: C_20  and  O_22
REMARK                            x       y       z     vdW  Elec       q    Type
REMARK                         _______ _______ _______ _____ _____    ______ ____
ROOT
ATOM      1 CL   UNL     1      34.076  -7.267 -23.776  0.00  0.00    -0.082 Cl
ATOM      2  C   UNL     1      31.742  -8.088 -22.605  0.00  0.00    +0.011 C 
ATOM      3  C   UNL     1      32.512 -10.769 -22.675  0.00  0.00    +0.051 C 
ATOM      4  C   UNL     1      32.979  -8.445 -23.141  0.00  0.00    +0.059 C 
ATOM      5  C   UNL     1      30.890  -9.072 -22.103  0.00  0.00    +0.002 C 
ATOM      6  C   UNL     1      33.364  -9.785 -23.177  0.00  0.00    +0.026 C 
ATOM      7  C   UNL     1      31.275 -10.412 -22.139  0.00  0.00    +0.015 C 
ENDROOT
BRANCH   2   9
ATOM      8 CL   UNL     1      30.741  -6.806 -25.226  0.00  0.00    -0.082 Cl
ATOM      9  C   UNL     1      31.302  -6.708 -22.548  0.00  0.00    +0.011 C 
ATOM     10  C   UNL     1      30.833  -6.038 -23.679  0.00  0.00    +0.058 C 
ATOM     11  C   UNL     1      31.357  -6.048 -21.320  0.00  0.00    +0.001 C 
ATOM     12  C   UNL     1      30.418  -4.710 -23.580  0.00  0.00    +0.011 C 
ATOM     13  C   UNL     1      30.942  -4.719 -21.222  0.00  0.00    +0.000 C 
ATOM     14  C   UNL     1      30.473  -4.051 -22.353  0.00  0.00    +0.001 C 
ENDBRANCH   2   9
BRANCH   3  16
ATOM     15  O   UNL     1      32.676 -12.675 -24.981  0.00  0.00    -0.269 OA
ATOM     16  N   UNL     1      32.902 -12.131 -22.711  0.00  0.00    -0.280 N 
ATOM     17  C   UNL     1      32.957 -12.963 -23.822  0.00  0.00    +0.262 C 
ATOM     18  H   UNL     1      33.163 -12.532 -21.851  0.00  0.00    +0.155 HD
BRANCH  17  19
ATOM     19  C   UNL     1      33.420 -14.354 -23.473  0.00  0.00    +0.151 C 
ATOM     20  C   UNL     1      33.413 -15.300 -24.434  0.00  0.00    +0.126 C 
ATOM     21  C   UNL     1      33.825 -16.736 -24.246  0.00  0.00    +0.072 C 
BRANCH  20  22
ATOM     22  O   UNL     1      33.026 -14.997 -25.731  0.00  0.00    -0.509 OA
ATOM     23  H   UNL     1      32.379 -14.337 -25.885  0.00  0.00    +0.292 HD
ENDBRANCH  20  22
BRANCH  19  25
ATOM     24  N   UNL     1      34.166 -14.870 -21.049  0.00  0.00    -0.191 NA
ATOM     25  C   UNL     1      33.837 -14.635 -22.137  0.00  0.00    +0.108 C 
ENDBRANCH  19  25
ENDBRANCH  17  19
ENDBRANCH   3  16
TORSDOF 5
ENDMDL
MODEL 5
REMARK VINA RESULT:      -9.6      8.060     10.926
REMARK  Name = 54727980
REMARK  5 active torsions:
REMARK  status: ('A' for Active; 'I' for Inactive)
REMARK    1  A    between atoms: C_2  and  C_9
REMARK    2  A    between atoms: C_3  and  N_16
REMARK    3  A    between atoms: C_17  and  C_19
REMARK    4  A    between atoms: C_19  and  C_25
REMARK    5  A    between atoms: C_20  and  O_22
REMARK                            x       y       z     vdW  Elec       q    Type
REMARK                         _______ _______ _______ _____ _____    ______ ____
ROOT
ATOM      1 CL   UNL     1      37.303 -18.186 -21.697  0.00  0.00    -0.082 Cl
ATOM      2  C   UNL     1      34.614 -18.629 -21.436  0.00  0.00    +0.011 C 
ATOM      3  C   UNL     1      34.996 -20.446 -19.354  0.00  0.00    +0.051 C 
ATOM      4  C   UNL     1      35.904 -18.921 -20.993  0.00  0.00    +0.059 C 
ATOM      5  C   UNL     1      33.515 -19.245 -20.838  0.00  0.00    +0.002 C 
ATOM      6  C   UNL     1      36.095 -19.830 -19.952  0.00  0.00    +0.026 C 
ATOM      7  C   UNL     1      33.706 -20.154 -19.797  0.00  0.00    +0.015 C 
ENDROOT
BRANCH   2   9
ATOM      8 CL   UNL     1      33.925 -19.796 -24.207  0.00  0.00    -0.082 Cl
ATOM      9  C   UNL     1      34.370 -17.691 -22.515  0.00  0.00    +0.011 C 
ATOM     10  C   UNL     1      34.052 -18.119 -23.804  0.00  0.00    +0.058 C 
ATOM     11  C   UNL     1      34.461 -16.327 -22.236  0.00  0.00    +0.001 C 
ATOM     12  C   UNL     1      33.823 -17.183 -24.813  0.00  0.00    +0.011 C 
ATOM     13  C   UNL     1      34.233 -15.391 -23.245  0.00  0.00    +0.000 C 
ATOM     14  C   UNL     1      33.914 -15.820 -24.534  0.00  0.00    +0.001 C 
ENDBRANCH   2   9
BRANCH   3  16
ATOM     15  O   UNL     1      36.745 -20.271 -16.927  0.00  0.00    -0.269 OA
ATOM     16  N   UNL     1      35.190 -21.369 -18.297  0.00  0.00    -0.280 N 
ATOM     17  C   UNL     1      36.021 -21.225 -17.192  0.00  0.00    +0.262 C 
ATOM     18  H   UNL     1      34.678 -22.207 -18.351  0.00  0.00    +0.155 HD
BRANCH  17  19
ATOM     19  C   UNL     1      35.967 -22.418 -16.275  0.00  0.00    +0.151 C 
ATOM     20  C   UNL     1      37.102 -22.825 -15.670  0.00  0.00    +0.126 C 
ATOM     21  C   UNL     1      37.221 -24.004 -14.743  0.00  0.00    +0.072 C 
BRANCH  20  22
ATOM     22  O   UNL     1      38.293 -22.137 -15.853  0.00  0.00    -0.509 OA
ATOM     23  H   UNL     1      38.820 -21.910 -15.113  0.00  0.00    +0.292 HD
ENDBRANCH  20  22
BRANCH  19  25
ATOM     24  N   UNL     1      33.708 -23.636 -15.935  0.00  0.00    -0.191 NA
ATOM     25  C   UNL     1      34.723 -23.095 -16.083  0.00  0.00    +0.108 C 
ENDBRANCH  19  25
ENDBRANCH  17  19
ENDBRANCH   3  16
TORSDOF 5
ENDMDL
MODEL 6
REMARK VINA RESULT:      -9.5      3.542      8.172
REMARK  Name = 54727980
REMARK  5 active torsions:
REMARK  status: ('A' for Active; 'I' for Inactive)
REMARK    1  A    between atoms: C_2  and  C_9
REMARK    2  A    between atoms: C_3  and  N_16
REMARK    3  A    between atoms: C_17  and  C_19
REMARK    4  A    between atoms: C_19  and  C_25
REMARK    5  A    between atoms: C_20  and  O_22
REMARK                            x       y       z     vdW  Elec       q    Type
REMARK                         _______ _______ _______ _____ _____    ______ ____
ROOT
ATOM      1 CL   UNL     1      31.843 -13.794 -20.095  0.00  0.00    -0.082 Cl
ATOM      2  C   UNL     1      33.135 -13.214 -22.438  0.00  0.00    +0.011 C 
ATOM      3  C   UNL     1      32.140 -10.608 -22.480  0.00  0.00    +0.051 C 
ATOM      4  C   UNL     1      32.298 -12.771 -21.415  0.00  0.00    +0.059 C 
ATOM      5  C   UNL     1      33.476 -12.354 -23.482  0.00  0.00    +0.002 C 
ATOM      6  C   UNL     1      31.800 -11.468 -21.436  0.00  0.00    +0.026 C 
ATOM      7  C   UNL     1      32.977 -11.051 -23.503  0.00  0.00    +0.015 C 
ENDROOT
BRANCH   2   9
ATOM      8 CL   UNL     1      33.183 -14.691 -25.145  0.00  0.00    -0.082 Cl
ATOM      9  C   UNL     1      33.675 -14.560 -22.456  0.00  0.00    +0.011 C 
ATOM     10  C   UNL     1      33.740 -15.311 -23.630  0.00  0.00    +0.058 C 
ATOM     11  C   UNL     1      34.137 -15.101 -21.256  0.00  0.00    +0.001 C 
ATOM     12  C   UNL     1      34.268 -16.602 -23.604  0.00  0.00    +0.011 C 
ATOM     13  C   UNL     1      34.665 -16.392 -21.230  0.00  0.00    +0.000 C 
ATOM     14  C   UNL     1      34.730 -17.142 -22.404  0.00  0.00    +0.001 C 
ENDBRANCH   2   9
BRANCH   3  16
ATOM     15  O   UNL     1      33.559  -8.001 -22.890  0.00  0.00    -0.269 OA
ATOM     16  N   UNL     1      31.635  -9.284 -22.501  0.00  0.00    -0.280 N 
ATOM     17  C   UNL     1      32.352  -8.111 -22.699  0.00  0.00    +0.262 C 
ATOM     18  H   UNL     1      30.666  -9.186 -22.360  0.00  0.00    +0.155 HD
BRANCH  17  19
ATOM     19  C   UNL     1      31.473  -6.888 -22.656  0.00  0.00    +0.151 C 
ATOM     20  C   UNL     1      31.238  -6.299 -21.465  0.00  0.00    +0.126 C 
ATOM     21  C   UNL     1      30.373  -5.087 -21.249  0.00  0.00    +0.072 C 
BRANCH  20  22
ATOM     22  O   UNL     1      31.825  -6.780 -20.304  0.00  0.00    -0.509 OA
ATOM     23  H   UNL     1      32.185  -6.181 -19.679  0.00  0.00    +0.292 HD
ENDBRANCH  20  22
BRANCH  19  25
ATOM     24  N   UNL     1      30.445  -6.004 -24.860  0.00  0.00    -0.191 NA
ATOM     25  C   UNL     1      30.901  -6.397 -23.869  0.00  0.00    +0.108 C 
ENDBRANCH  19  25
ENDBRANCH  17  19
ENDBRANCH   3  16
TORSDOF 5
ENDMDL
MODEL 7
REMARK VINA RESULT:      -9.4      8.554     11.586
REMARK  Name = 54727980
REMARK  5 active torsions:
REMARK  status: ('A' for Active; 'I' for Inactive)
REMARK    1  A    between atoms: C_2  and  C_9
REMARK    2  A    between atoms: C_3  and  N_16
REMARK    3  A    between atoms: C_17  and  C_19
REMARK    4  A    between atoms: C_19  and  C_25
REMARK    5  A    between atoms: C_20  and  O_22
REMARK                            x       y       z     vdW  Elec       q    Type
REMARK                         _______ _______ _______ _____ _____    ______ ____
ROOT
ATOM      1 CL   UNL     1      36.620 -19.246 -20.945  0.00  0.00    -0.082 Cl
ATOM      2  C   UNL     1      33.894 -19.414 -21.118  0.00  0.00    +0.011 C 
ATOM      3  C   UNL     1      33.735 -21.064 -18.873  0.00  0.00    +0.051 C 
ATOM      4  C   UNL     1      35.055 -19.782 -20.440  0.00  0.00    +0.059 C 
ATOM      5  C   UNL     1      32.653 -19.871 -20.674  0.00  0.00    +0.002 C 
ATOM      6  C   UNL     1      34.976 -20.608 -19.318  0.00  0.00    +0.026 C 
ATOM      7  C   UNL     1      32.574 -20.696 -19.552  0.00  0.00    +0.015 C 
ENDROOT
BRANCH   2   9
ATOM      8 CL   UNL     1      34.647 -16.454 -20.693  0.00  0.00    -0.082 Cl
ATOM      9  C   UNL     1      33.930 -18.559 -22.288  0.00  0.00    +0.011 C 
ATOM     10  C   UNL     1      34.258 -17.206 -22.201  0.00  0.00    +0.058 C 
ATOM     11  C   UNL     1      33.624 -19.124 -23.527  0.00  0.00    +0.001 C 
ATOM     12  C   UNL     1      34.282 -16.419 -23.352  0.00  0.00    +0.011 C 
ATOM     13  C   UNL     1      33.648 -18.336 -24.679  0.00  0.00    +0.000 C 
ATOM     14  C   UNL     1      33.977 -16.983 -24.590  0.00  0.00    +0.001 C 
ENDBRANCH   2   9
BRANCH   3  16
ATOM     15  O   UNL     1      31.341 -22.114 -17.409  0.00  0.00    -0.269 OA
ATOM     16  N   UNL     1      33.655 -21.902 -17.734  0.00  0.00    -0.280 N 
ATOM     17  C   UNL     1      32.504 -22.356 -17.101  0.00  0.00    +0.262 C 
ATOM     18  H   UNL     1      34.510 -22.195 -17.347  0.00  0.00    +0.155 HD
BRANCH  17  19
ATOM     19  C   UNL     1      32.811 -23.232 -15.914  0.00  0.00    +0.151 C 
ATOM     20  C   UNL     1      31.804 -23.579 -15.086  0.00  0.00    +0.126 C 
ATOM     21  C   UNL     1      31.946 -24.430 -13.852  0.00  0.00    +0.072 C 
BRANCH  20  22
ATOM     22  O   UNL     1      30.502 -23.176 -15.338  0.00  0.00    -0.509 OA
ATOM     23  H   UNL     1      30.140 -22.444 -14.877  0.00  0.00    +0.292 HD
ENDBRANCH  20  22
BRANCH  19  25
ATOM     24  N   UNL     1      35.246 -24.004 -15.496  0.00  0.00    -0.191 NA
ATOM     25  C   UNL     1      34.156 -23.656 -15.690  0.00  0.00    +0.108 C 
ENDBRANCH  19  25
ENDBRANCH  17  19
ENDBRANCH   3  16
TORSDOF 5
ENDMDL
MODEL 8
REMARK VINA RESULT:      -9.4      3.582      8.298
REMARK  Name = 54727980
REMARK  5 active torsions:
REMARK  status: ('A' for Active; 'I' for Inactive)
REMARK    1  A    between atoms: C_2  and  C_9
REMARK    2  A    between atoms: C_3  and  N_16
REMARK    3  A    between atoms: C_17  and  C_19
REMARK    4  A    between atoms: C_19  and  C_25
REMARK    5  A    between atoms: C_20  and  O_22
REMARK                            x       y       z     vdW  Elec       q    Type
REMARK                         _______ _______ _______ _____ _____    ______ ____
ROOT
ATOM      1 CL   UNL     1      31.792 -13.567 -20.260  0.00  0.00    -0.082 Cl
ATOM      2  C   UNL     1      33.114 -12.979 -22.583  0.00  0.00    +0.011 C 
ATOM      3  C   UNL     1      32.185 -10.348 -22.585  0.00  0.00    +0.051 C 
ATOM      4  C   UNL     1      32.281 -12.533 -21.558  0.00  0.00    +0.059 C 
ATOM      5  C   UNL     1      33.483 -12.109 -23.610  0.00  0.00    +0.002 C 
ATOM      6  C   UNL     1      31.816 -11.218 -21.559  0.00  0.00    +0.026 C 
ATOM      7  C   UNL     1      33.018 -10.794 -23.611  0.00  0.00    +0.015 C 
ENDROOT
BRANCH   2   9
ATOM      8 CL   UNL     1      33.070 -14.436 -25.301  0.00  0.00    -0.082 Cl
ATOM      9  C   UNL     1      33.620 -14.337 -22.622  0.00  0.00    +0.011 C 
ATOM     10  C   UNL     1      33.642 -15.081 -23.802  0.00  0.00    +0.058 C 
ATOM     11  C   UNL     1      34.093 -14.898 -21.435  0.00  0.00    +0.001 C 
ATOM     12  C   UNL     1      34.139 -16.385 -23.795  0.00  0.00    +0.011 C 
ATOM     13  C   UNL     1      34.589 -16.203 -21.429  0.00  0.00    +0.000 C 
ATOM     14  C   UNL     1      34.612 -16.945 -22.610  0.00  0.00    +0.001 C 
ENDBRANCH   2   9
BRANCH   3  16
ATOM     15  O   UNL     1      33.674  -7.770 -22.922  0.00  0.00    -0.269 OA
ATOM     16  N   UNL     1      31.713  -9.012 -22.586  0.00  0.00    -0.280 N 
ATOM     17  C   UNL     1      32.462  -7.853 -22.750  0.00  0.00    +0.262 C 
ATOM     18  H   UNL     1      30.745  -8.892 -22.456  0.00  0.00    +0.155 HD
BRANCH  17  19
ATOM     19  C   UNL     1      31.614  -6.610 -22.693  0.00  0.00    +0.151 C 
ATOM     20  C   UNL     1      31.191  -6.059 -23.850  0.00  0.00    +0.126 C 
ATOM     21  C   UNL     1      30.356  -4.812 -23.966  0.00  0.00    +0.072 C 
BRANCH  20  22
ATOM     22  O   UNL     1      31.495  -6.642 -25.070  0.00  0.00    -0.509 OA
ATOM     23  H   UNL     1      30.952  -7.327 -25.410  0.00  0.00    +0.292 HD
ENDBRANCH  20  22
BRANCH  19  25
ATOM     24  N   UNL     1      31.033  -5.569 -20.395  0.00  0.00    -0.191 NA
ATOM     25  C   UNL     1      31.293  -6.042 -21.422  0.00  0.00    +0.108 C 
ENDBRANCH  19  25
ENDBRANCH  17  19
ENDBRANCH   3  16
TORSDOF 5
ENDMDL
MODEL 9
REMARK VINA RESULT:      -9.4     10.520     15.321
REMARK  Name = 54727980
REMARK  5 active torsions:
REMARK  status: ('A' for Active; 'I' for Inactive)
REMARK    1  A    between atoms: C_2  and  C_9
REMARK    2  A    between atoms: C_3  and  N_16
REMARK    3  A    between atoms: C_17  and  C_19
REMARK    4  A    between atoms: C_19  and  C_25
REMARK    5  A    between atoms: C_20  and  O_22
REMARK                            x       y       z     vdW  Elec       q    Type
REMARK                         _______ _______ _______ _____ _____    ______ ____
ROOT
ATOM      1 CL   UNL     1      33.528 -24.128 -14.339  0.00  0.00    -0.082 Cl
ATOM      2  C   UNL     1      36.050 -23.217 -14.892  0.00  0.00    +0.011 C 
ATOM      3  C   UNL     1      35.159 -21.722 -17.072  0.00  0.00    +0.051 C 
ATOM      4  C   UNL     1      34.697 -23.218 -15.233  0.00  0.00    +0.059 C 
ATOM      5  C   UNL     1      36.957 -22.467 -15.641  0.00  0.00    +0.002 C 
ATOM      6  C   UNL     1      34.252 -22.471 -16.323  0.00  0.00    +0.026 C 
ATOM      7  C   UNL     1      36.511 -21.720 -16.732  0.00  0.00    +0.015 C 
ENDROOT
BRANCH   2   9
ATOM      8 CL   UNL     1      36.224 -26.279 -15.212  0.00  0.00    -0.082 Cl
ATOM      9  C   UNL     1      36.556 -23.979 -13.767  0.00  0.00    +0.011 C 
ATOM     10  C   UNL     1      36.673 -25.368 -13.812  0.00  0.00    +0.058 C 
ATOM     11  C   UNL     1      36.930 -23.285 -12.616  0.00  0.00    +0.001 C 
ATOM     12  C   UNL     1      37.165 -26.063 -12.708  0.00  0.00    +0.011 C 
ATOM     13  C   UNL     1      37.423 -23.980 -11.511  0.00  0.00    +0.000 C 
ATOM     14  C   UNL     1      37.541 -25.370 -11.557  0.00  0.00    +0.001 C 
ENDBRANCH   2   9
BRANCH   3  16
ATOM     15  O   UNL     1      36.360 -21.368 -19.794  0.00  0.00    -0.269 OA
ATOM     16  N   UNL     1      34.707 -20.963 -18.180  0.00  0.00    -0.280 N 
ATOM     17  C   UNL     1      35.316 -20.841 -19.424  0.00  0.00    +0.262 C 
ATOM     18  H   UNL     1      33.868 -20.465 -18.054  0.00  0.00    +0.155 HD
BRANCH  17  19
ATOM     19  C   UNL     1      34.542 -19.945 -20.355  0.00  0.00    +0.151 C 
ATOM     20  C   UNL     1      35.212 -19.017 -21.069  0.00  0.00    +0.126 C 
ATOM     21  C   UNL     1      34.588 -18.036 -22.025  0.00  0.00    +0.072 C 
BRANCH  20  22
ATOM     22  O   UNL     1      36.592 -18.911 -20.983  0.00  0.00    -0.509 OA
ATOM     23  H   UNL     1      37.050 -19.321 -20.276  0.00  0.00    +0.292 HD
ENDBRANCH  20  22
BRANCH  19  25
ATOM     24  N   UNL     1      31.972 -20.211 -20.506  0.00  0.00    -0.191 NA
ATOM     25  C   UNL     1      33.124 -20.090 -20.444  0.00  0.00    +0.108 C 
ENDBRANCH  19  25
ENDBRANCH  17  19
ENDBRANCH   3  16
TORSDOF 5
ENDMDL
