MODEL 1
REMARK VINA RESULT:     -11.7      0.000      0.000
REMARK  Name = 10457387
REMARK  8 active torsions:
REMARK  status: ('A' for Active; 'I' for Inactive)
REMARK    1  A    between atoms: C_2  and  C_20
REMARK    2  A    between atoms: C_7  and  O_8
REMARK    3  A    between atoms: O_8  and  C_10
REMARK    4  A    between atoms: C_13  and  C_17
REMARK    5  A    between atoms: C_20  and  N_21
REMARK    6  A    between atoms: N_21  and  C_24
REMARK    7  A    between atoms: C_24  and  C_25
REMARK    8  A    between atoms: C_25  and  C_27
REMARK                            x       y       z     vdW  Elec       q    Type
REMARK                         _______ _______ _______ _____ _____    ______ ____
ROOT
ATOM      1  F   UNL     1      36.394 -21.239 -19.492  0.00  0.00    -0.201 F 
ATOM      2  C   UNL     1      32.851 -21.321 -18.725  0.00  0.00    -0.041 C 
ATOM      3  C   UNL     1      34.208 -21.608 -18.667  0.00  0.00    +0.026 C 
ATOM      4  C   UNL     1      32.352 -20.405 -19.639  0.00  0.00    -0.003 C 
ATOM      5  C   UNL     1      35.083 -20.965 -19.543  0.00  0.00    +0.174 C 
ATOM      6  C   UNL     1      33.227 -19.762 -20.515  0.00  0.00    +0.039 C 
ATOM      7  C   UNL     1      34.593 -20.042 -20.467  0.00  0.00    +0.174 C 
ENDROOT
BRANCH   7   8
ATOM      8  O   UNL     1      35.445 -19.415 -21.322  0.00  0.00    -0.434 OA
BRANCH   8  10
ATOM      9  N   UNL     1      34.376 -18.636 -23.229  0.00  0.00    -0.210 NA
ATOM     10  C   UNL     1      34.955 -18.344 -22.050  0.00  0.00    +0.230 C 
ATOM     11  C   UNL     1      35.090 -17.076 -21.526  0.00  0.00    +0.058 C 
ATOM     12  C   UNL     1      34.590 -16.017 -22.276  0.00  0.00    +0.011 C 
ATOM     13  C   UNL     1      33.982 -16.267 -23.501  0.00  0.00    +0.072 C 
ATOM     14  C   UNL     1      33.901 -17.582 -23.929  0.00  0.00    +0.107 C 
BRANCH  13  17
ATOM     15  O   UNL     1      33.233 -15.323 -25.525  0.00  0.00    -0.270 OA
ATOM     16  N   UNL     1      33.164 -13.977 -23.670  0.00  0.00    -0.325 N 
ATOM     17  C   UNL     1      33.448 -15.182 -24.307  0.00  0.00    +0.244 C 
ATOM     18  H   UNL     1      32.802 -13.222 -24.185  0.00  0.00    +0.145 HD
ATOM     19  H   UNL     1      33.326 -13.882 -22.703  0.00  0.00    +0.145 HD
ENDBRANCH  13  17
ENDBRANCH   8  10
ENDBRANCH   7   8
BRANCH   2  20
ATOM     20  C   UNL     1      31.906 -22.016 -17.781  0.00  0.00    -0.054 C 
BRANCH  20  21
ATOM     21  N   UNL     1      32.557 -23.105 -17.066  0.00  0.00    +0.386 N 
ATOM     22  H   UNL     1      32.351 -23.985 -17.538  0.00  0.00    -0.084 HD
ATOM     23  H   UNL     1      33.563 -22.933 -17.056  0.00  0.00    -0.084 HD
BRANCH  21  24
ATOM     24  C   UNL     1      32.084 -23.178 -15.689  0.00  0.00    -0.081 C 
BRANCH  24  25
ATOM     25  C   UNL     1      33.178 -22.715 -14.733  0.00  0.00    -0.023 C 
BRANCH  25  27
ATOM     26  O   UNL     1      37.366 -23.531 -14.672  0.00  0.00    -0.354 OA
ATOM     27  C   UNL     1      34.554 -23.176 -15.206  0.00  0.00    +0.003 C 
ATOM     28  C   UNL     1      35.091 -24.309 -14.325  0.00  0.00    +0.032 C 
ATOM     29  C   UNL     1      35.552 -22.013 -15.222  0.00  0.00    +0.032 C 
ATOM     30  C   UNL     1      36.514 -24.675 -14.727  0.00  0.00    +0.142 C 
ATOM     31  C   UNL     1      36.950 -22.507 -15.573  0.00  0.00    +0.142 C 
ENDBRANCH  25  27
ENDBRANCH  24  25
ENDBRANCH  21  24
ENDBRANCH  20  21
ENDBRANCH   2  20
TORSDOF 8
ENDMDL
MODEL 2
REMARK VINA RESULT:     -11.6      2.196      3.086
REMARK  Name = 10457387
REMARK  8 active torsions:
REMARK  status: ('A' for Active; 'I' for Inactive)
REMARK    1  A    between atoms: C_2  and  C_20
REMARK    2  A    between atoms: C_7  and  O_8
REMARK    3  A    between atoms: O_8  and  C_10
REMARK    4  A    between atoms: C_13  and  C_17
REMARK    5  A    between atoms: C_20  and  N_21
REMARK    6  A    between atoms: N_21  and  C_24
REMARK    7  A    between atoms: C_24  and  C_25
REMARK    8  A    between atoms: C_25  and  C_27
REMARK                            x       y       z     vdW  Elec       q    Type
REMARK                         _______ _______ _______ _____ _____    ______ ____
ROOT
ATOM      1  F   UNL     1      37.204 -17.821 -21.819  0.00  0.00    -0.201 F 
ATOM      2  C   UNL     1      34.904 -20.106 -20.193  0.00  0.00    -0.041 C 
ATOM      3  C   UNL     1      36.071 -19.412 -20.483  0.00  0.00    +0.026 C 
ATOM      4  C   UNL     1      33.747 -19.898 -20.929  0.00  0.00    -0.003 C 
ATOM      5  C   UNL     1      36.080 -18.493 -21.532  0.00  0.00    +0.174 C 
ATOM      6  C   UNL     1      33.755 -18.979 -21.978  0.00  0.00    +0.039 C 
ATOM      7  C   UNL     1      34.923 -18.276 -22.280  0.00  0.00    +0.174 C 
ENDROOT
BRANCH   7   8
ATOM      8  O   UNL     1      34.929 -17.380 -23.304  0.00  0.00    -0.434 OA
BRANCH   8  10
ATOM      9  N   UNL     1      33.750 -15.565 -24.142  0.00  0.00    -0.210 NA
ATOM     10  C   UNL     1      34.344 -16.144 -23.083  0.00  0.00    +0.230 C 
ATOM     11  C   UNL     1      34.410 -15.603 -21.817  0.00  0.00    +0.058 C 
ATOM     12  C   UNL     1      33.815 -14.362 -21.620  0.00  0.00    +0.011 C 
ATOM     13  C   UNL     1      33.187 -13.722 -22.683  0.00  0.00    +0.072 C 
ATOM     14  C   UNL     1      33.183 -14.361 -23.913  0.00  0.00    +0.107 C 
BRANCH  13  17
ATOM     15  O   UNL     1      32.983 -11.412 -23.093  0.00  0.00    -0.270 OA
ATOM     16  N   UNL     1      31.439 -12.351 -21.681  0.00  0.00    -0.325 N 
ATOM     17  C   UNL     1      32.556 -12.425 -22.510  0.00  0.00    +0.244 C 
ATOM     18  H   UNL     1      30.987 -11.489 -21.541  0.00  0.00    +0.145 HD
ATOM     19  H   UNL     1      31.103 -13.163 -21.235  0.00  0.00    +0.145 HD
ENDBRANCH  13  17
ENDBRANCH   8  10
ENDBRANCH   7   8
BRANCH   2  20
ATOM     20  C   UNL     1      34.895 -21.099 -19.062  0.00  0.00    -0.054 C 
BRANCH  20  21
ATOM     21  N   UNL     1      36.045 -20.932 -18.184  0.00  0.00    +0.386 N 
ATOM     22  H   UNL     1      36.881 -21.269 -18.660  0.00  0.00    -0.084 HD
ATOM     23  H   UNL     1      36.140 -19.942 -17.956  0.00  0.00    -0.084 HD
BRANCH  21  24
ATOM     24  C   UNL     1      35.866 -21.680 -16.946  0.00  0.00    -0.081 C 
BRANCH  24  25
ATOM     25  C   UNL     1      37.176 -21.723 -16.166  0.00  0.00    -0.023 C 
BRANCH  25  27
ATOM     26  O   UNL     1      36.886 -25.476 -14.154  0.00  0.00    -0.354 OA
ATOM     27  C   UNL     1      37.104 -22.734 -15.024  0.00  0.00    +0.003 C 
ATOM     28  C   UNL     1      38.281 -23.713 -15.078  0.00  0.00    +0.032 C 
ATOM     29  C   UNL     1      35.781 -23.509 -15.055  0.00  0.00    +0.032 C 
ATOM     30  C   UNL     1      38.132 -24.793 -14.012  0.00  0.00    +0.142 C 
ATOM     31  C   UNL     1      35.772 -24.601 -13.991  0.00  0.00    +0.142 C 
ENDBRANCH  25  27
ENDBRANCH  24  25
ENDBRANCH  21  24
ENDBRANCH  20  21
ENDBRANCH   2  20
TORSDOF 8
ENDMDL
MODEL 3
REMARK VINA RESULT:     -11.5      3.702      9.989
REMARK  Name = 10457387
REMARK  8 active torsions:
REMARK  status: ('A' for Active; 'I' for Inactive)
REMARK    1  A    between atoms: C_2  and  C_20
REMARK    2  A    between atoms: C_7  and  O_8
REMARK    3  A    between atoms: O_8  and  C_10
REMARK    4  A    between atoms: C_13  and  C_17
REMARK    5  A    between atoms: C_20  and  N_21
REMARK    6  A    between atoms: N_21  and  C_24
REMARK    7  A    between atoms: C_24  and  C_25
REMARK    8  A    between atoms: C_25  and  C_27
REMARK                            x       y       z     vdW  Elec       q    Type
REMARK                         _______ _______ _______ _____ _____    ______ ____
ROOT
ATOM      1  F   UNL     1      34.574 -19.704 -23.678  0.00  0.00    -0.201 F 
ATOM      2  C   UNL     1      34.025 -16.151 -23.203  0.00  0.00    -0.041 C 
ATOM      3  C   UNL     1      34.028 -17.405 -23.798  0.00  0.00    +0.026 C 
ATOM      4  C   UNL     1      34.550 -15.961 -21.933  0.00  0.00    -0.003 C 
ATOM      5  C   UNL     1      34.568 -18.491 -23.108  0.00  0.00    +0.174 C 
ATOM      6  C   UNL     1      35.090 -17.047 -21.243  0.00  0.00    +0.039 C 
ATOM      7  C   UNL     1      35.099 -18.313 -21.831  0.00  0.00    +0.174 C 
ENDROOT
BRANCH   7   8
ATOM      8  O   UNL     1      35.626 -19.371 -21.157  0.00  0.00    -0.434 OA
BRANCH   8  10
ATOM      9  N   UNL     1      35.388 -20.920 -19.445  0.00  0.00    -0.210 NA
ATOM     10  C   UNL     1      34.791 -20.070 -20.302  0.00  0.00    +0.230 C 
ATOM     11  C   UNL     1      33.432 -19.853 -20.386  0.00  0.00    +0.058 C 
ATOM     12  C   UNL     1      32.616 -20.567 -19.517  0.00  0.00    +0.011 C 
ATOM     13  C   UNL     1      33.183 -21.457 -18.612  0.00  0.00    +0.072 C 
ATOM     14  C   UNL     1      34.562 -21.596 -18.616  0.00  0.00    +0.107 C 
BRANCH  13  17
ATOM     15  O   UNL     1      31.128 -22.038 -17.620  0.00  0.00    -0.270 OA
ATOM     16  N   UNL     1      32.982 -23.176 -16.895  0.00  0.00    -0.325 N 
ATOM     17  C   UNL     1      32.357 -22.218 -17.690  0.00  0.00    +0.244 C 
ATOM     18  H   UNL     1      32.453 -23.709 -16.260  0.00  0.00    +0.145 HD
ATOM     19  H   UNL     1      33.954 -23.318 -16.970  0.00  0.00    +0.145 HD
ENDBRANCH  13  17
ENDBRANCH   8  10
ENDBRANCH   7   8
BRANCH   2  20
ATOM     20  C   UNL     1      33.445 -14.980 -23.948  0.00  0.00    -0.054 C 
BRANCH  20  21
ATOM     21  N   UNL     1      33.816 -13.711 -23.337  0.00  0.00    +0.386 N 
ATOM     22  H   UNL     1      34.129 -13.879 -22.381  0.00  0.00    -0.084 HD
ATOM     23  H   UNL     1      34.565 -13.291 -23.889  0.00  0.00    -0.084 HD
BRANCH  21  24
ATOM     24  C   UNL     1      32.684 -12.793 -23.315  0.00  0.00    -0.081 C 
BRANCH  24  25
ATOM     25  C   UNL     1      32.057 -12.769 -21.925  0.00  0.00    -0.023 C 
BRANCH  25  27
ATOM     26  O   UNL     1      31.447  -8.680 -20.868  0.00  0.00    -0.354 OA
ATOM     27  C   UNL     1      31.335 -11.449 -21.670  0.00  0.00    +0.003 C 
ATOM     28  C   UNL     1      31.861 -10.343 -22.590  0.00  0.00    +0.032 C 
ATOM     29  C   UNL     1      31.475 -11.017 -20.206  0.00  0.00    +0.032 C 
ATOM     30  C   UNL     1      31.225  -9.003 -22.241  0.00  0.00    +0.142 C 
ATOM     31  C   UNL     1      30.861  -9.638 -19.989  0.00  0.00    +0.142 C 
ENDBRANCH  25  27
ENDBRANCH  24  25
ENDBRANCH  21  24
ENDBRANCH  20  21
ENDBRANCH   2  20
TORSDOF 8
ENDMDL
MODEL 4
REMARK VINA RESULT:     -11.5      2.857      9.423
REMARK  Name = 10457387
REMARK  8 active torsions:
REMARK  status: ('A' for Active; 'I' for Inactive)
REMARK    1  A    between atoms: C_2  and  C_20
REMARK    2  A    between atoms: C_7  and  O_8
REMARK    3  A    between atoms: O_8  and  C_10
REMARK    4  A    between atoms: C_13  and  C_17
REMARK    5  A    between atoms: C_20  and  N_21
REMARK    6  A    between atoms: N_21  and  C_24
REMARK    7  A    between atoms: C_24  and  C_25
REMARK    8  A    between atoms: C_25  and  C_27
REMARK                            x       y       z     vdW  Elec       q    Type
REMARK                         _______ _______ _______ _____ _____    ______ ____
ROOT
ATOM      1  F   UNL     1      31.880 -20.901 -20.232  0.00  0.00    -0.201 F 
ATOM      2  C   UNL     1      35.025 -19.130 -20.581  0.00  0.00    -0.041 C 
ATOM      3  C   UNL     1      33.672 -19.421 -20.677  0.00  0.00    +0.026 C 
ATOM      4  C   UNL     1      35.903 -20.007 -19.960  0.00  0.00    -0.003 C 
ATOM      5  C   UNL     1      33.186 -20.614 -20.141  0.00  0.00    +0.174 C 
ATOM      6  C   UNL     1      35.418 -21.200 -19.424  0.00  0.00    +0.039 C 
ATOM      7  C   UNL     1      34.058 -21.504 -19.515  0.00  0.00    +0.174 C 
ENDROOT
BRANCH   7   8
ATOM      8  O   UNL     1      33.587 -22.668 -18.992  0.00  0.00    -0.434 OA
BRANCH   8  10
ATOM      9  N   UNL     1      31.675 -22.497 -17.688  0.00  0.00    -0.210 NA
ATOM     10  C   UNL     1      33.014 -22.624 -17.732  0.00  0.00    +0.230 C 
ATOM     11  C   UNL     1      33.839 -22.711 -16.631  0.00  0.00    +0.058 C 
ATOM     12  C   UNL     1      33.240 -22.664 -15.378  0.00  0.00    +0.011 C 
ATOM     13  C   UNL     1      31.859 -22.534 -15.278  0.00  0.00    +0.072 C 
ATOM     14  C   UNL     1      31.129 -22.455 -16.452  0.00  0.00    +0.107 C 
BRANCH  13  17
ATOM     15  O   UNL     1      29.964 -22.442 -13.883  0.00  0.00    -0.270 OA
ATOM     16  N   UNL     1      32.008 -22.499 -12.846  0.00  0.00    -0.325 N 
ATOM     17  C   UNL     1      31.203 -22.482 -13.982  0.00  0.00    +0.244 C 
ATOM     18  H   UNL     1      31.597 -22.465 -11.952  0.00  0.00    +0.145 HD
ATOM     19  H   UNL     1      32.987 -22.544 -12.937  0.00  0.00    +0.145 HD
ENDBRANCH  13  17
ENDBRANCH   8  10
ENDBRANCH   7   8
BRANCH   2  20
ATOM     20  C   UNL     1      35.550 -17.844 -21.160  0.00  0.00    -0.054 C 
BRANCH  20  21
ATOM     21  N   UNL     1      34.849 -17.474 -22.382  0.00  0.00    +0.386 N 
ATOM     22  H   UNL     1      35.393 -17.785 -23.187  0.00  0.00    -0.084 HD
ATOM     23  H   UNL     1      33.931 -17.920 -22.380  0.00  0.00    -0.084 HD
BRANCH  21  24
ATOM     24  C   UNL     1      34.665 -16.030 -22.459  0.00  0.00    -0.081 C 
BRANCH  24  25
ATOM     25  C   UNL     1      34.210 -15.488 -21.109  0.00  0.00    -0.023 C 
BRANCH  25  27
ATOM     26  O   UNL     1      31.857 -12.078 -22.132  0.00  0.00    -0.354 OA
ATOM     27  C   UNL     1      33.776 -14.028 -21.219  0.00  0.00    +0.003 C 
ATOM     28  C   UNL     1      32.436 -13.795 -20.514  0.00  0.00    +0.032 C 
ATOM     29  C   UNL     1      33.674 -13.592 -22.685  0.00  0.00    +0.032 C 
ATOM     30  C   UNL     1      31.951 -12.368 -20.737  0.00  0.00    +0.142 C 
ATOM     31  C   UNL     1      33.119 -12.176 -22.789  0.00  0.00    +0.142 C 
ENDBRANCH  25  27
ENDBRANCH  24  25
ENDBRANCH  21  24
ENDBRANCH  20  21
ENDBRANCH   2  20
TORSDOF 8
ENDMDL
MODEL 5
REMARK VINA RESULT:     -11.4      4.729     10.582
REMARK  Name = 10457387
REMARK  8 active torsions:
REMARK  status: ('A' for Active; 'I' for Inactive)
REMARK    1  A    between atoms: C_2  and  C_20
REMARK    2  A    between atoms: C_7  and  O_8
REMARK    3  A    between atoms: O_8  and  C_10
REMARK    4  A    between atoms: C_13  and  C_17
REMARK    5  A    between atoms: C_20  and  N_21
REMARK    6  A    between atoms: N_21  and  C_24
REMARK    7  A    between atoms: C_24  and  C_25
REMARK    8  A    between atoms: C_25  and  C_27
REMARK                            x       y       z     vdW  Elec       q    Type
REMARK                         _______ _______ _______ _____ _____    ______ ____
ROOT
ATOM      1  F   UNL     1      34.277 -16.914 -24.699  0.00  0.00    -0.201 F 
ATOM      2  C   UNL     1      33.788 -14.382 -22.149  0.00  0.00    -0.041 C 
ATOM      3  C   UNL     1      33.828 -14.990 -23.396  0.00  0.00    +0.026 C 
ATOM      4  C   UNL     1      34.147 -15.076 -21.002  0.00  0.00    -0.003 C 
ATOM      5  C   UNL     1      34.236 -16.321 -23.497  0.00  0.00    +0.174 C 
ATOM      6  C   UNL     1      34.554 -16.406 -21.104  0.00  0.00    +0.039 C 
ATOM      7  C   UNL     1      34.599 -17.029 -22.352  0.00  0.00    +0.174 C 
ENDROOT
BRANCH   7   8
ATOM      8  O   UNL     1      34.997 -18.326 -22.449  0.00  0.00    -0.434 OA
BRANCH   8  10
ATOM      9  N   UNL     1      33.311 -19.441 -21.309  0.00  0.00    -0.210 NA
ATOM     10  C   UNL     1      34.627 -19.191 -21.433  0.00  0.00    +0.230 C 
ATOM     11  C   UNL     1      35.615 -19.727 -20.634  0.00  0.00    +0.058 C 
ATOM     12  C   UNL     1      35.218 -20.593 -19.621  0.00  0.00    +0.011 C 
ATOM     13  C   UNL     1      33.869 -20.884 -19.452  0.00  0.00    +0.072 C 
ATOM     14  C   UNL     1      32.964 -20.287 -20.314  0.00  0.00    +0.107 C 
BRANCH  13  17
ATOM     15  O   UNL     1      34.233 -22.382 -17.671  0.00  0.00    -0.270 OA
ATOM     16  N   UNL     1      32.051 -21.948 -18.226  0.00  0.00    -0.325 N 
ATOM     17  C   UNL     1      33.423 -21.785 -18.403  0.00  0.00    +0.244 C 
ATOM     18  H   UNL     1      31.714 -22.551 -17.525  0.00  0.00    +0.145 HD
ATOM     19  H   UNL     1      31.420 -21.460 -18.802  0.00  0.00    +0.145 HD
ENDBRANCH  13  17
ENDBRANCH   8  10
ENDBRANCH   7   8
BRANCH   2  20
ATOM     20  C   UNL     1      33.350 -12.946 -22.040  0.00  0.00    -0.054 C 
BRANCH  20  21
ATOM     21  N   UNL     1      32.036 -12.825 -21.425  0.00  0.00    +0.386 N 
ATOM     22  H   UNL     1      31.427 -13.558 -21.790  0.00  0.00    -0.084 HD
ATOM     23  H   UNL     1      32.139 -12.919 -20.414  0.00  0.00    -0.084 HD
BRANCH  21  24
ATOM     24  C   UNL     1      31.444 -11.524 -21.714  0.00  0.00    -0.081 C 
BRANCH  24  25
ATOM     25  C   UNL     1      31.153 -10.781 -20.415  0.00  0.00    -0.023 C 
BRANCH  25  27
ATOM     26  O   UNL     1      32.250  -6.719 -21.128  0.00  0.00    -0.354 OA
ATOM     27  C   UNL     1      31.010  -9.281 -20.659  0.00  0.00    +0.003 C 
ATOM     28  C   UNL     1      31.597  -8.883 -22.018  0.00  0.00    +0.032 C 
ATOM     29  C   UNL     1      31.685  -8.473 -19.545  0.00  0.00    +0.032 C 
ATOM     30  C   UNL     1      31.563  -7.370 -22.197  0.00  0.00    +0.142 C 
ATOM     31  C   UNL     1      31.648  -6.982 -19.862  0.00  0.00    +0.142 C 
ENDBRANCH  25  27
ENDBRANCH  24  25
ENDBRANCH  21  24
ENDBRANCH  20  21
ENDBRANCH   2  20
TORSDOF 8
ENDMDL
MODEL 6
REMARK VINA RESULT:     -11.3      2.391      3.253
REMARK  Name = 10457387
REMARK  8 active torsions:
REMARK  status: ('A' for Active; 'I' for Inactive)
REMARK    1  A    between atoms: C_2  and  C_20
REMARK    2  A    between atoms: C_7  and  O_8
REMARK    3  A    between atoms: O_8  and  C_10
REMARK    4  A    between atoms: C_13  and  C_17
REMARK    5  A    between atoms: C_20  and  N_21
REMARK    6  A    between atoms: N_21  and  C_24
REMARK    7  A    between atoms: C_24  and  C_25
REMARK    8  A    between atoms: C_25  and  C_27
REMARK                            x       y       z     vdW  Elec       q    Type
REMARK                         _______ _______ _______ _____ _____    ______ ____
ROOT
ATOM      1  F   UNL     1      37.175 -18.585 -21.231  0.00  0.00    -0.201 F 
ATOM      2  C   UNL     1      34.505 -20.533 -19.739  0.00  0.00    -0.041 C 
ATOM      3  C   UNL     1      35.771 -20.014 -19.972  0.00  0.00    +0.026 C 
ATOM      4  C   UNL     1      33.420 -20.146 -20.512  0.00  0.00    -0.003 C 
ATOM      5  C   UNL     1      35.955 -19.089 -21.000  0.00  0.00    +0.174 C 
ATOM      6  C   UNL     1      33.604 -19.221 -21.539  0.00  0.00    +0.039 C 
ATOM      7  C   UNL     1      34.872 -18.692 -21.784  0.00  0.00    +0.174 C 
ENDROOT
BRANCH   7   8
ATOM      8  O   UNL     1      35.049 -17.790 -22.787  0.00  0.00    -0.434 OA
BRANCH   8  10
ATOM      9  N   UNL     1      34.063 -15.913 -23.731  0.00  0.00    -0.210 NA
ATOM     10  C   UNL     1      34.512 -16.525 -22.619  0.00  0.00    +0.230 C 
ATOM     11  C   UNL     1      34.474 -15.990 -21.349  0.00  0.00    +0.058 C 
ATOM     12  C   UNL     1      33.929 -14.719 -21.207  0.00  0.00    +0.011 C 
ATOM     13  C   UNL     1      33.450 -14.045 -22.324  0.00  0.00    +0.072 C 
ATOM     14  C   UNL     1      33.540 -14.680 -23.553  0.00  0.00    +0.107 C 
BRANCH  13  17
ATOM     15  O   UNL     1      33.203 -11.796 -22.980  0.00  0.00    -0.270 OA
ATOM     16  N   UNL     1      31.925 -12.504 -21.213  0.00  0.00    -0.325 N 
ATOM     17  C   UNL     1      32.875 -12.716 -22.208  0.00  0.00    +0.244 C 
ATOM     18  H   UNL     1      31.515 -11.616 -21.105  0.00  0.00    +0.145 HD
ATOM     19  H   UNL     1      31.664 -13.243 -20.616  0.00  0.00    +0.145 HD
ENDBRANCH  13  17
ENDBRANCH   8  10
ENDBRANCH   7   8
BRANCH   2  20
ATOM     20  C   UNL     1      34.307 -21.532 -18.631  0.00  0.00    -0.054 C 
BRANCH  20  21
ATOM     21  N   UNL     1      32.933 -22.011 -18.572  0.00  0.00    +0.386 N 
ATOM     22  H   UNL     1      32.300 -21.212 -18.578  0.00  0.00    -0.084 HD
ATOM     23  H   UNL     1      32.761 -22.608 -19.381  0.00  0.00    -0.084 HD
BRANCH  21  24
ATOM     24  C   UNL     1      32.707 -22.791 -17.361  0.00  0.00    -0.081 C 
BRANCH  24  25
ATOM     25  C   UNL     1      31.354 -22.434 -16.754  0.00  0.00    -0.023 C 
BRANCH  25  27
ATOM     26  O   UNL     1      31.695 -24.531 -13.053  0.00  0.00    -0.354 OA
ATOM     27  C   UNL     1      31.339 -22.697 -15.250  0.00  0.00    +0.003 C 
ATOM     28  C   UNL     1      32.721 -23.128 -14.750  0.00  0.00    +0.032 C 
ATOM     29  C   UNL     1      30.299 -23.762 -14.886  0.00  0.00    +0.032 C 
ATOM     30  C   UNL     1      32.666 -23.509 -13.276  0.00  0.00    +0.142 C 
ATOM     31  C   UNL     1      30.378 -24.108 -13.404  0.00  0.00    +0.142 C 
ENDBRANCH  25  27
ENDBRANCH  24  25
ENDBRANCH  21  24
ENDBRANCH  20  21
ENDBRANCH   2  20
TORSDOF 8
ENDMDL
MODEL 7
REMARK VINA RESULT:     -11.2      5.697      8.582
REMARK  Name = 10457387
REMARK  8 active torsions:
REMARK  status: ('A' for Active; 'I' for Inactive)
REMARK    1  A    between atoms: C_2  and  C_20
REMARK    2  A    between atoms: C_7  and  O_8
REMARK    3  A    between atoms: O_8  and  C_10
REMARK    4  A    between atoms: C_13  and  C_17
REMARK    5  A    between atoms: C_20  and  N_21
REMARK    6  A    between atoms: N_21  and  C_24
REMARK    7  A    between atoms: C_24  and  C_25
REMARK    8  A    between atoms: C_25  and  C_27
REMARK                            x       y       z     vdW  Elec       q    Type
REMARK                         _______ _______ _______ _____ _____    ______ ____
ROOT
ATOM      1  F   UNL     1      32.404 -12.001 -24.124  0.00  0.00    -0.201 F 
ATOM      2  C   UNL     1      33.534 -14.372 -21.623  0.00  0.00    -0.041 C 
ATOM      3  C   UNL     1      33.432 -13.695 -22.831  0.00  0.00    +0.026 C 
ATOM      4  C   UNL     1      32.732 -14.034 -20.543  0.00  0.00    -0.003 C 
ATOM      5  C   UNL     1      32.508 -12.658 -22.960  0.00  0.00    +0.174 C 
ATOM      6  C   UNL     1      31.808 -12.997 -20.672  0.00  0.00    +0.039 C 
ATOM      7  C   UNL     1      31.696 -12.309 -21.882  0.00  0.00    +0.174 C 
ENDROOT
BRANCH   7   8
ATOM      8  O   UNL     1      30.793 -11.298 -22.006  0.00  0.00    -0.434 OA
BRANCH   8  10
ATOM      9  N   UNL     1      31.571  -9.157 -22.452  0.00  0.00    -0.210 NA
ATOM     10  C   UNL     1      31.156 -10.048 -21.533  0.00  0.00    +0.230 C 
ATOM     11  C   UNL     1      31.071  -9.808 -20.178  0.00  0.00    +0.058 C 
ATOM     12  C   UNL     1      31.441  -8.546 -19.728  0.00  0.00    +0.011 C 
ATOM     13  C   UNL     1      31.875  -7.589 -20.638  0.00  0.00    +0.072 C 
ATOM     14  C   UNL     1      31.921  -7.942 -21.977  0.00  0.00    +0.107 C 
BRANCH  13  17
ATOM     15  O   UNL     1      32.613  -6.040 -19.024  0.00  0.00    -0.270 OA
ATOM     16  N   UNL     1      32.266  -5.237 -21.144  0.00  0.00    -0.325 N 
ATOM     17  C   UNL     1      32.268  -6.261 -20.199  0.00  0.00    +0.244 C 
ATOM     18  H   UNL     1      32.527  -4.325 -20.881  0.00  0.00    +0.145 HD
ATOM     19  H   UNL     1      32.004  -5.426 -22.074  0.00  0.00    +0.145 HD
ENDBRANCH  13  17
ENDBRANCH   8  10
ENDBRANCH   7   8
BRANCH   2  20
ATOM     20  C   UNL     1      34.530 -15.492 -21.485  0.00  0.00    -0.054 C 
BRANCH  20  21
ATOM     21  N   UNL     1      34.818 -16.124 -22.765  0.00  0.00    +0.386 N 
ATOM     22  H   UNL     1      34.196 -15.738 -23.475  0.00  0.00    -0.084 HD
ATOM     23  H   UNL     1      35.792 -15.940 -23.007  0.00  0.00    -0.084 HD
BRANCH  21  24
ATOM     24  C   UNL     1      34.622 -17.566 -22.689  0.00  0.00    -0.081 C 
BRANCH  24  25
ATOM     25  C   UNL     1      35.686 -18.194 -21.795  0.00  0.00    -0.023 C 
BRANCH  25  27
ATOM     26  O   UNL     1      34.004 -21.449 -19.607  0.00  0.00    -0.354 OA
ATOM     27  C   UNL     1      35.051 -18.969 -20.644  0.00  0.00    +0.003 C 
ATOM     28  C   UNL     1      35.954 -20.119 -20.187  0.00  0.00    +0.032 C 
ATOM     29  C   UNL     1      33.673 -19.514 -21.038  0.00  0.00    +0.032 C 
ATOM     30  C   UNL     1      35.257 -20.962 -19.125  0.00  0.00    +0.142 C 
ATOM     31  C   UNL     1      33.103 -20.391 -19.929  0.00  0.00    +0.142 C 
ENDBRANCH  25  27
ENDBRANCH  24  25
ENDBRANCH  21  24
ENDBRANCH  20  21
ENDBRANCH   2  20
TORSDOF 8
ENDMDL
MODEL 8
REMARK VINA RESULT:     -11.2      4.254     10.183
REMARK  Name = 10457387
REMARK  8 active torsions:
REMARK  status: ('A' for Active; 'I' for Inactive)
REMARK    1  A    between atoms: C_2  and  C_20
REMARK    2  A    between atoms: C_7  and  O_8
REMARK    3  A    between atoms: O_8  and  C_10
REMARK    4  A    between atoms: C_13  and  C_17
REMARK    5  A    between atoms: C_20  and  N_21
REMARK    6  A    between atoms: N_21  and  C_24
REMARK    7  A    between atoms: C_24  and  C_25
REMARK    8  A    between atoms: C_25  and  C_27
REMARK                            x       y       z     vdW  Elec       q    Type
REMARK                         _______ _______ _______ _____ _____    ______ ____
ROOT
ATOM      1  F   UNL     1      34.921 -16.364 -20.335  0.00  0.00    -0.201 F 
ATOM      2  C   UNL     1      33.564 -14.723 -23.271  0.00  0.00    -0.041 C 
ATOM      3  C   UNL     1      33.913 -14.956 -21.948  0.00  0.00    +0.026 C 
ATOM      4  C   UNL     1      33.871 -15.642 -24.264  0.00  0.00    -0.003 C 
ATOM      5  C   UNL     1      34.583 -16.133 -21.612  0.00  0.00    +0.174 C 
ATOM      6  C   UNL     1      34.541 -16.818 -23.928  0.00  0.00    +0.039 C 
ATOM      7  C   UNL     1      34.897 -17.064 -22.601  0.00  0.00    +0.174 C 
ENDROOT
BRANCH   7   8
ATOM      8  O   UNL     1      35.549 -18.213 -22.275  0.00  0.00    -0.434 OA
BRANCH   8  10
ATOM      9  N   UNL     1      35.742 -19.667 -20.477  0.00  0.00    -0.210 NA
ATOM     10  C   UNL     1      34.937 -19.068 -21.374  0.00  0.00    +0.230 C 
ATOM     11  C   UNL     1      33.572 -19.244 -21.457  0.00  0.00    +0.058 C 
ATOM     12  C   UNL     1      32.982 -20.107 -20.542  0.00  0.00    +0.011 C 
ATOM     13  C   UNL     1      33.769 -20.750 -19.593  0.00  0.00    +0.072 C 
ATOM     14  C   UNL     1      35.132 -20.499 -19.603  0.00  0.00    +0.107 C 
BRANCH  13  17
ATOM     15  O   UNL     1      33.876 -22.484 -18.002  0.00  0.00    -0.270 OA
ATOM     16  N   UNL     1      31.812 -21.564 -18.391  0.00  0.00    -0.325 N 
ATOM     17  C   UNL     1      33.182 -21.658 -18.623  0.00  0.00    +0.244 C 
ATOM     18  H   UNL     1      31.381 -22.163 -17.740  0.00  0.00    +0.145 HD
ATOM     19  H   UNL     1      31.275 -20.897 -18.878  0.00  0.00    +0.145 HD
ENDBRANCH  13  17
ENDBRANCH   8  10
ENDBRANCH   7   8
BRANCH   2  20
ATOM     20  C   UNL     1      32.840 -13.454 -23.633  0.00  0.00    -0.054 C 
BRANCH  20  21
ATOM     21  N   UNL     1      33.509 -12.276 -23.098  0.00  0.00    +0.386 N 
ATOM     22  H   UNL     1      33.892 -12.498 -22.179  0.00  0.00    -0.084 HD
ATOM     23  H   UNL     1      34.256 -12.006 -23.739  0.00  0.00    -0.084 HD
BRANCH  21  24
ATOM     24  C   UNL     1      32.578 -11.162 -22.972  0.00  0.00    -0.081 C 
BRANCH  24  25
ATOM     25  C   UNL     1      31.480 -11.508 -21.972  0.00  0.00    -0.023 C 
BRANCH  25  27
ATOM     26  O   UNL     1      32.010  -8.155 -19.386  0.00  0.00    -0.354 OA
ATOM     27  C   UNL     1      31.134 -10.306 -21.096  0.00  0.00    +0.003 C 
ATOM     28  C   UNL     1      31.769  -9.023 -21.642  0.00  0.00    +0.032 C 
ATOM     29  C   UNL     1      31.582 -10.532 -19.648  0.00  0.00    +0.032 C 
ATOM     30  C   UNL     1      31.524  -7.855 -20.694  0.00  0.00    +0.142 C 
ATOM     31  C   UNL     1      31.348  -9.280 -18.810  0.00  0.00    +0.142 C 
ENDBRANCH  25  27
ENDBRANCH  24  25
ENDBRANCH  21  24
ENDBRANCH  20  21
ENDBRANCH   2  20
TORSDOF 8
ENDMDL
MODEL 9
REMARK VINA RESULT:     -11.1      5.312      8.051
REMARK  Name = 10457387
REMARK  8 active torsions:
REMARK  status: ('A' for Active; 'I' for Inactive)
REMARK    1  A    between atoms: C_2  and  C_20
REMARK    2  A    between atoms: C_7  and  O_8
REMARK    3  A    between atoms: O_8  and  C_10
REMARK    4  A    between atoms: C_13  and  C_17
REMARK    5  A    between atoms: C_20  and  N_21
REMARK    6  A    between atoms: N_21  and  C_24
REMARK    7  A    between atoms: C_24  and  C_25
REMARK    8  A    between atoms: C_25  and  C_27
REMARK                            x       y       z     vdW  Elec       q    Type
REMARK                         _______ _______ _______ _____ _____    ______ ____
ROOT
ATOM      1  F   UNL     1      31.784 -13.128 -19.551  0.00  0.00    -0.201 F 
ATOM      2  C   UNL     1      33.758 -14.630 -22.197  0.00  0.00    -0.041 C 
ATOM      3  C   UNL     1      33.260 -14.361 -20.929  0.00  0.00    +0.026 C 
ATOM      4  C   UNL     1      33.284 -13.950 -23.310  0.00  0.00    -0.003 C 
ATOM      5  C   UNL     1      32.268 -13.393 -20.773  0.00  0.00    +0.174 C 
ATOM      6  C   UNL     1      32.292 -12.982 -23.154  0.00  0.00    +0.039 C 
ATOM      7  C   UNL     1      31.784 -12.703 -21.884  0.00  0.00    +0.174 C 
ENDROOT
BRANCH   7   8
ATOM      8  O   UNL     1      30.817 -11.758 -21.733  0.00  0.00    -0.434 OA
BRANCH   8  10
ATOM      9  N   UNL     1      31.690  -9.731 -22.451  0.00  0.00    -0.210 NA
ATOM     10  C   UNL     1      31.218 -10.468 -21.429  0.00  0.00    +0.230 C 
ATOM     11  C   UNL     1      31.110 -10.036 -20.124  0.00  0.00    +0.058 C 
ATOM     12  C   UNL     1      31.519  -8.738 -19.844  0.00  0.00    +0.011 C 
ATOM     13  C   UNL     1      32.013  -7.935 -20.866  0.00  0.00    +0.072 C 
ATOM     14  C   UNL     1      32.077  -8.474 -22.141  0.00  0.00    +0.107 C 
BRANCH  13  17
ATOM     15  O   UNL     1      32.670  -5.773 -21.533  0.00  0.00    -0.270 OA
ATOM     16  N   UNL     1      32.595  -6.181 -19.278  0.00  0.00    -0.325 N 
ATOM     17  C   UNL     1      32.449  -6.573 -20.606  0.00  0.00    +0.244 C 
ATOM     18  H   UNL     1      32.888  -5.266 -19.065  0.00  0.00    +0.145 HD
ATOM     19  H   UNL     1      32.404  -6.818 -18.552  0.00  0.00    +0.145 HD
ENDBRANCH  13  17
ENDBRANCH   8  10
ENDBRANCH   7   8
BRANCH   2  20
ATOM     20  C   UNL     1      34.829 -15.673 -22.366  0.00  0.00    -0.054 C 
BRANCH  20  21
ATOM     21  N   UNL     1      34.790 -16.668 -21.303  0.00  0.00    +0.386 N 
ATOM     22  H   UNL     1      35.373 -16.352 -20.528  0.00  0.00    -0.084 HD
ATOM     23  H   UNL     1      33.823 -16.782 -20.998  0.00  0.00    -0.084 HD
BRANCH  21  24
ATOM     24  C   UNL     1      35.283 -17.955 -21.778  0.00  0.00    -0.081 C 
BRANCH  24  25
ATOM     25  C   UNL     1      34.174 -18.999 -21.711  0.00  0.00    -0.023 C 
BRANCH  25  27
ATOM     26  O   UNL     1      34.099 -22.092 -18.772  0.00  0.00    -0.354 OA
ATOM     27  C   UNL     1      34.133 -19.672 -20.341  0.00  0.00    +0.003 C 
ATOM     28  C   UNL     1      35.387 -20.521 -20.106  0.00  0.00    +0.032 C 
ATOM     29  C   UNL     1      32.880 -20.542 -20.190  0.00  0.00    +0.032 C 
ATOM     30  C   UNL     1      35.278 -21.288 -18.793  0.00  0.00    +0.142 C 
ATOM     31  C   UNL     1      32.912 -21.308 -18.873  0.00  0.00    +0.142 C 
ENDBRANCH  25  27
ENDBRANCH  24  25
ENDBRANCH  21  24
ENDBRANCH  20  21
ENDBRANCH   2  20
TORSDOF 8
ENDMDL
