MODEL 1
REMARK VINA RESULT:     -12.0      0.000      0.000
REMARK  Name = 5334
REMARK  5 active torsions:
REMARK  status: ('A' for Active; 'I' for Inactive)
REMARK    1  A    between atoms: S_1  and  C_4
REMARK    2  A    between atoms: S_1  and  N_15
REMARK    3  A    between atoms: C_7  and  N_11
REMARK    4  A    between atoms: N_15  and  C_17
REMARK    5  A    between atoms: C_20  and  N_25
REMARK                            x       y       z     vdW  Elec       q    Type
REMARK                         _______ _______ _______ _____ _____    ______ ____
ROOT
ATOM      1  S   UNL     1      35.487 -18.070 -21.567  0.00  0.00    +0.074 S 
ATOM      2  O   UNL     1      36.037 -18.079 -20.217  0.00  0.00    -0.150 OA
ATOM      3  O   UNL     1      36.366 -18.391 -22.685  0.00  0.00    -0.150 OA
ENDROOT
BRANCH   1   4
ATOM      4  C   UNL     1      34.782 -16.498 -21.846  0.00  0.00    +0.125 C 
ATOM      5  C   UNL     1      34.342 -15.729 -20.768  0.00  0.00    +0.021 C 
ATOM      6  C   UNL     1      34.659 -16.010 -23.146  0.00  0.00    +0.021 C 
ATOM      7  C   UNL     1      33.656 -13.984 -22.292  0.00  0.00    +0.050 C 
ATOM      8  C   UNL     1      33.779 -14.472 -20.991  0.00  0.00    +0.016 C 
ATOM      9  C   UNL     1      34.096 -14.753 -23.369  0.00  0.00    +0.016 C 
BRANCH   7  11
ATOM     10  O   UNL     1      31.434 -12.553 -20.849  0.00  0.00    -0.275 OA
ATOM     11  N   UNL     1      33.094 -12.728 -22.514  0.00  0.00    -0.284 N 
ATOM     12  C   UNL     1      32.054 -12.107 -21.809  0.00  0.00    +0.227 C 
ATOM     13  C   UNL     1      31.737 -10.741 -22.365  0.00  0.00    +0.095 C 
ATOM     14  H   UNL     1      33.476 -12.211 -23.261  0.00  0.00    +0.155 HD
ENDBRANCH   7  11
ENDBRANCH   1   4
BRANCH   1  15
ATOM     15  N   UNL     1      34.117 -19.114 -21.594  0.00  0.00    -0.215 N 
ATOM     16  H   UNL     1      33.481 -19.095 -22.346  0.00  0.00    +0.174 HD
BRANCH  15  17
ATOM     17  C   UNL     1      33.929 -20.013 -20.489  0.00  0.00    +0.065 C 
ATOM     18  C   UNL     1      32.648 -20.242 -19.999  0.00  0.00    +0.018 C 
ATOM     19  C   UNL     1      35.029 -20.645 -19.922  0.00  0.00    +0.018 C 
ATOM     20  C   UNL     1      33.564 -21.753 -18.352  0.00  0.00    +0.143 C 
ATOM     21  C   UNL     1      32.466 -21.115 -18.927  0.00  0.00    +0.025 C 
ATOM     22  C   UNL     1      34.846 -21.517 -18.848  0.00  0.00    +0.025 C 
BRANCH  20  25
ATOM     23  O   UNL     1      34.388 -23.096 -16.668  0.00  0.00    -0.126 OA
ATOM     24  O   UNL     1      32.211 -22.946 -16.914  0.00  0.00    -0.126 OA
ATOM     25  N   UNL     1      33.379 -22.641 -17.259  0.00  0.00    +0.058 N 
ENDBRANCH  20  25
ENDBRANCH  15  17
ENDBRANCH   1  15
TORSDOF 5
ENDMDL
MODEL 2
REMARK VINA RESULT:     -11.8      1.764      8.573
REMARK  Name = 5334
REMARK  5 active torsions:
REMARK  status: ('A' for Active; 'I' for Inactive)
REMARK    1  A    between atoms: S_1  and  C_4
REMARK    2  A    between atoms: S_1  and  N_15
REMARK    3  A    between atoms: C_7  and  N_11
REMARK    4  A    between atoms: N_15  and  C_17
REMARK    5  A    between atoms: C_20  and  N_25
REMARK                            x       y       z     vdW  Elec       q    Type
REMARK                         _______ _______ _______ _____ _____    ______ ____
ROOT
ATOM      1  S   UNL     1      34.890 -18.572 -21.727  0.00  0.00    +0.074 S 
ATOM      2  O   UNL     1      33.753 -18.617 -22.638  0.00  0.00    -0.150 OA
ATOM      3  O   UNL     1      36.229 -18.780 -22.263  0.00  0.00    -0.150 OA
ENDROOT
BRANCH   1   4
ATOM      4  C   UNL     1      34.606 -19.743 -20.463  0.00  0.00    +0.125 C 
ATOM      5  C   UNL     1      33.303 -20.122 -20.142  0.00  0.00    +0.021 C 
ATOM      6  C   UNL     1      35.684 -20.300 -19.775  0.00  0.00    +0.021 C 
ATOM      7  C   UNL     1      34.155 -21.615 -18.444  0.00  0.00    +0.050 C 
ATOM      8  C   UNL     1      33.077 -21.058 -19.132  0.00  0.00    +0.016 C 
ATOM      9  C   UNL     1      35.458 -21.236 -18.766  0.00  0.00    +0.016 C 
BRANCH   7  11
ATOM     10  O   UNL     1      35.268 -21.789 -15.652  0.00  0.00    -0.275 OA
ATOM     11  N   UNL     1      33.928 -22.551 -17.436  0.00  0.00    -0.284 N 
ATOM     12  C   UNL     1      34.477 -22.586 -16.147  0.00  0.00    +0.227 C 
ATOM     13  C   UNL     1      33.976 -23.768 -15.356  0.00  0.00    +0.095 C 
ATOM     14  H   UNL     1      33.304 -23.280 -17.658  0.00  0.00    +0.155 HD
ENDBRANCH   7  11
ENDBRANCH   1   4
BRANCH   1  15
ATOM     15  N   UNL     1      34.836 -17.074 -20.878  0.00  0.00    -0.215 N 
ATOM     16  H   UNL     1      35.076 -17.023 -19.924  0.00  0.00    +0.174 HD
BRANCH  15  17
ATOM     17  C   UNL     1      34.431 -15.899 -21.602  0.00  0.00    +0.065 C 
ATOM     18  C   UNL     1      33.922 -14.807 -20.910  0.00  0.00    +0.018 C 
ATOM     19  C   UNL     1      34.552 -15.870 -22.986  0.00  0.00    +0.018 C 
ATOM     20  C   UNL     1      33.648 -13.629 -23.001  0.00  0.00    +0.143 C 
ATOM     21  C   UNL     1      33.530 -13.668 -21.612  0.00  0.00    +0.025 C 
ATOM     22  C   UNL     1      34.158 -14.730 -23.688  0.00  0.00    +0.025 C 
BRANCH  20  25
ATOM     23  O   UNL     1      33.383 -11.345 -23.176  0.00  0.00    -0.126 OA
ATOM     24  O   UNL     1      32.770 -12.601 -24.870  0.00  0.00    -0.126 OA
ATOM     25  N   UNL     1      33.247 -12.469 -23.717  0.00  0.00    +0.058 N 
ENDBRANCH  20  25
ENDBRANCH  15  17
ENDBRANCH   1  15
TORSDOF 5
ENDMDL
MODEL 3
REMARK VINA RESULT:     -11.6      3.632      6.544
REMARK  Name = 5334
REMARK  5 active torsions:
REMARK  status: ('A' for Active; 'I' for Inactive)
REMARK    1  A    between atoms: S_1  and  C_4
REMARK    2  A    between atoms: S_1  and  N_15
REMARK    3  A    between atoms: C_7  and  N_11
REMARK    4  A    between atoms: N_15  and  C_17
REMARK    5  A    between atoms: C_20  and  N_25
REMARK                            x       y       z     vdW  Elec       q    Type
REMARK                         _______ _______ _______ _____ _____    ______ ____
ROOT
ATOM      1  S   UNL     1      33.020 -22.794 -17.081  0.00  0.00    +0.074 S 
ATOM      2  O   UNL     1      33.559 -24.100 -17.441  0.00  0.00    -0.150 OA
ATOM      3  O   UNL     1      31.605 -22.686 -16.746  0.00  0.00    -0.150 OA
ENDROOT
BRANCH   1   4
ATOM      4  C   UNL     1      33.369 -21.694 -18.391  0.00  0.00    +0.125 C 
ATOM      5  C   UNL     1      34.687 -21.489 -18.798  0.00  0.00    +0.021 C 
ATOM      6  C   UNL     1      32.329 -21.020 -19.030  0.00  0.00    +0.021 C 
ATOM      7  C   UNL     1      33.926 -19.936 -20.484  0.00  0.00    +0.050 C 
ATOM      8  C   UNL     1      34.966 -20.610 -19.845  0.00  0.00    +0.016 C 
ATOM      9  C   UNL     1      32.608 -20.141 -20.077  0.00  0.00    +0.016 C 
BRANCH   7  11
ATOM     10  O   UNL     1      35.247 -17.230 -20.467  0.00  0.00    -0.275 OA
ATOM     11  N   UNL     1      34.205 -19.058 -21.531  0.00  0.00    -0.284 N 
ATOM     12  C   UNL     1      34.824 -17.803 -21.467  0.00  0.00    +0.227 C 
ATOM     13  C   UNL     1      34.942 -17.166 -22.829  0.00  0.00    +0.095 C 
ATOM     14  H   UNL     1      33.933 -19.358 -22.428  0.00  0.00    +0.155 HD
ENDBRANCH   7  11
ENDBRANCH   1   4
BRANCH   1  15
ATOM     15  N   UNL     1      33.967 -22.163 -15.788  0.00  0.00    -0.215 N 
ATOM     16  H   UNL     1      33.709 -21.328 -15.333  0.00  0.00    +0.174 HD
BRANCH  15  17
ATOM     17  C   UNL     1      35.143 -22.889 -15.392  0.00  0.00    +0.065 C 
ATOM     18  C   UNL     1      35.010 -24.104 -14.732  0.00  0.00    +0.018 C 
ATOM     19  C   UNL     1      36.400 -22.367 -15.675  0.00  0.00    +0.018 C 
ATOM     20  C   UNL     1      37.416 -24.293 -14.628  0.00  0.00    +0.143 C 
ATOM     21  C   UNL     1      36.151 -24.809 -14.349  0.00  0.00    +0.025 C 
ATOM     22  C   UNL     1      37.541 -23.072 -15.290  0.00  0.00    +0.025 C 
BRANCH  20  25
ATOM     23  O   UNL     1      39.563 -24.373 -13.791  0.00  0.00    -0.126 OA
ATOM     24  O   UNL     1      38.588 -26.260 -14.347  0.00  0.00    -0.126 OA
ATOM     25  N   UNL     1      38.579 -25.010 -14.237  0.00  0.00    +0.058 N 
ENDBRANCH  20  25
ENDBRANCH  15  17
ENDBRANCH   1  15
TORSDOF 5
ENDMDL
MODEL 4
REMARK VINA RESULT:     -11.3      3.516      9.142
REMARK  Name = 5334
REMARK  5 active torsions:
REMARK  status: ('A' for Active; 'I' for Inactive)
REMARK    1  A    between atoms: S_1  and  C_4
REMARK    2  A    between atoms: S_1  and  N_15
REMARK    3  A    between atoms: C_7  and  N_11
REMARK    4  A    between atoms: N_15  and  C_17
REMARK    5  A    between atoms: C_20  and  N_25
REMARK                            x       y       z     vdW  Elec       q    Type
REMARK                         _______ _______ _______ _____ _____    ______ ____
ROOT
ATOM      1  S   UNL     1      34.465 -21.101 -19.453  0.00  0.00    +0.074 S 
ATOM      2  O   UNL     1      33.122 -20.574 -19.245  0.00  0.00    -0.150 OA
ATOM      3  O   UNL     1      34.647 -22.219 -20.371  0.00  0.00    -0.150 OA
ENDROOT
BRANCH   1   4
ATOM      4  C   UNL     1      35.109 -21.548 -17.893  0.00  0.00    +0.125 C 
ATOM      5  C   UNL     1      36.402 -21.166 -17.536  0.00  0.00    +0.021 C 
ATOM      6  C   UNL     1      34.330 -22.288 -17.005  0.00  0.00    +0.021 C 
ATOM      7  C   UNL     1      36.137 -22.263 -15.400  0.00  0.00    +0.050 C 
ATOM      8  C   UNL     1      36.916 -21.524 -16.289  0.00  0.00    +0.016 C 
ATOM      9  C   UNL     1      34.844 -22.645 -15.758  0.00  0.00    +0.016 C 
BRANCH   7  11
ATOM     10  O   UNL     1      37.501 -24.792 -14.498  0.00  0.00    -0.275 OA
ATOM     11  N   UNL     1      36.651 -22.620 -14.154  0.00  0.00    -0.284 N 
ATOM     12  C   UNL     1      37.278 -23.818 -13.786  0.00  0.00    +0.227 C 
ATOM     13  C   UNL     1      37.693 -23.810 -12.336  0.00  0.00    +0.095 C 
ATOM     14  H   UNL     1      36.561 -21.944 -13.442  0.00  0.00    +0.155 HD
ENDBRANCH   7  11
ENDBRANCH   1   4
BRANCH   1  15
ATOM     15  N   UNL     1      35.485 -19.795 -19.928  0.00  0.00    -0.215 N 
ATOM     16  H   UNL     1      36.330 -19.616 -19.455  0.00  0.00    +0.174 HD
BRANCH  15  17
ATOM     17  C   UNL     1      35.067 -18.977 -21.033  0.00  0.00    +0.065 C 
ATOM     18  C   UNL     1      34.302 -19.535 -22.050  0.00  0.00    +0.018 C 
ATOM     19  C   UNL     1      35.433 -17.637 -21.073  0.00  0.00    +0.018 C 
ATOM     20  C   UNL     1      34.259 -17.396 -23.171  0.00  0.00    +0.143 C 
ATOM     21  C   UNL     1      33.896 -18.741 -23.123  0.00  0.00    +0.025 C 
ATOM     22  C   UNL     1      35.028 -16.843 -22.147  0.00  0.00    +0.025 C 
BRANCH  20  25
ATOM     23  O   UNL     1      33.001 -17.043 -25.072  0.00  0.00    -0.126 OA
ATOM     24  O   UNL     1      34.337 -15.439 -24.390  0.00  0.00    -0.126 OA
ATOM     25  N   UNL     1      33.846 -16.587 -24.264  0.00  0.00    +0.058 N 
ENDBRANCH  20  25
ENDBRANCH  15  17
ENDBRANCH   1  15
TORSDOF 5
ENDMDL
MODEL 5
REMARK VINA RESULT:     -11.3      3.228      9.571
REMARK  Name = 5334
REMARK  5 active torsions:
REMARK  status: ('A' for Active; 'I' for Inactive)
REMARK    1  A    between atoms: S_1  and  C_4
REMARK    2  A    between atoms: S_1  and  N_15
REMARK    3  A    between atoms: C_7  and  N_11
REMARK    4  A    between atoms: N_15  and  C_17
REMARK    5  A    between atoms: C_20  and  N_25
REMARK                            x       y       z     vdW  Elec       q    Type
REMARK                         _______ _______ _______ _____ _____    ______ ____
ROOT
ATOM      1  S   UNL     1      32.915 -12.733 -23.480  0.00  0.00    +0.074 S 
ATOM      2  O   UNL     1      32.400 -13.132 -24.784  0.00  0.00    -0.150 OA
ATOM      3  O   UNL     1      33.901 -11.661 -23.412  0.00  0.00    -0.150 OA
ENDROOT
BRANCH   1   4
ATOM      4  C   UNL     1      33.581 -14.153 -22.714  0.00  0.00    +0.125 C 
ATOM      5  C   UNL     1      33.569 -14.267 -21.324  0.00  0.00    +0.021 C 
ATOM      6  C   UNL     1      34.126 -15.174 -23.492  0.00  0.00    +0.021 C 
ATOM      7  C   UNL     1      34.646 -16.424 -21.490  0.00  0.00    +0.050 C 
ATOM      8  C   UNL     1      34.102 -15.403 -20.712  0.00  0.00    +0.016 C 
ATOM      9  C   UNL     1      34.658 -16.310 -22.880  0.00  0.00    +0.016 C 
BRANCH   7  11
ATOM     10  O   UNL     1      33.858 -19.321 -21.724  0.00  0.00    -0.275 OA
ATOM     11  N   UNL     1      35.177 -17.559 -20.878  0.00  0.00    -0.284 N 
ATOM     12  C   UNL     1      34.769 -18.891 -21.022  0.00  0.00    +0.227 C 
ATOM     13  C   UNL     1      35.605 -19.827 -20.184  0.00  0.00    +0.095 C 
ATOM     14  H   UNL     1      35.934 -17.404 -20.267  0.00  0.00    +0.155 HD
ENDBRANCH   7  11
ENDBRANCH   1   4
BRANCH   1  15
ATOM     15  N   UNL     1      31.574 -12.348 -22.470  0.00  0.00    -0.215 N 
ATOM     16  H   UNL     1      30.865 -13.009 -22.296  0.00  0.00    +0.174 HD
BRANCH  15  17
ATOM     17  C   UNL     1      31.519 -11.034 -21.889  0.00  0.00    +0.065 C 
ATOM     18  C   UNL     1      31.312 -10.895 -20.522  0.00  0.00    +0.018 C 
ATOM     19  C   UNL     1      31.674  -9.917 -22.701  0.00  0.00    +0.018 C 
ATOM     20  C   UNL     1      31.414  -8.494 -20.765  0.00  0.00    +0.143 C 
ATOM     21  C   UNL     1      31.260  -9.621 -19.958  0.00  0.00    +0.025 C 
ATOM     22  C   UNL     1      31.620  -8.642 -22.137  0.00  0.00    +0.025 C 
BRANCH  20  25
ATOM     23  O   UNL     1      31.030  -6.225 -20.916  0.00  0.00    -0.126 OA
ATOM     24  O   UNL     1      31.640  -7.055 -18.977  0.00  0.00    -0.126 OA
ATOM     25  N   UNL     1      31.359  -7.196 -20.191  0.00  0.00    +0.058 N 
ENDBRANCH  20  25
ENDBRANCH  15  17
ENDBRANCH   1  15
TORSDOF 5
ENDMDL
MODEL 6
REMARK VINA RESULT:     -10.8      3.285      5.338
REMARK  Name = 5334
REMARK  5 active torsions:
REMARK  status: ('A' for Active; 'I' for Inactive)
REMARK    1  A    between atoms: S_1  and  C_4
REMARK    2  A    between atoms: S_1  and  N_15
REMARK    3  A    between atoms: C_7  and  N_11
REMARK    4  A    between atoms: N_15  and  C_17
REMARK    5  A    between atoms: C_20  and  N_25
REMARK                            x       y       z     vdW  Elec       q    Type
REMARK                         _______ _______ _______ _____ _____    ______ ____
ROOT
ATOM      1  S   UNL     1      33.558 -22.344 -18.518  0.00  0.00    +0.074 S 
ATOM      2  O   UNL     1      34.493 -22.234 -17.405  0.00  0.00    -0.150 OA
ATOM      3  O   UNL     1      33.540 -23.574 -19.302  0.00  0.00    -0.150 OA
ENDROOT
BRANCH   1   4
ATOM      4  C   UNL     1      33.850 -21.001 -19.595  0.00  0.00    +0.125 C 
ATOM      5  C   UNL     1      35.156 -20.586 -19.854  0.00  0.00    +0.021 C 
ATOM      6  C   UNL     1      32.777 -20.344 -20.195  0.00  0.00    +0.021 C 
ATOM      7  C   UNL     1      34.316 -18.855 -21.315  0.00  0.00    +0.050 C 
ATOM      8  C   UNL     1      35.389 -19.513 -20.715  0.00  0.00    +0.016 C 
ATOM      9  C   UNL     1      33.010 -19.270 -21.056  0.00  0.00    +0.016 C 
BRANCH   7  11
ATOM     10  O   UNL     1      34.439 -15.897 -20.765  0.00  0.00    -0.275 OA
ATOM     11  N   UNL     1      34.549 -17.783 -22.176  0.00  0.00    -0.284 N 
ATOM     12  C   UNL     1      34.595 -16.417 -21.866  0.00  0.00    +0.227 C 
ATOM     13  C   UNL     1      34.876 -15.575 -23.085  0.00  0.00    +0.095 C 
ATOM     14  H   UNL     1      34.701 -18.015 -23.121  0.00  0.00    +0.155 HD
ENDBRANCH   7  11
ENDBRANCH   1   4
BRANCH   1  15
ATOM     15  N   UNL     1      31.974 -22.018 -17.922  0.00  0.00    -0.215 N 
ATOM     16  H   UNL     1      31.321 -21.522 -18.466  0.00  0.00    +0.174 HD
BRANCH  15  17
ATOM     17  C   UNL     1      31.635 -22.492 -16.607  0.00  0.00    +0.065 C 
ATOM     18  C   UNL     1      30.308 -22.483 -16.195  0.00  0.00    +0.018 C 
ATOM     19  C   UNL     1      32.638 -22.955 -15.764  0.00  0.00    +0.018 C 
ATOM     20  C   UNL     1      30.978 -23.409 -14.067  0.00  0.00    +0.143 C 
ATOM     21  C   UNL     1      29.978 -22.943 -14.921  0.00  0.00    +0.025 C 
ATOM     22  C   UNL     1      32.308 -23.414 -14.488  0.00  0.00    +0.025 C 
BRANCH  20  25
ATOM     23  O   UNL     1      30.797 -25.093 -12.503  0.00  0.00    -0.126 OA
ATOM     24  O   UNL     1      30.204 -23.060 -11.922  0.00  0.00    -0.126 OA
ATOM     25  N   UNL     1      30.643 -23.876 -12.768  0.00  0.00    +0.058 N 
ENDBRANCH  20  25
ENDBRANCH  15  17
ENDBRANCH   1  15
TORSDOF 5
ENDMDL
MODEL 7
REMARK VINA RESULT:     -10.7      2.430      8.477
REMARK  Name = 5334
REMARK  5 active torsions:
REMARK  status: ('A' for Active; 'I' for Inactive)
REMARK    1  A    between atoms: S_1  and  C_4
REMARK    2  A    between atoms: S_1  and  N_15
REMARK    3  A    between atoms: C_7  and  N_11
REMARK    4  A    between atoms: N_15  and  C_17
REMARK    5  A    between atoms: C_20  and  N_25
REMARK                            x       y       z     vdW  Elec       q    Type
REMARK                         _______ _______ _______ _____ _____    ______ ____
ROOT
ATOM      1  S   UNL     1      33.918 -15.432 -24.190  0.00  0.00    +0.074 S 
ATOM      2  O   UNL     1      32.476 -15.284 -24.348  0.00  0.00    -0.150 OA
ATOM      3  O   UNL     1      34.736 -15.653 -25.376  0.00  0.00    -0.150 OA
ENDROOT
BRANCH   1   4
ATOM      4  C   UNL     1      34.199 -16.740 -23.067  0.00  0.00    +0.125 C 
ATOM      5  C   UNL     1      34.711 -16.473 -21.798  0.00  0.00    +0.021 C 
ATOM      6  C   UNL     1      33.911 -18.052 -23.441  0.00  0.00    +0.021 C 
ATOM      7  C   UNL     1      34.647 -18.830 -21.275  0.00  0.00    +0.050 C 
ATOM      8  C   UNL     1      34.935 -17.518 -20.901  0.00  0.00    +0.016 C 
ATOM      9  C   UNL     1      34.135 -19.098 -22.544  0.00  0.00    +0.016 C 
BRANCH   7  11
ATOM     10  O   UNL     1      32.705 -20.471 -19.661  0.00  0.00    -0.275 OA
ATOM     11  N   UNL     1      34.870 -19.875 -20.378  0.00  0.00    -0.284 N 
ATOM     12  C   UNL     1      33.924 -20.607 -19.648  0.00  0.00    +0.227 C 
ATOM     13  C   UNL     1      34.575 -21.659 -18.785  0.00  0.00    +0.095 C 
ATOM     14  H   UNL     1      35.812 -20.130 -20.240  0.00  0.00    +0.155 HD
ENDBRANCH   7  11
ENDBRANCH   1   4
BRANCH   1  15
ATOM     15  N   UNL     1      34.506 -14.059 -23.331  0.00  0.00    -0.215 N 
ATOM     16  H   UNL     1      35.467 -13.953 -23.144  0.00  0.00    +0.174 HD
BRANCH  15  17
ATOM     17  C   UNL     1      33.554 -13.073 -22.898  0.00  0.00    +0.065 C 
ATOM     18  C   UNL     1      32.828 -13.284 -21.732  0.00  0.00    +0.018 C 
ATOM     19  C   UNL     1      33.370 -11.918 -23.649  0.00  0.00    +0.018 C 
ATOM     20  C   UNL     1      31.714 -11.166 -22.059  0.00  0.00    +0.143 C 
ATOM     21  C   UNL     1      31.905 -12.327 -21.311  0.00  0.00    +0.025 C 
ATOM     22  C   UNL     1      32.446 -10.962 -23.229  0.00  0.00    +0.025 C 
BRANCH  20  25
ATOM     23  O   UNL     1      30.392 -10.200 -20.435  0.00  0.00    -0.126 OA
ATOM     24  O   UNL     1      30.350  -9.350 -22.460  0.00  0.00    -0.126 OA
ATOM     25  N   UNL     1      30.773 -10.192 -21.631  0.00  0.00    +0.058 N 
ENDBRANCH  20  25
ENDBRANCH  15  17
ENDBRANCH   1  15
TORSDOF 5
ENDMDL
MODEL 8
REMARK VINA RESULT:     -10.6      4.261      7.118
REMARK  Name = 5334
REMARK  5 active torsions:
REMARK  status: ('A' for Active; 'I' for Inactive)
REMARK    1  A    between atoms: S_1  and  C_4
REMARK    2  A    between atoms: S_1  and  N_15
REMARK    3  A    between atoms: C_7  and  N_11
REMARK    4  A    between atoms: N_15  and  C_17
REMARK    5  A    between atoms: C_20  and  N_25
REMARK                            x       y       z     vdW  Elec       q    Type
REMARK                         _______ _______ _______ _____ _____    ______ ____
ROOT
ATOM      1  S   UNL     1      35.132 -22.953 -15.485  0.00  0.00    +0.074 S 
ATOM      2  O   UNL     1      36.401 -22.595 -14.863  0.00  0.00    -0.150 OA
ATOM      3  O   UNL     1      34.828 -24.363 -15.698  0.00  0.00    -0.150 OA
ENDROOT
BRANCH   1   4
ATOM      4  C   UNL     1      35.036 -22.123 -17.017  0.00  0.00    +0.125 C 
ATOM      5  C   UNL     1      33.855 -22.156 -17.757  0.00  0.00    +0.021 C 
ATOM      6  C   UNL     1      36.143 -21.427 -17.502  0.00  0.00    +0.021 C 
ATOM      7  C   UNL     1      34.885 -20.795 -19.466  0.00  0.00    +0.050 C 
ATOM      8  C   UNL     1      33.778 -21.492 -18.982  0.00  0.00    +0.016 C 
ATOM      9  C   UNL     1      36.067 -20.763 -18.727  0.00  0.00    +0.016 C 
BRANCH   7  11
ATOM     10  O   UNL     1      36.052 -18.159 -20.337  0.00  0.00    -0.275 OA
ATOM     11  N   UNL     1      34.809 -20.131 -20.690  0.00  0.00    -0.284 N 
ATOM     12  C   UNL     1      35.373 -18.898 -21.043  0.00  0.00    +0.227 C 
ATOM     13  C   UNL     1      35.057 -18.526 -22.471  0.00  0.00    +0.095 C 
ATOM     14  H   UNL     1      34.293 -20.586 -21.395  0.00  0.00    +0.155 HD
ENDBRANCH   7  11
ENDBRANCH   1   4
BRANCH   1  15
ATOM     15  N   UNL     1      33.864 -22.223 -14.575  0.00  0.00    -0.215 N 
ATOM     16  H   UNL     1      34.032 -21.423 -14.025  0.00  0.00    +0.174 HD
BRANCH  15  17
ATOM     17  C   UNL     1      32.555 -22.814 -14.642  0.00  0.00    +0.065 C 
ATOM     18  C   UNL     1      31.667 -22.405 -15.630  0.00  0.00    +0.018 C 
ATOM     19  C   UNL     1      32.192 -23.787 -13.718  0.00  0.00    +0.018 C 
ATOM     20  C   UNL     1      30.025 -23.955 -14.773  0.00  0.00    +0.143 C 
ATOM     21  C   UNL     1      30.398 -22.979 -15.696  0.00  0.00    +0.025 C 
ATOM     22  C   UNL     1      30.922 -24.359 -13.783  0.00  0.00    +0.025 C 
BRANCH  20  25
ATOM     23  O   UNL     1      27.953 -24.187 -15.758  0.00  0.00    -0.126 OA
ATOM     24  O   UNL     1      28.404 -25.390 -13.977  0.00  0.00    -0.126 OA
ATOM     25  N   UNL     1      28.731 -24.539 -14.838  0.00  0.00    +0.058 N 
ENDBRANCH  20  25
ENDBRANCH  15  17
ENDBRANCH   1  15
TORSDOF 5
ENDMDL
MODEL 9
REMARK VINA RESULT:     -10.2      4.333     11.274
REMARK  Name = 5334
REMARK  5 active torsions:
REMARK  status: ('A' for Active; 'I' for Inactive)
REMARK    1  A    between atoms: S_1  and  C_4
REMARK    2  A    between atoms: S_1  and  N_15
REMARK    3  A    between atoms: C_7  and  N_11
REMARK    4  A    between atoms: N_15  and  C_17
REMARK    5  A    between atoms: C_20  and  N_25
REMARK                            x       y       z     vdW  Elec       q    Type
REMARK                         _______ _______ _______ _____ _____    ______ ____
ROOT
ATOM      1  S   UNL     1      31.509 -11.052 -21.441  0.00  0.00    +0.074 S 
ATOM      2  O   UNL     1      31.568 -10.789 -20.008  0.00  0.00    -0.150 OA
ATOM      3  O   UNL     1      30.205 -11.196 -22.076  0.00  0.00    -0.150 OA
ENDROOT
BRANCH   1   4
ATOM      4  C   UNL     1      32.446 -12.491 -21.757  0.00  0.00    +0.125 C 
ATOM      5  C   UNL     1      32.972 -13.229 -20.697  0.00  0.00    +0.021 C 
ATOM      6  C   UNL     1      32.668 -12.903 -23.071  0.00  0.00    +0.021 C 
ATOM      7  C   UNL     1      33.942 -14.791 -22.263  0.00  0.00    +0.050 C 
ATOM      8  C   UNL     1      33.720 -14.379 -20.950  0.00  0.00    +0.016 C 
ATOM      9  C   UNL     1      33.416 -14.053 -23.324  0.00  0.00    +0.016 C 
BRANCH   7  11
ATOM     10  O   UNL     1      34.958 -16.914 -20.385  0.00  0.00    -0.275 OA
ATOM     11  N   UNL     1      34.689 -15.941 -22.516  0.00  0.00    -0.284 N 
ATOM     12  C   UNL     1      35.139 -16.900 -21.599  0.00  0.00    +0.227 C 
ATOM     13  C   UNL     1      35.920 -17.999 -22.276  0.00  0.00    +0.095 C 
ATOM     14  H   UNL     1      34.931 -16.099 -23.458  0.00  0.00    +0.155 HD
ENDBRANCH   7  11
ENDBRANCH   1   4
BRANCH   1  15
ATOM     15  N   UNL     1      32.410  -9.825 -22.248  0.00  0.00    -0.215 N 
ATOM     16  H   UNL     1      33.305 -10.012 -22.614  0.00  0.00    +0.174 HD
BRANCH  15  17
ATOM     17  C   UNL     1      31.818  -8.521 -22.372  0.00  0.00    +0.065 C 
ATOM     18  C   UNL     1      31.802  -7.667 -21.275  0.00  0.00    +0.018 C 
ATOM     19  C   UNL     1      31.268  -8.128 -23.586  0.00  0.00    +0.018 C 
ATOM     20  C   UNL     1      30.673  -5.999 -22.610  0.00  0.00    +0.143 C 
ATOM     21  C   UNL     1      31.228  -6.401 -21.395  0.00  0.00    +0.025 C 
ATOM     22  C   UNL     1      30.692  -6.862 -23.705  0.00  0.00    +0.025 C 
BRANCH  20  25
ATOM     23  O   UNL     1      30.111  -4.136 -23.848  0.00  0.00    -0.126 OA
ATOM     24  O   UNL     1      29.562  -4.183 -21.722  0.00  0.00    -0.126 OA
ATOM     25  N   UNL     1      30.087  -4.711 -22.732  0.00  0.00    +0.058 N 
ENDBRANCH  20  25
ENDBRANCH  15  17
ENDBRANCH   1  15
TORSDOF 5
ENDMDL
