MODEL 1
REMARK VINA RESULT:     -11.5      0.000      0.000
REMARK  Name = 3058754
REMARK  6 active torsions:
REMARK  status: ('A' for Active; 'I' for Inactive)
REMARK    1  A    between atoms: N_1  and  C_15
REMARK    2  A    between atoms: C_3  and  C_7
REMARK    3  A    between atoms: C_5  and  C_29
REMARK    4  A    between atoms: C_12  and  O_13
REMARK    5  A    between atoms: C_18  and  S_21
REMARK    6  A    between atoms: S_21  and  N_24
REMARK                            x       y       z     vdW  Elec       q    Type
REMARK                         _______ _______ _______ _____ _____    ______ ____
ROOT
ATOM      1  N   UNL     1      33.734 -23.913 -14.416  0.00  0.00    -0.190 N 
ATOM      2  N   UNL     1      32.920 -24.369 -13.449  0.00  0.00    -0.173 NA
ATOM      3  C   UNL     1      33.092 -23.208 -15.393  0.00  0.00    +0.075 C 
ATOM      4  C   UNL     1      31.764 -23.204 -15.036  0.00  0.00    +0.039 C 
ATOM      5  C   UNL     1      31.718 -23.932 -13.833  0.00  0.00    +0.144 C 
ENDROOT
BRANCH   3   7
ATOM      6  F   UNL     1      36.868 -20.967 -17.387  0.00  0.00    -0.201 F 
ATOM      7  C   UNL     1      33.740 -22.616 -16.537  0.00  0.00    +0.018 C 
ATOM      8  C   UNL     1      35.015 -22.066 -16.410  0.00  0.00    +0.034 C 
ATOM      9  C   UNL     1      33.092 -22.594 -17.772  0.00  0.00    +0.005 C 
ATOM     10  C   UNL     1      35.641 -21.493 -17.517  0.00  0.00    +0.174 C 
ATOM     11  C   UNL     1      33.718 -22.022 -18.880  0.00  0.00    +0.039 C 
ATOM     12  C   UNL     1      34.994 -21.472 -18.752  0.00  0.00    +0.166 C 
BRANCH  12  13
ATOM     13  O   UNL     1      35.605 -20.916 -19.832  0.00  0.00    -0.469 OA
ATOM     14  C   UNL     1      34.905 -19.873 -20.510  0.00  0.00    +0.253 C 
ENDBRANCH  12  13
ENDBRANCH   3   7
BRANCH   1  15
ATOM     15  C   UNL     1      35.101 -24.186 -14.347  0.00  0.00    +0.074 C 
ATOM     16  C   UNL     1      35.597 -25.349 -14.922  0.00  0.00    +0.018 C 
ATOM     17  C   UNL     1      35.947 -23.290 -13.706  0.00  0.00    +0.018 C 
ATOM     18  C   UNL     1      37.821 -24.728 -14.211  0.00  0.00    +0.122 C 
ATOM     19  C   UNL     1      36.963 -25.622 -14.853  0.00  0.00    +0.021 C 
ATOM     20  C   UNL     1      37.313 -23.563 -13.638  0.00  0.00    +0.021 C 
BRANCH  18  21
ATOM     21  S   UNL     1      39.531 -25.068 -14.127  0.00  0.00    +0.057 S 
ATOM     22  O   UNL     1      40.230 -23.833 -13.802  0.00  0.00    -0.153 OA
ATOM     23  O   UNL     1      39.727 -26.250 -13.298  0.00  0.00    -0.153 OA
BRANCH  21  24
ATOM     24  N   UNL     1      39.862 -25.479 -15.752  0.00  0.00    -0.203 NA
ATOM     25  H   UNL     1      39.045 -25.929 -16.163  0.00  0.00    +0.144 HD
ATOM     26  H   UNL     1      40.656 -26.119 -15.786  0.00  0.00    +0.144 HD
ENDBRANCH  21  24
ENDBRANCH  18  21
ENDBRANCH   1  15
BRANCH   5  29
ATOM     27  F   UNL     1      29.445 -24.518 -13.787  0.00  0.00    -0.191 F 
ATOM     28  F   UNL     1      30.171 -23.168 -12.241  0.00  0.00    -0.191 F 
ATOM     29  C   UNL     1      30.533 -24.235 -13.012  0.00  0.00    +0.360 C 
ENDBRANCH   5  29
TORSDOF 6
ENDMDL
MODEL 2
REMARK VINA RESULT:     -11.2      0.912      1.600
REMARK  Name = 3058754
REMARK  6 active torsions:
REMARK  status: ('A' for Active; 'I' for Inactive)
REMARK    1  A    between atoms: N_1  and  C_15
REMARK    2  A    between atoms: C_3  and  C_7
REMARK    3  A    between atoms: C_5  and  C_29
REMARK    4  A    between atoms: C_12  and  O_13
REMARK    5  A    between atoms: C_18  and  S_21
REMARK    6  A    between atoms: S_21  and  N_24
REMARK                            x       y       z     vdW  Elec       q    Type
REMARK                         _______ _______ _______ _____ _____    ______ ____
ROOT
ATOM      1  N   UNL     1      33.826 -23.877 -14.349  0.00  0.00    -0.190 N 
ATOM      2  N   UNL     1      33.022 -24.314 -13.365  0.00  0.00    -0.173 NA
ATOM      3  C   UNL     1      33.176 -23.176 -15.324  0.00  0.00    +0.075 C 
ATOM      4  C   UNL     1      31.853 -23.156 -14.948  0.00  0.00    +0.039 C 
ATOM      5  C   UNL     1      31.818 -23.871 -13.736  0.00  0.00    +0.144 C 
ENDROOT
BRANCH   3   7
ATOM      6  F   UNL     1      33.085 -21.945 -19.986  0.00  0.00    -0.201 F 
ATOM      7  C   UNL     1      33.813 -22.603 -16.485  0.00  0.00    +0.018 C 
ATOM      8  C   UNL     1      33.130 -22.549 -17.700  0.00  0.00    +0.034 C 
ATOM      9  C   UNL     1      35.112 -22.103 -16.392  0.00  0.00    +0.005 C 
ATOM     10  C   UNL     1      33.747 -21.995 -18.821  0.00  0.00    +0.174 C 
ATOM     11  C   UNL     1      35.728 -21.548 -17.513  0.00  0.00    +0.039 C 
ATOM     12  C   UNL     1      35.045 -21.493 -18.729  0.00  0.00    +0.166 C 
BRANCH  12  13
ATOM     13  O   UNL     1      35.646 -20.951 -19.821  0.00  0.00    -0.469 OA
ATOM     14  C   UNL     1      35.099 -19.734 -20.328  0.00  0.00    +0.253 C 
ENDBRANCH  12  13
ENDBRANCH   3   7
BRANCH   1  15
ATOM     15  C   UNL     1      35.192 -24.161 -14.297  0.00  0.00    +0.074 C 
ATOM     16  C   UNL     1      36.047 -23.287 -13.638  0.00  0.00    +0.018 C 
ATOM     17  C   UNL     1      35.676 -25.312 -14.903  0.00  0.00    +0.018 C 
ATOM     18  C   UNL     1      37.909 -24.725 -14.191  0.00  0.00    +0.122 C 
ATOM     19  C   UNL     1      37.412 -23.570 -13.586  0.00  0.00    +0.021 C 
ATOM     20  C   UNL     1      37.041 -25.595 -14.849  0.00  0.00    +0.021 C 
BRANCH  18  21
ATOM     21  S   UNL     1      39.617 -25.079 -14.124  0.00  0.00    +0.057 S 
ATOM     22  O   UNL     1      40.329 -23.848 -13.813  0.00  0.00    -0.153 OA
ATOM     23  O   UNL     1      39.812 -26.258 -13.291  0.00  0.00    -0.153 OA
BRANCH  21  24
ATOM     24  N   UNL     1      39.926 -25.501 -15.750  0.00  0.00    -0.203 NA
ATOM     25  H   UNL     1      39.307 -26.261 -16.029  0.00  0.00    +0.144 HD
ATOM     26  H   UNL     1      40.897 -25.801 -15.844  0.00  0.00    +0.144 HD
ENDBRANCH  21  24
ENDBRANCH  18  21
ENDBRANCH   1  15
BRANCH   5  29
ATOM     27  F   UNL     1      29.610 -24.661 -13.630  0.00  0.00    -0.191 F 
ATOM     28  F   UNL     1      30.160 -23.017 -12.312  0.00  0.00    -0.191 F 
ATOM     29  C   UNL     1      30.643 -24.153 -12.895  0.00  0.00    +0.360 C 
ENDBRANCH   5  29
TORSDOF 6
ENDMDL
MODEL 3
REMARK VINA RESULT:     -10.2      3.018      5.840
REMARK  Name = 3058754
REMARK  6 active torsions:
REMARK  status: ('A' for Active; 'I' for Inactive)
REMARK    1  A    between atoms: N_1  and  C_15
REMARK    2  A    between atoms: C_3  and  C_7
REMARK    3  A    between atoms: C_5  and  C_29
REMARK    4  A    between atoms: C_12  and  O_13
REMARK    5  A    between atoms: C_18  and  S_21
REMARK    6  A    between atoms: S_21  and  N_24
REMARK                            x       y       z     vdW  Elec       q    Type
REMARK                         _______ _______ _______ _____ _____    ______ ____
ROOT
ATOM      1  N   UNL     1      34.691 -22.498 -16.583  0.00  0.00    -0.190 N 
ATOM      2  N   UNL     1      35.607 -22.049 -17.459  0.00  0.00    -0.173 NA
ATOM      3  C   UNL     1      33.402 -22.354 -17.007  0.00  0.00    +0.075 C 
ATOM      4  C   UNL     1      33.483 -21.769 -18.249  0.00  0.00    +0.039 C 
ATOM      5  C   UNL     1      34.863 -21.605 -18.475  0.00  0.00    +0.144 C 
ENDROOT
BRANCH   3   7
ATOM      6  F   UNL     1      28.618 -22.481 -16.410  0.00  0.00    -0.201 F 
ATOM      7  C   UNL     1      32.241 -22.756 -16.252  0.00  0.00    +0.018 C 
ATOM      8  C   UNL     1      30.964 -22.419 -16.702  0.00  0.00    +0.034 C 
ATOM      9  C   UNL     1      32.394 -23.483 -15.071  0.00  0.00    +0.005 C 
ATOM     10  C   UNL     1      29.842 -22.808 -15.971  0.00  0.00    +0.174 C 
ATOM     11  C   UNL     1      31.271 -23.873 -14.341  0.00  0.00    +0.039 C 
ATOM     12  C   UNL     1      29.995 -23.535 -14.792  0.00  0.00    +0.166 C 
BRANCH  12  13
ATOM     13  O   UNL     1      28.901 -23.917 -14.079  0.00  0.00    -0.469 OA
ATOM     14  C   UNL     1      28.530 -25.294 -14.145  0.00  0.00    +0.253 C 
ENDBRANCH  12  13
ENDBRANCH   3   7
BRANCH   1  15
ATOM     15  C   UNL     1      35.113 -23.047 -15.371  0.00  0.00    +0.074 C 
ATOM     16  C   UNL     1      35.312 -22.216 -14.276  0.00  0.00    +0.018 C 
ATOM     17  C   UNL     1      35.327 -24.415 -15.276  0.00  0.00    +0.018 C 
ATOM     18  C   UNL     1      35.951 -24.138 -12.958  0.00  0.00    +0.122 C 
ATOM     19  C   UNL     1      35.734 -22.764 -13.064  0.00  0.00    +0.021 C 
ATOM     20  C   UNL     1      35.748 -24.963 -14.064  0.00  0.00    +0.021 C 
BRANCH  18  21
ATOM     21  S   UNL     1      36.477 -24.824 -11.442  0.00  0.00    +0.057 S 
ATOM     22  O   UNL     1      36.719 -26.246 -11.640  0.00  0.00    -0.153 OA
ATOM     23  O   UNL     1      37.530 -23.980 -10.893  0.00  0.00    -0.153 OA
BRANCH  21  24
ATOM     24  N   UNL     1      35.070 -24.631 -10.492  0.00  0.00    -0.203 NA
ATOM     25  H   UNL     1      35.330 -24.301  -9.562  0.00  0.00    +0.144 HD
ATOM     26  H   UNL     1      34.588 -25.526 -10.412  0.00  0.00    +0.144 HD
ENDBRANCH  21  24
ENDBRANCH  18  21
ENDBRANCH   1  15
BRANCH   5  29
ATOM     27  F   UNL     1      36.364 -20.010 -19.319  0.00  0.00    -0.191 F 
ATOM     28  F   UNL     1      34.603 -20.472 -20.514  0.00  0.00    -0.191 F 
ATOM     29  C   UNL     1      35.515 -21.024 -19.660  0.00  0.00    +0.360 C 
ENDBRANCH   5  29
TORSDOF 6
ENDMDL
MODEL 4
REMARK VINA RESULT:     -10.1      4.305      6.260
REMARK  Name = 3058754
REMARK  6 active torsions:
REMARK  status: ('A' for Active; 'I' for Inactive)
REMARK    1  A    between atoms: N_1  and  C_15
REMARK    2  A    between atoms: C_3  and  C_7
REMARK    3  A    between atoms: C_5  and  C_29
REMARK    4  A    between atoms: C_12  and  O_13
REMARK    5  A    between atoms: C_18  and  S_21
REMARK    6  A    between atoms: S_21  and  N_24
REMARK                            x       y       z     vdW  Elec       q    Type
REMARK                         _______ _______ _______ _____ _____    ______ ____
ROOT
ATOM      1  N   UNL     1      33.169 -23.501 -13.676  0.00  0.00    -0.190 N 
ATOM      2  N   UNL     1      33.340 -23.952 -12.422  0.00  0.00    -0.173 NA
ATOM      3  C   UNL     1      34.334 -23.198 -14.319  0.00  0.00    +0.075 C 
ATOM      4  C   UNL     1      35.337 -23.471 -13.419  0.00  0.00    +0.039 C 
ATOM      5  C   UNL     1      34.666 -23.933 -12.270  0.00  0.00    +0.144 C 
ENDROOT
BRANCH   3   7
ATOM      6  F   UNL     1      36.719 -20.828 -17.776  0.00  0.00    -0.201 F 
ATOM      7  C   UNL     1      34.419 -22.697 -15.669  0.00  0.00    +0.018 C 
ATOM      8  C   UNL     1      35.549 -21.990 -16.081  0.00  0.00    +0.034 C 
ATOM      9  C   UNL     1      33.371 -22.920 -16.563  0.00  0.00    +0.005 C 
ATOM     10  C   UNL     1      35.630 -21.506 -17.386  0.00  0.00    +0.174 C 
ATOM     11  C   UNL     1      33.453 -22.436 -17.869  0.00  0.00    +0.039 C 
ATOM     12  C   UNL     1      34.584 -21.729 -18.281  0.00  0.00    +0.166 C 
BRANCH  12  13
ATOM     13  O   UNL     1      34.663 -21.259 -19.554  0.00  0.00    -0.469 OA
ATOM     14  C   UNL     1      33.622 -20.386 -19.991  0.00  0.00    +0.253 C 
ENDBRANCH  12  13
ENDBRANCH   3   7
BRANCH   1  15
ATOM     15  C   UNL     1      31.877 -23.385 -14.193  0.00  0.00    +0.074 C 
ATOM     16  C   UNL     1      31.209 -24.523 -14.627  0.00  0.00    +0.018 C 
ATOM     17  C   UNL     1      31.278 -22.135 -14.266  0.00  0.00    +0.018 C 
ATOM     18  C   UNL     1      29.308 -23.155 -15.221  0.00  0.00    +0.122 C 
ATOM     19  C   UNL     1      29.919 -24.408 -15.144  0.00  0.00    +0.021 C 
ATOM     20  C   UNL     1      29.987 -22.020 -14.782  0.00  0.00    +0.021 C 
BRANCH  18  21
ATOM     21  S   UNL     1      27.692 -23.012 -15.867  0.00  0.00    +0.057 S 
ATOM     22  O   UNL     1      27.444 -24.149 -16.742  0.00  0.00    -0.153 OA
ATOM     23  O   UNL     1      26.778 -22.731 -14.768  0.00  0.00    -0.153 OA
BRANCH  21  24
ATOM     24  N   UNL     1      27.847 -21.604 -16.822  0.00  0.00    -0.203 NA
ATOM     25  H   UNL     1      27.057 -20.984 -16.647  0.00  0.00    +0.144 HD
ATOM     26  H   UNL     1      27.863 -21.863 -17.809  0.00  0.00    +0.144 HD
ENDBRANCH  21  24
ENDBRANCH  18  21
ENDBRANCH   1  15
BRANCH   5  29
ATOM     27  F   UNL     1      34.914 -23.539  -9.969  0.00  0.00    -0.191 F 
ATOM     28  F   UNL     1      36.628 -24.338 -11.047  0.00  0.00    -0.191 F 
ATOM     29  C   UNL     1      35.264 -24.367 -10.996  0.00  0.00    +0.360 C 
ENDBRANCH   5  29
TORSDOF 6
ENDMDL
MODEL 5
REMARK VINA RESULT:      -9.5      2.605      5.415
REMARK  Name = 3058754
REMARK  6 active torsions:
REMARK  status: ('A' for Active; 'I' for Inactive)
REMARK    1  A    between atoms: N_1  and  C_15
REMARK    2  A    between atoms: C_3  and  C_7
REMARK    3  A    between atoms: C_5  and  C_29
REMARK    4  A    between atoms: C_12  and  O_13
REMARK    5  A    between atoms: C_18  and  S_21
REMARK    6  A    between atoms: S_21  and  N_24
REMARK                            x       y       z     vdW  Elec       q    Type
REMARK                         _______ _______ _______ _____ _____    ______ ____
ROOT
ATOM      1  N   UNL     1      32.873 -23.469 -15.061  0.00  0.00    -0.190 N 
ATOM      2  N   UNL     1      31.534 -23.556 -14.985  0.00  0.00    -0.173 NA
ATOM      3  C   UNL     1      33.526 -24.064 -14.020  0.00  0.00    +0.075 C 
ATOM      4  C   UNL     1      32.542 -24.575 -13.207  0.00  0.00    +0.039 C 
ATOM      5  C   UNL     1      31.337 -24.233 -13.851  0.00  0.00    +0.144 C 
ENDROOT
BRANCH   3   7
ATOM      6  F   UNL     1      37.586 -22.455 -11.974  0.00  0.00    -0.201 F 
ATOM      7  C   UNL     1      34.960 -24.108 -13.870  0.00  0.00    +0.018 C 
ATOM      8  C   UNL     1      35.595 -23.245 -12.978  0.00  0.00    +0.034 C 
ATOM      9  C   UNL     1      35.712 -25.015 -14.618  0.00  0.00    +0.005 C 
ATOM     10  C   UNL     1      36.982 -23.287 -12.834  0.00  0.00    +0.174 C 
ATOM     11  C   UNL     1      37.099 -25.059 -14.473  0.00  0.00    +0.039 C 
ATOM     12  C   UNL     1      37.734 -24.194 -13.580  0.00  0.00    +0.166 C 
BRANCH  12  13
ATOM     13  O   UNL     1      39.086 -24.238 -13.438  0.00  0.00    -0.469 OA
ATOM     14  C   UNL     1      39.836 -24.783 -14.523  0.00  0.00    +0.253 C 
ENDBRANCH  12  13
ENDBRANCH   3   7
BRANCH   1  15
ATOM     15  C   UNL     1      33.457 -22.811 -16.144  0.00  0.00    +0.074 C 
ATOM     16  C   UNL     1      32.742 -22.673 -17.327  0.00  0.00    +0.018 C 
ATOM     17  C   UNL     1      34.743 -22.302 -16.025  0.00  0.00    +0.018 C 
ATOM     18  C   UNL     1      34.618 -21.500 -18.300  0.00  0.00    +0.122 C 
ATOM     19  C   UNL     1      33.326 -22.015 -18.411  0.00  0.00    +0.021 C 
ATOM     20  C   UNL     1      35.325 -21.643 -17.107  0.00  0.00    +0.021 C 
BRANCH  18  21
ATOM     21  S   UNL     1      35.347 -20.675 -19.655  0.00  0.00    +0.057 S 
ATOM     22  O   UNL     1      36.353 -19.754 -19.145  0.00  0.00    -0.153 OA
ATOM     23  O   UNL     1      35.714 -21.666 -20.657  0.00  0.00    -0.153 OA
BRANCH  21  24
ATOM     24  N   UNL     1      34.019 -19.772 -20.239  0.00  0.00    -0.203 NA
ATOM     25  H   UNL     1      34.094 -18.808 -19.917  0.00  0.00    +0.144 HD
ATOM     26  H   UNL     1      33.151 -20.180 -19.891  0.00  0.00    +0.144 HD
ENDBRANCH  21  24
ENDBRANCH  18  21
ENDBRANCH   1  15
BRANCH   5  29
ATOM     27  F   UNL     1      29.036 -23.938 -14.208  0.00  0.00    -0.191 F 
ATOM     28  F   UNL     1      29.730 -24.068 -12.149  0.00  0.00    -0.191 F 
ATOM     29  C   UNL     1      29.966 -24.538 -13.409  0.00  0.00    +0.360 C 
ENDBRANCH   5  29
TORSDOF 6
ENDMDL
MODEL 6
REMARK VINA RESULT:      -9.3      3.770      6.193
REMARK  Name = 3058754
REMARK  6 active torsions:
REMARK  status: ('A' for Active; 'I' for Inactive)
REMARK    1  A    between atoms: N_1  and  C_15
REMARK    2  A    between atoms: C_3  and  C_7
REMARK    3  A    between atoms: C_5  and  C_29
REMARK    4  A    between atoms: C_12  and  O_13
REMARK    5  A    between atoms: C_18  and  S_21
REMARK    6  A    between atoms: S_21  and  N_24
REMARK                            x       y       z     vdW  Elec       q    Type
REMARK                         _______ _______ _______ _____ _____    ______ ____
ROOT
ATOM      1  N   UNL     1      34.580 -23.217 -13.816  0.00  0.00    -0.190 N 
ATOM      2  N   UNL     1      35.725 -23.340 -13.122  0.00  0.00    -0.173 NA
ATOM      3  C   UNL     1      33.466 -23.576 -13.114  0.00  0.00    +0.075 C 
ATOM      4  C   UNL     1      33.918 -23.962 -11.873  0.00  0.00    +0.039 C 
ATOM      5  C   UNL     1      35.314 -23.795 -11.936  0.00  0.00    +0.144 C 
ENDROOT
BRANCH   3   7
ATOM      6  F   UNL     1      29.452 -25.823 -14.560  0.00  0.00    -0.201 F 
ATOM      7  C   UNL     1      32.121 -23.535 -13.633  0.00  0.00    +0.018 C 
ATOM      8  C   UNL     1      31.421 -24.721 -13.851  0.00  0.00    +0.034 C 
ATOM      9  C   UNL     1      31.521 -22.308 -13.916  0.00  0.00    +0.005 C 
ATOM     10  C   UNL     1      30.120 -24.680 -14.353  0.00  0.00    +0.174 C 
ATOM     11  C   UNL     1      30.219 -22.267 -14.417  0.00  0.00    +0.039 C 
ATOM     12  C   UNL     1      29.519 -23.454 -14.635  0.00  0.00    +0.166 C 
BRANCH  12  13
ATOM     13  O   UNL     1      28.250 -23.412 -15.123  0.00  0.00    -0.469 OA
ATOM     14  C   UNL     1      27.758 -22.142 -15.549  0.00  0.00    +0.253 C 
ENDBRANCH  12  13
ENDBRANCH   3   7
BRANCH   1  15
ATOM     15  C   UNL     1      34.622 -22.754 -15.132  0.00  0.00    +0.074 C 
ATOM     16  C   UNL     1      33.553 -23.011 -15.982  0.00  0.00    +0.018 C 
ATOM     17  C   UNL     1      35.729 -22.043 -15.574  0.00  0.00    +0.018 C 
ATOM     18  C   UNL     1      34.703 -21.834 -17.751  0.00  0.00    +0.122 C 
ATOM     19  C   UNL     1      33.594 -22.550 -17.297  0.00  0.00    +0.021 C 
ATOM     20  C   UNL     1      35.770 -21.581 -16.889  0.00  0.00    +0.021 C 
BRANCH  18  21
ATOM     21  S   UNL     1      34.753 -21.255 -19.397  0.00  0.00    +0.057 S 
ATOM     22  O   UNL     1      35.718 -20.166 -19.472  0.00  0.00    -0.153 OA
ATOM     23  O   UNL     1      34.884 -22.400 -20.287  0.00  0.00    -0.153 OA
BRANCH  21  24
ATOM     24  N   UNL     1      33.180 -20.610 -19.564  0.00  0.00    -0.203 NA
ATOM     25  H   UNL     1      33.224 -19.592 -19.528  0.00  0.00    +0.144 HD
ATOM     26  H   UNL     1      32.591 -20.951 -18.804  0.00  0.00    +0.144 HD
ENDBRANCH  21  24
ENDBRANCH  18  21
ENDBRANCH   1  15
BRANCH   5  29
ATOM     27  F   UNL     1      35.979 -23.410  -9.718  0.00  0.00    -0.191 F 
ATOM     28  F   UNL     1      37.542 -23.617 -11.220  0.00  0.00    -0.191 F 
ATOM     29  C   UNL     1      36.299 -24.063 -10.874  0.00  0.00    +0.360 C 
ENDBRANCH   5  29
TORSDOF 6
ENDMDL
MODEL 7
REMARK VINA RESULT:      -9.1      4.544      6.318
REMARK  Name = 3058754
REMARK  6 active torsions:
REMARK  status: ('A' for Active; 'I' for Inactive)
REMARK    1  A    between atoms: N_1  and  C_15
REMARK    2  A    between atoms: C_3  and  C_7
REMARK    3  A    between atoms: C_5  and  C_29
REMARK    4  A    between atoms: C_12  and  O_13
REMARK    5  A    between atoms: C_18  and  S_21
REMARK    6  A    between atoms: S_21  and  N_24
REMARK                            x       y       z     vdW  Elec       q    Type
REMARK                         _______ _______ _______ _____ _____    ______ ____
ROOT
ATOM      1  N   UNL     1      34.602 -22.889 -15.161  0.00  0.00    -0.190 N 
ATOM      2  N   UNL     1      35.138 -23.447 -14.062  0.00  0.00    -0.173 NA
ATOM      3  C   UNL     1      35.524 -22.459 -16.070  0.00  0.00    +0.075 C 
ATOM      4  C   UNL     1      36.751 -22.758 -15.525  0.00  0.00    +0.039 C 
ATOM      5  C   UNL     1      36.451 -23.365 -14.290  0.00  0.00    +0.144 C 
ENDROOT
BRANCH   3   7
ATOM      6  F   UNL     1      32.372 -21.437 -19.574  0.00  0.00    -0.201 F 
ATOM      7  C   UNL     1      35.204 -21.826 -17.326  0.00  0.00    +0.018 C 
ATOM      8  C   UNL     1      33.919 -21.938 -17.856  0.00  0.00    +0.034 C 
ATOM      9  C   UNL     1      36.180 -21.103 -18.012  0.00  0.00    +0.005 C 
ATOM     10  C   UNL     1      33.610 -21.327 -19.071  0.00  0.00    +0.174 C 
ATOM     11  C   UNL     1      35.871 -20.490 -19.226  0.00  0.00    +0.039 C 
ATOM     12  C   UNL     1      34.585 -20.602 -19.756  0.00  0.00    +0.166 C 
BRANCH  12  13
ATOM     13  O   UNL     1      34.284 -20.004 -20.940  0.00  0.00    -0.469 OA
ATOM     14  C   UNL     1      34.884 -18.735 -21.198  0.00  0.00    +0.253 C 
ENDBRANCH  12  13
ENDBRANCH   3   7
BRANCH   1  15
ATOM     15  C   UNL     1      33.213 -22.798 -15.276  0.00  0.00    +0.074 C 
ATOM     16  C   UNL     1      32.484 -22.167 -14.276  0.00  0.00    +0.018 C 
ATOM     17  C   UNL     1      32.581 -23.340 -16.387  0.00  0.00    +0.018 C 
ATOM     18  C   UNL     1      30.451 -22.617 -15.504  0.00  0.00    +0.122 C 
ATOM     19  C   UNL     1      31.096 -22.077 -14.390  0.00  0.00    +0.021 C 
ATOM     20  C   UNL     1      31.194 -23.248 -16.501  0.00  0.00    +0.021 C 
BRANCH  18  21
ATOM     21  S   UNL     1      28.715 -22.502 -15.648  0.00  0.00    +0.057 S 
ATOM     22  O   UNL     1      28.238 -21.523 -14.681  0.00  0.00    -0.153 OA
ATOM     23  O   UNL     1      28.377 -22.353 -17.056  0.00  0.00    -0.153 OA
BRANCH  21  24
ATOM     24  N   UNL     1      28.242 -24.061 -15.133  0.00  0.00    -0.203 NA
ATOM     25  H   UNL     1      27.518 -23.979 -14.420  0.00  0.00    +0.144 HD
ATOM     26  H   UNL     1      29.049 -24.550 -14.743  0.00  0.00    +0.144 HD
ENDBRANCH  21  24
ENDBRANCH  18  21
ENDBRANCH   1  15
BRANCH   5  29
ATOM     27  F   UNL     1      38.567 -24.294 -13.874  0.00  0.00    -0.191 F 
ATOM     28  F   UNL     1      36.903 -24.981 -12.649  0.00  0.00    -0.191 F 
ATOM     29  C   UNL     1      37.401 -23.884 -13.292  0.00  0.00    +0.360 C 
ENDBRANCH   5  29
TORSDOF 6
ENDMDL
MODEL 8
REMARK VINA RESULT:      -9.1      4.195      6.222
REMARK  Name = 3058754
REMARK  6 active torsions:
REMARK  status: ('A' for Active; 'I' for Inactive)
REMARK    1  A    between atoms: N_1  and  C_15
REMARK    2  A    between atoms: C_3  and  C_7
REMARK    3  A    between atoms: C_5  and  C_29
REMARK    4  A    between atoms: C_12  and  O_13
REMARK    5  A    between atoms: C_18  and  S_21
REMARK    6  A    between atoms: S_21  and  N_24
REMARK                            x       y       z     vdW  Elec       q    Type
REMARK                         _______ _______ _______ _____ _____    ______ ____
ROOT
ATOM      1  N   UNL     1      33.654 -23.241 -13.713  0.00  0.00    -0.190 N 
ATOM      2  N   UNL     1      33.859 -23.652 -12.450  0.00  0.00    -0.173 NA
ATOM      3  C   UNL     1      34.802 -22.950 -14.393  0.00  0.00    +0.075 C 
ATOM      4  C   UNL     1      35.828 -23.189 -13.509  0.00  0.00    +0.039 C 
ATOM      5  C   UNL     1      35.188 -23.619 -12.331  0.00  0.00    +0.144 C 
ENDROOT
BRANCH   3   7
ATOM      6  F   UNL     1      32.720 -22.364 -18.703  0.00  0.00    -0.201 F 
ATOM      7  C   UNL     1      34.851 -22.491 -15.759  0.00  0.00    +0.018 C 
ATOM      8  C   UNL     1      33.742 -22.652 -16.590  0.00  0.00    +0.034 C 
ATOM      9  C   UNL     1      36.008 -21.885 -16.250  0.00  0.00    +0.005 C 
ATOM     10  C   UNL     1      33.790 -22.207 -17.911  0.00  0.00    +0.174 C 
ATOM     11  C   UNL     1      36.056 -21.439 -17.571  0.00  0.00    +0.039 C 
ATOM     12  C   UNL     1      34.946 -21.600 -18.402  0.00  0.00    +0.166 C 
BRANCH  12  13
ATOM     13  O   UNL     1      34.993 -21.165 -19.689  0.00  0.00    -0.469 OA
ATOM     14  C   UNL     1      35.785 -20.008 -19.955  0.00  0.00    +0.253 C 
ENDBRANCH  12  13
ENDBRANCH   3   7
BRANCH   1  15
ATOM     15  C   UNL     1      32.350 -23.149 -14.202  0.00  0.00    +0.074 C 
ATOM     16  C   UNL     1      31.750 -24.269 -14.763  0.00  0.00    +0.018 C 
ATOM     17  C   UNL     1      31.671 -21.941 -14.120  0.00  0.00    +0.018 C 
ATOM     18  C   UNL     1      29.755 -22.968 -15.174  0.00  0.00    +0.122 C 
ATOM     19  C   UNL     1      30.447 -24.178 -15.252  0.00  0.00    +0.021 C 
ATOM     20  C   UNL     1      30.367 -21.851 -14.608  0.00  0.00    +0.021 C 
BRANCH  18  21
ATOM     21  S   UNL     1      28.124 -22.855 -15.784  0.00  0.00    +0.057 S 
ATOM     22  O   UNL     1      27.484 -21.698 -15.174  0.00  0.00    -0.153 OA
ATOM     23  O   UNL     1      28.163 -22.979 -17.235  0.00  0.00    -0.153 OA
BRANCH  21  24
ATOM     24  N   UNL     1      27.432 -24.275 -15.132  0.00  0.00    -0.203 NA
ATOM     25  H   UNL     1      28.173 -24.892 -14.799  0.00  0.00    +0.144 HD
ATOM     26  H   UNL     1      26.891 -24.752 -15.853  0.00  0.00    +0.144 HD
ENDBRANCH  21  24
ENDBRANCH  18  21
ENDBRANCH   1  15
BRANCH   5  29
ATOM     27  F   UNL     1      36.805 -24.935 -11.251  0.00  0.00    -0.191 F 
ATOM     28  F   UNL     1      34.921 -24.596 -10.214  0.00  0.00    -0.191 F 
ATOM     29  C   UNL     1      35.819 -24.010 -11.059  0.00  0.00    +0.360 C 
ENDBRANCH   5  29
TORSDOF 6
ENDMDL
MODEL 9
REMARK VINA RESULT:      -9.0      3.969      7.278
REMARK  Name = 3058754
REMARK  6 active torsions:
REMARK  status: ('A' for Active; 'I' for Inactive)
REMARK    1  A    between atoms: N_1  and  C_15
REMARK    2  A    between atoms: C_3  and  C_7
REMARK    3  A    between atoms: C_5  and  C_29
REMARK    4  A    between atoms: C_12  and  O_13
REMARK    5  A    between atoms: C_18  and  S_21
REMARK    6  A    between atoms: S_21  and  N_24
REMARK                            x       y       z     vdW  Elec       q    Type
REMARK                         _______ _______ _______ _____ _____    ______ ____
ROOT
ATOM      1  N   UNL     1      34.380 -22.282 -16.816  0.00  0.00    -0.190 N 
ATOM      2  N   UNL     1      34.272 -21.723 -18.034  0.00  0.00    -0.173 NA
ATOM      3  C   UNL     1      35.651 -22.285 -16.319  0.00  0.00    +0.075 C 
ATOM      4  C   UNL     1      36.428 -21.687 -17.283  0.00  0.00    +0.039 C 
ATOM      5  C   UNL     1      35.526 -21.361 -18.314  0.00  0.00    +0.144 C 
ENDROOT
BRANCH   3   7
ATOM      6  F   UNL     1      36.987 -26.007 -13.558  0.00  0.00    -0.201 F 
ATOM      7  C   UNL     1      36.029 -22.826 -15.036  0.00  0.00    +0.018 C 
ATOM      8  C   UNL     1      36.331 -24.181 -14.912  0.00  0.00    +0.034 C 
ATOM      9  C   UNL     1      36.092 -21.992 -13.919  0.00  0.00    +0.005 C 
ATOM     10  C   UNL     1      36.696 -24.703 -13.671  0.00  0.00    +0.174 C 
ATOM     11  C   UNL     1      36.458 -22.514 -12.679  0.00  0.00    +0.039 C 
ATOM     12  C   UNL     1      36.760 -23.870 -12.555  0.00  0.00    +0.166 C 
BRANCH  12  13
ATOM     13  O   UNL     1      37.118 -24.377 -11.345  0.00  0.00    -0.469 OA
ATOM     14  C   UNL     1      36.184 -24.228 -10.275  0.00  0.00    +0.253 C 
ENDBRANCH  12  13
ENDBRANCH   3   7
BRANCH   1  15
ATOM     15  C   UNL     1      33.239 -22.787 -16.189  0.00  0.00    +0.074 C 
ATOM     16  C   UNL     1      32.001 -22.644 -16.803  0.00  0.00    +0.018 C 
ATOM     17  C   UNL     1      33.357 -23.427 -14.963  0.00  0.00    +0.018 C 
ATOM     18  C   UNL     1      30.970 -23.793 -14.945  0.00  0.00    +0.122 C 
ATOM     19  C   UNL     1      30.861 -23.148 -16.178  0.00  0.00    +0.021 C 
ATOM     20  C   UNL     1      32.217 -23.932 -14.339  0.00  0.00    +0.021 C 
BRANCH  18  21
ATOM     21  S   UNL     1      29.543 -24.426 -14.163  0.00  0.00    +0.057 S 
ATOM     22  O   UNL     1      28.437 -23.513 -14.417  0.00  0.00    -0.153 OA
ATOM     23  O   UNL     1      29.412 -25.835 -14.510  0.00  0.00    -0.153 OA
BRANCH  21  24
ATOM     24  N   UNL     1      29.992 -24.306 -12.519  0.00  0.00    -0.203 NA
ATOM     25  H   UNL     1      29.785 -25.185 -12.045  0.00  0.00    +0.144 HD
ATOM     26  H   UNL     1      29.467 -23.551 -12.078  0.00  0.00    +0.144 HD
ENDBRANCH  21  24
ENDBRANCH  18  21
ENDBRANCH   1  15
BRANCH   5  29
ATOM     27  F   UNL     1      36.561 -19.561 -19.409  0.00  0.00    -0.191 F 
ATOM     28  F   UNL     1      34.688 -20.304 -20.234  0.00  0.00    -0.191 F 
ATOM     29  C   UNL     1      35.828 -20.698 -19.594  0.00  0.00    +0.360 C 
ENDBRANCH   5  29
TORSDOF 6
ENDMDL
