MODEL 1
REMARK VINA RESULT:     -12.2      0.000      0.000
REMARK  Name = 46213929
REMARK  4 active torsions:
REMARK  status: ('A' for Active; 'I' for Inactive)
REMARK    1  A    between atoms: C_7  and  C_20
REMARK    2  A    between atoms: C_9  and  C_28
REMARK    3  A    between atoms: C_20  and  N_22
REMARK    4  A    between atoms: C_28  and  C_31
REMARK                            x       y       z     vdW  Elec       q    Type
REMARK                         _______ _______ _______ _____ _____    ______ ____
ROOT
ATOM      1  N   UNL     1      33.986 -23.144 -14.244  0.00  0.00    -0.179 N 
ATOM      2  N   UNL     1      33.090 -24.153 -12.473  0.00  0.00    -0.393 NA
ATOM      3  N   UNL     1      34.130 -22.627 -15.489  0.00  0.00    -0.160 NA
ATOM      4  N   UNL     1      33.115 -22.267 -17.550  0.00  0.00    -0.281 N 
ATOM      5  N   UNL     1      35.367 -21.355 -17.604  0.00  0.00    -0.166 NA
ATOM      6  N   UNL     1      36.035 -20.728 -18.587  0.00  0.00    -0.239 N 
ATOM      7  C   UNL     1      31.735 -23.923 -14.555  0.00  0.00    +0.005 C 
ATOM      8  C   UNL     1      32.878 -23.778 -13.720  0.00  0.00    +0.196 C 
ATOM      9  C   UNL     1      34.944 -23.126 -13.263  0.00  0.00    +0.151 C 
ATOM     10  C   UNL     1      31.819 -23.428 -15.802  0.00  0.00    +0.034 C 
ATOM     11  C   UNL     1      34.368 -23.752 -12.185  0.00  0.00    +0.109 C 
ATOM     12  C   UNL     1      33.081 -22.756 -16.264  0.00  0.00    +0.151 C 
ATOM     13  C   UNL     1      34.949 -24.012 -10.858  0.00  0.00    +0.063 C 
ATOM     14  C   UNL     1      34.182 -21.617 -18.163  0.00  0.00    +0.152 C 
ATOM     15  C   UNL     1      34.094 -21.159 -19.491  0.00  0.00    +0.048 C 
ATOM     16  C   UNL     1      35.317 -20.585 -19.738  0.00  0.00    +0.046 C 
ATOM     17  C   UNL     1      35.871 -19.923 -20.931  0.00  0.00    +0.049 C 
ATOM     18  H   UNL     1      32.303 -22.390 -18.091  0.00  0.00    +0.155 HD
ATOM     19  H   UNL     1      36.958 -20.401 -18.486  0.00  0.00    +0.174 HD
ENDROOT
BRANCH   7  20
ATOM     20  C   UNL     1      30.465 -24.595 -14.102  0.00  0.00    -0.046 C 
BRANCH  20  22
ATOM     21  O   UNL     1      27.954 -22.102 -16.359  0.00  0.00    -0.358 OA
ATOM     22  N   UNL     1      29.280 -23.888 -14.583  0.00  0.00    +0.393 N 
ATOM     23  C   UNL     1      29.466 -22.434 -14.491  0.00  0.00    -0.044 C 
ATOM     24  C   UNL     1      28.972 -24.270 -15.968  0.00  0.00    -0.044 C 
ATOM     25  C   UNL     1      28.222 -21.719 -15.009  0.00  0.00    +0.119 C 
ATOM     26  C   UNL     1      27.740 -23.511 -16.453  0.00  0.00    +0.119 C 
ATOM     27  H   UNL     1      28.495 -24.155 -13.990  0.00  0.00    -0.079 HD
ENDBRANCH  20  22
ENDBRANCH   7  20
BRANCH   9  28
ATOM     28  C   UNL     1      36.278 -22.527 -13.449  0.00  0.00    +0.057 C 
BRANCH  28  31
ATOM     29 CL   UNL     1      40.740 -26.530 -14.135  0.00  0.00    -0.082 Cl
ATOM     30  F   UNL     1      37.903 -22.669 -15.778  0.00  0.00    -0.204 F 
ATOM     31  C   UNL     1      37.404 -23.537 -13.625  0.00  0.00    +0.007 C 
ATOM     32  C   UNL     1      38.160 -23.546 -14.798  0.00  0.00    +0.137 C 
ATOM     33  C   UNL     1      37.681 -24.453 -12.609  0.00  0.00    -0.001 C 
ATOM     34  C   UNL     1      39.192 -24.472 -14.955  0.00  0.00    +0.041 C 
ATOM     35  C   UNL     1      38.712 -25.379 -12.767  0.00  0.00    +0.011 C 
ATOM     36  C   UNL     1      39.468 -25.388 -13.940  0.00  0.00    +0.060 C 
ENDBRANCH  28  31
ENDBRANCH   9  28
TORSDOF 4
ENDMDL
MODEL 2
REMARK VINA RESULT:     -11.7      2.912      6.264
REMARK  Name = 46213929
REMARK  4 active torsions:
REMARK  status: ('A' for Active; 'I' for Inactive)
REMARK    1  A    between atoms: C_7  and  C_20
REMARK    2  A    between atoms: C_9  and  C_28
REMARK    3  A    between atoms: C_20  and  N_22
REMARK    4  A    between atoms: C_28  and  C_31
REMARK                            x       y       z     vdW  Elec       q    Type
REMARK                         _______ _______ _______ _____ _____    ______ ____
ROOT
ATOM      1  N   UNL     1      33.568 -22.531 -16.725  0.00  0.00    -0.179 N 
ATOM      2  N   UNL     1      31.518 -21.857 -17.274  0.00  0.00    -0.393 NA
ATOM      3  N   UNL     1      34.601 -23.052 -16.017  0.00  0.00    -0.160 NA
ATOM      4  N   UNL     1      35.255 -24.037 -14.015  0.00  0.00    -0.281 N 
ATOM      5  N   UNL     1      37.189 -23.840 -15.472  0.00  0.00    -0.166 NA
ATOM      6  N   UNL     1      38.471 -24.196 -15.280  0.00  0.00    -0.239 N 
ATOM      7  C   UNL     1      31.900 -22.883 -15.032  0.00  0.00    +0.005 C 
ATOM      8  C   UNL     1      32.251 -22.413 -16.329  0.00  0.00    +0.196 C 
ATOM      9  C   UNL     1      33.657 -22.016 -17.992  0.00  0.00    +0.151 C 
ATOM     10  C   UNL     1      32.884 -23.411 -14.283  0.00  0.00    +0.034 C 
ATOM     11  C   UNL     1      32.383 -21.609 -18.307  0.00  0.00    +0.109 C 
ATOM     12  C   UNL     1      34.284 -23.487 -14.822  0.00  0.00    +0.151 C 
ATOM     13  C   UNL     1      31.901 -20.982 -19.548  0.00  0.00    +0.063 C 
ATOM     14  C   UNL     1      36.601 -24.197 -14.327  0.00  0.00    +0.152 C 
ATOM     15  C   UNL     1      37.500 -24.777 -13.412  0.00  0.00    +0.048 C 
ATOM     16  C   UNL     1      38.709 -24.763 -14.063  0.00  0.00    +0.046 C 
ATOM     17  C   UNL     1      40.048 -25.223 -13.660  0.00  0.00    +0.049 C 
ATOM     18  H   UNL     1      34.967 -24.348 -13.127  0.00  0.00    +0.155 HD
ATOM     19  H   UNL     1      39.173 -24.062 -15.956  0.00  0.00    +0.174 HD
ENDROOT
BRANCH   7  20
ATOM     20  C   UNL     1      30.499 -22.810 -14.483  0.00  0.00    -0.046 C 
BRANCH  20  22
ATOM     21  O   UNL     1      26.840 -23.249 -16.491  0.00  0.00    -0.358 OA
ATOM     22  N   UNL     1      29.500 -22.884 -15.547  0.00  0.00    +0.393 N 
ATOM     23  C   UNL     1      28.873 -24.212 -15.585  0.00  0.00    -0.044 C 
ATOM     24  C   UNL     1      28.474 -21.847 -15.371  0.00  0.00    -0.044 C 
ATOM     25  C   UNL     1      27.828 -24.259 -16.695  0.00  0.00    +0.119 C 
ATOM     26  C   UNL     1      27.437 -21.950 -16.485  0.00  0.00    +0.119 C 
ATOM     27  H   UNL     1      29.977 -22.722 -16.435  0.00  0.00    -0.079 HD
ENDBRANCH  20  22
ENDBRANCH   7  20
BRANCH   9  28
ATOM     28  C   UNL     1      34.916 -21.967 -18.757  0.00  0.00    +0.057 C 
BRANCH  28  31
ATOM     29 CL   UNL     1      35.496 -17.124 -22.308  0.00  0.00    -0.082 Cl
ATOM     30  F   UNL     1      36.890 -19.961 -18.351  0.00  0.00    -0.204 F 
ATOM     31  C   UNL     1      35.064 -20.744 -19.652  0.00  0.00    +0.007 C 
ATOM     32  C   UNL     1      36.059 -19.800 -19.390  0.00  0.00    +0.137 C 
ATOM     33  C   UNL     1      34.204 -20.568 -20.736  0.00  0.00    -0.001 C 
ATOM     34  C   UNL     1      36.191 -18.681 -20.212  0.00  0.00    +0.041 C 
ATOM     35  C   UNL     1      34.337 -19.448 -21.558  0.00  0.00    +0.011 C 
ATOM     36  C   UNL     1      35.332 -18.505 -21.295  0.00  0.00    +0.060 C 
ENDBRANCH  28  31
ENDBRANCH   9  28
TORSDOF 4
ENDMDL
MODEL 3
REMARK VINA RESULT:     -10.7      2.543      6.249
REMARK  Name = 46213929
REMARK  4 active torsions:
REMARK  status: ('A' for Active; 'I' for Inactive)
REMARK    1  A    between atoms: C_7  and  C_20
REMARK    2  A    between atoms: C_9  and  C_28
REMARK    3  A    between atoms: C_20  and  N_22
REMARK    4  A    between atoms: C_28  and  C_31
REMARK                            x       y       z     vdW  Elec       q    Type
REMARK                         _______ _______ _______ _____ _____    ______ ____
ROOT
ATOM      1  N   UNL     1      34.465 -22.104 -16.676  0.00  0.00    -0.179 N 
ATOM      2  N   UNL     1      36.063 -21.145 -17.895  0.00  0.00    -0.393 NA
ATOM      3  N   UNL     1      33.269 -22.634 -16.316  0.00  0.00    -0.160 NA
ATOM      4  N   UNL     1      31.106 -23.140 -17.004  0.00  0.00    -0.281 N 
ATOM      5  N   UNL     1      31.385 -23.828 -14.690  0.00  0.00    -0.166 NA
ATOM      6  N   UNL     1      30.524 -24.410 -13.839  0.00  0.00    -0.239 N 
ATOM      7  C   UNL     1      33.829 -21.556 -18.928  0.00  0.00    +0.005 C 
ATOM      8  C   UNL     1      34.813 -21.569 -17.900  0.00  0.00    +0.196 C 
ATOM      9  C   UNL     1      35.563 -22.004 -15.863  0.00  0.00    +0.151 C 
ATOM     10  C   UNL     1      32.623 -22.070 -18.629  0.00  0.00    +0.034 C 
ATOM     11  C   UNL     1      36.532 -21.412 -16.636  0.00  0.00    +0.109 C 
ATOM     12  C   UNL     1      32.358 -22.626 -17.258  0.00  0.00    +0.151 C 
ATOM     13  C   UNL     1      37.914 -21.065 -16.267  0.00  0.00    +0.063 C 
ATOM     14  C   UNL     1      30.665 -23.697 -15.808  0.00  0.00    +0.152 C 
ATOM     15  C   UNL     1      29.354 -24.192 -15.671  0.00  0.00    +0.048 C 
ATOM     16  C   UNL     1      29.293 -24.650 -14.378  0.00  0.00    +0.046 C 
ATOM     17  C   UNL     1      28.210 -25.282 -13.608  0.00  0.00    +0.049 C 
ATOM     18  H   UNL     1      30.458 -23.110 -17.744  0.00  0.00    +0.155 HD
ATOM     19  H   UNL     1      30.758 -24.642 -12.912  0.00  0.00    +0.174 HD
ENDROOT
BRANCH   7  20
ATOM     20  C   UNL     1      34.085 -21.001 -20.304  0.00  0.00    -0.046 C 
BRANCH  20  22
ATOM     21  O   UNL     1      35.969 -17.429 -21.448  0.00  0.00    -0.358 OA
ATOM     22  N   UNL     1      34.721 -19.687 -20.245  0.00  0.00    +0.393 N 
ATOM     23  C   UNL     1      36.098 -19.749 -20.752  0.00  0.00    -0.044 C 
ATOM     24  C   UNL     1      33.947 -18.698 -21.007  0.00  0.00    -0.044 C 
ATOM     25  C   UNL     1      36.736 -18.365 -20.690  0.00  0.00    +0.119 C 
ATOM     26  C   UNL     1      34.636 -17.338 -20.941  0.00  0.00    +0.119 C 
ATOM     27  H   UNL     1      34.746 -19.396 -19.267  0.00  0.00    -0.079 HD
ENDBRANCH  20  22
ENDBRANCH   7  20
BRANCH   9  28
ATOM     28  C   UNL     1      35.579 -22.474 -14.465  0.00  0.00    +0.057 C 
BRANCH  28  31
ATOM     29 CL   UNL     1      40.139 -26.190 -13.129  0.00  0.00    -0.082 Cl
ATOM     30  F   UNL     1      37.191 -22.192 -12.141  0.00  0.00    -0.204 F 
ATOM     31  C   UNL     1      36.730 -23.410 -14.126  0.00  0.00    +0.007 C 
ATOM     32  C   UNL     1      37.478 -23.208 -12.965  0.00  0.00    +0.137 C 
ATOM     33  C   UNL     1      37.037 -24.471 -14.978  0.00  0.00    -0.001 C 
ATOM     34  C   UNL     1      38.532 -24.069 -12.657  0.00  0.00    +0.041 C 
ATOM     35  C   UNL     1      38.091 -25.331 -14.670  0.00  0.00    +0.011 C 
ATOM     36  C   UNL     1      38.839 -25.130 -13.509  0.00  0.00    +0.060 C 
ENDBRANCH  28  31
ENDBRANCH   9  28
TORSDOF 4
ENDMDL
MODEL 4
REMARK VINA RESULT:     -10.7      3.755      7.055
REMARK  Name = 46213929
REMARK  4 active torsions:
REMARK  status: ('A' for Active; 'I' for Inactive)
REMARK    1  A    between atoms: C_7  and  C_20
REMARK    2  A    between atoms: C_9  and  C_28
REMARK    3  A    between atoms: C_20  and  N_22
REMARK    4  A    between atoms: C_28  and  C_31
REMARK                            x       y       z     vdW  Elec       q    Type
REMARK                         _______ _______ _______ _____ _____    ______ ____
ROOT
ATOM      1  N   UNL     1      34.195 -22.637 -16.398  0.00  0.00    -0.179 N 
ATOM      2  N   UNL     1      34.452 -23.742 -14.482  0.00  0.00    -0.393 NA
ATOM      3  N   UNL     1      34.467 -21.871 -17.484  0.00  0.00    -0.160 NA
ATOM      4  N   UNL     1      36.082 -20.628 -18.603  0.00  0.00    -0.281 N 
ATOM      5  N   UNL     1      34.006 -20.549 -19.863  0.00  0.00    -0.166 NA
ATOM      6  N   UNL     1      33.704 -19.933 -21.018  0.00  0.00    -0.239 N 
ATOM      7  C   UNL     1      36.391 -22.491 -15.432  0.00  0.00    +0.005 C 
ATOM      8  C   UNL     1      35.056 -22.981 -15.375  0.00  0.00    +0.196 C 
ATOM      9  C   UNL     1      32.986 -23.219 -16.122  0.00  0.00    +0.151 C 
ATOM     10  C   UNL     1      36.718 -21.725 -16.487  0.00  0.00    +0.034 C 
ATOM     11  C   UNL     1      33.170 -23.892 -14.939  0.00  0.00    +0.109 C 
ATOM     12  C   UNL     1      35.695 -21.418 -17.543  0.00  0.00    +0.151 C 
ATOM     13  C   UNL     1      32.197 -24.694 -14.180  0.00  0.00    +0.063 C 
ATOM     14  C   UNL     1      35.290 -20.232 -19.676  0.00  0.00    +0.152 C 
ATOM     15  C   UNL     1      35.805 -19.420 -20.704  0.00  0.00    +0.048 C 
ATOM     16  C   UNL     1      34.748 -19.243 -21.563  0.00  0.00    +0.046 C 
ATOM     17  C   UNL     1      34.621 -18.501 -22.828  0.00  0.00    +0.049 C 
ATOM     18  H   UNL     1      37.014 -20.313 -18.602  0.00  0.00    +0.155 HD
ATOM     19  H   UNL     1      32.814 -19.976 -21.433  0.00  0.00    +0.174 HD
ENDROOT
BRANCH   7  20
ATOM     20  C   UNL     1      37.423 -22.794 -14.379  0.00  0.00    -0.046 C 
BRANCH  20  22
ATOM     21  O   UNL     1      36.915 -24.307 -10.496  0.00  0.00    -0.358 OA
ATOM     22  N   UNL     1      36.820 -23.399 -13.192  0.00  0.00    +0.393 N 
ATOM     23  C   UNL     1      37.521 -24.635 -12.822  0.00  0.00    -0.044 C 
ATOM     24  C   UNL     1      36.830 -22.457 -12.064  0.00  0.00    -0.044 C 
ATOM     25  C   UNL     1      36.881 -25.240 -11.577  0.00  0.00    +0.119 C 
ATOM     26  C   UNL     1      36.208 -23.113 -10.836  0.00  0.00    +0.119 C 
ATOM     27  H   UNL     1      35.851 -23.627 -13.417  0.00  0.00    -0.079 HD
ENDBRANCH  20  22
ENDBRANCH   7  20
BRANCH   9  28
ATOM     28  C   UNL     1      31.805 -23.079 -16.995  0.00  0.00    +0.057 C 
BRANCH  28  31
ATOM     29 CL   UNL     1      26.691 -21.722 -14.097  0.00  0.00    -0.082 Cl
ATOM     30  F   UNL     1      31.728 -21.550 -14.599  0.00  0.00    -0.204 F 
ATOM     31  C   UNL     1      30.516 -22.736 -16.261  0.00  0.00    +0.007 C 
ATOM     32  C   UNL     1      30.557 -21.980 -15.089  0.00  0.00    +0.137 C 
ATOM     33  C   UNL     1      29.291 -23.178 -16.764  0.00  0.00    -0.001 C 
ATOM     34  C   UNL     1      29.373 -21.667 -14.420  0.00  0.00    +0.041 C 
ATOM     35  C   UNL     1      28.108 -22.865 -16.095  0.00  0.00    +0.011 C 
ATOM     36  C   UNL     1      28.150 -22.108 -14.922  0.00  0.00    +0.060 C 
ENDBRANCH  28  31
ENDBRANCH   9  28
TORSDOF 4
ENDMDL
MODEL 5
REMARK VINA RESULT:     -10.6      3.901      7.328
REMARK  Name = 46213929
REMARK  4 active torsions:
REMARK  status: ('A' for Active; 'I' for Inactive)
REMARK    1  A    between atoms: C_7  and  C_20
REMARK    2  A    between atoms: C_9  and  C_28
REMARK    3  A    between atoms: C_20  and  N_22
REMARK    4  A    between atoms: C_28  and  C_31
REMARK                            x       y       z     vdW  Elec       q    Type
REMARK                         _______ _______ _______ _____ _____    ______ ____
ROOT
ATOM      1  N   UNL     1      33.358 -23.043 -15.480  0.00  0.00    -0.179 N 
ATOM      2  N   UNL     1      33.135 -24.030 -13.496  0.00  0.00    -0.393 NA
ATOM      3  N   UNL     1      33.902 -22.369 -16.523  0.00  0.00    -0.160 NA
ATOM      4  N   UNL     1      35.799 -21.305 -17.346  0.00  0.00    -0.281 N 
ATOM      5  N   UNL     1      34.035 -21.183 -19.012  0.00  0.00    -0.166 NA
ATOM      6  N   UNL     1      34.022 -20.627 -20.236  0.00  0.00    -0.239 N 
ATOM      7  C   UNL     1      35.315 -22.968 -14.086  0.00  0.00    +0.005 C 
ATOM      8  C   UNL     1      33.963 -23.369 -14.282  0.00  0.00    +0.196 C 
ATOM      9  C   UNL     1      32.078 -23.529 -15.431  0.00  0.00    +0.151 C 
ATOM     10  C   UNL     1      35.907 -22.296 -15.089  0.00  0.00    +0.034 C 
ATOM     11  C   UNL     1      31.966 -24.132 -14.202  0.00  0.00    +0.109 C 
ATOM     12  C   UNL     1      35.146 -21.997 -16.350  0.00  0.00    +0.151 C 
ATOM     13  C   UNL     1      30.802 -24.820 -13.621  0.00  0.00    +0.063 C 
ATOM     14  C   UNL     1      35.274 -20.933 -18.579  0.00  0.00    +0.152 C 
ATOM     15  C   UNL     1      36.046 -20.225 -19.519  0.00  0.00    +0.048 C 
ATOM     16  C   UNL     1      35.203 -20.041 -20.587  0.00  0.00    +0.046 C 
ATOM     17  C   UNL     1      35.393 -19.379 -21.888  0.00  0.00    +0.049 C 
ATOM     18  H   UNL     1      36.732 -21.048 -17.166  0.00  0.00    +0.155 HD
ATOM     19  H   UNL     1      33.235 -20.643 -20.825  0.00  0.00    +0.174 HD
ENDROOT
BRANCH   7  20
ATOM     20  C   UNL     1      36.085 -23.263 -12.826  0.00  0.00    -0.046 C 
BRANCH  20  22
ATOM     21  O   UNL     1      38.525 -26.282 -14.422  0.00  0.00    -0.358 OA
ATOM     22  N   UNL     1      36.878 -24.484 -12.954  0.00  0.00    +0.393 N 
ATOM     23  C   UNL     1      36.322 -25.362 -13.993  0.00  0.00    -0.044 C 
ATOM     24  C   UNL     1      38.280 -24.166 -13.261  0.00  0.00    -0.044 C 
ATOM     25  C   UNL     1      37.173 -26.622 -14.114  0.00  0.00    +0.119 C 
ATOM     26  C   UNL     1      39.085 -25.454 -13.401  0.00  0.00    +0.119 C 
ATOM     27  H   UNL     1      36.844 -24.973 -12.060  0.00  0.00    -0.079 HD
ENDBRANCH  20  22
ENDBRANCH   7  20
BRANCH   9  28
ATOM     28  C   UNL     1      31.114 -23.375 -16.537  0.00  0.00    +0.057 C 
BRANCH  28  31
ATOM     29 CL   UNL     1      25.592 -21.647 -14.827  0.00  0.00    -0.082 Cl
ATOM     30  F   UNL     1      30.641 -21.481 -14.471  0.00  0.00    -0.204 F 
ATOM     31  C   UNL     1      29.721 -22.938 -16.103  0.00  0.00    +0.007 C 
ATOM     32  C   UNL     1      29.568 -22.002 -15.080  0.00  0.00    +0.137 C 
ATOM     33  C   UNL     1      28.597 -23.474 -16.732  0.00  0.00    -0.001 C 
ATOM     34  C   UNL     1      28.290 -21.603 -14.686  0.00  0.00    +0.041 C 
ATOM     35  C   UNL     1      27.320 -23.076 -16.338  0.00  0.00    +0.011 C 
ATOM     36  C   UNL     1      27.167 -22.139 -15.314  0.00  0.00    +0.060 C 
ENDBRANCH  28  31
ENDBRANCH   9  28
TORSDOF 4
ENDMDL
MODEL 6
REMARK VINA RESULT:     -10.3      3.707      7.667
REMARK  Name = 46213929
REMARK  4 active torsions:
REMARK  status: ('A' for Active; 'I' for Inactive)
REMARK    1  A    between atoms: C_7  and  C_20
REMARK    2  A    between atoms: C_9  and  C_28
REMARK    3  A    between atoms: C_20  and  N_22
REMARK    4  A    between atoms: C_28  and  C_31
REMARK                            x       y       z     vdW  Elec       q    Type
REMARK                         _______ _______ _______ _____ _____    ______ ____
ROOT
ATOM      1  N   UNL     1      33.409 -22.348 -16.344  0.00  0.00    -0.179 N 
ATOM      2  N   UNL     1      35.610 -22.558 -16.076  0.00  0.00    -0.393 NA
ATOM      3  N   UNL     1      32.079 -22.340 -16.078  0.00  0.00    -0.160 NA
ATOM      4  N   UNL     1      30.440 -22.684 -14.466  0.00  0.00    -0.281 N 
ATOM      5  N   UNL     1      29.377 -22.042 -16.554  0.00  0.00    -0.166 NA
ATOM      6  N   UNL     1      28.079 -21.877 -16.863  0.00  0.00    -0.239 N 
ATOM      7  C   UNL     1      34.102 -23.003 -14.138  0.00  0.00    +0.005 C 
ATOM      8  C   UNL     1      34.438 -22.653 -15.476  0.00  0.00    +0.196 C 
ATOM      9  C   UNL     1      33.977 -22.048 -17.555  0.00  0.00    +0.151 C 
ATOM     10  C   UNL     1      32.797 -23.011 -13.816  0.00  0.00    +0.034 C 
ATOM     11  C   UNL     1      35.330 -22.185 -17.363  0.00  0.00    +0.109 C 
ATOM     12  C   UNL     1      31.762 -22.661 -14.847  0.00  0.00    +0.151 C 
ATOM     13  C   UNL     1      36.418 -21.984 -18.334  0.00  0.00    +0.063 C 
ATOM     14  C   UNL     1      29.339 -22.394 -15.266  0.00  0.00    +0.152 C 
ATOM     15  C   UNL     1      28.029 -22.453 -14.756  0.00  0.00    +0.048 C 
ATOM     16  C   UNL     1      27.231 -22.110 -15.821  0.00  0.00    +0.046 C 
ATOM     17  C   UNL     1      25.771 -21.982 -15.954  0.00  0.00    +0.049 C 
ATOM     18  H   UNL     1      30.254 -22.932 -13.531  0.00  0.00    +0.155 HD
ATOM     19  H   UNL     1      27.770 -21.611 -17.758  0.00  0.00    +0.174 HD
ENDROOT
BRANCH   7  20
ATOM     20  C   UNL     1      35.131 -23.356 -13.097  0.00  0.00    -0.046 C 
BRANCH  20  22
ATOM     21  O   UNL     1      38.317 -26.038 -13.622  0.00  0.00    -0.358 OA
ATOM     22  N   UNL     1      36.269 -24.063 -13.683  0.00  0.00    +0.393 N 
ATOM     23  C   UNL     1      37.470 -23.899 -12.853  0.00  0.00    -0.044 C 
ATOM     24  C   UNL     1      35.964 -25.490 -13.853  0.00  0.00    -0.044 C 
ATOM     25  C   UNL     1      38.638 -24.654 -13.479  0.00  0.00    +0.119 C 
ATOM     26  C   UNL     1      37.168 -26.209 -14.454  0.00  0.00    +0.119 C 
ATOM     27  H   UNL     1      36.448 -23.657 -14.602  0.00  0.00    -0.079 HD
ENDBRANCH  20  22
ENDBRANCH   7  20
BRANCH   9  28
ATOM     28  C   UNL     1      33.190 -21.670 -18.743  0.00  0.00    +0.057 C 
BRANCH  28  31
ATOM     29 CL   UNL     1      35.851 -17.585 -22.296  0.00  0.00    -0.082 Cl
ATOM     30  F   UNL     1      31.783 -20.128 -20.673  0.00  0.00    -0.204 F 
ATOM     31  C   UNL     1      33.859 -20.639 -19.641  0.00  0.00    +0.007 C 
ATOM     32  C   UNL     1      33.102 -19.919 -20.567  0.00  0.00    +0.137 C 
ATOM     33  C   UNL     1      35.232 -20.413 -19.537  0.00  0.00    -0.001 C 
ATOM     34  C   UNL     1      33.719 -18.974 -21.388  0.00  0.00    +0.041 C 
ATOM     35  C   UNL     1      35.849 -19.470 -20.358  0.00  0.00    +0.011 C 
ATOM     36  C   UNL     1      35.092 -18.749 -21.284  0.00  0.00    +0.060 C 
ENDBRANCH  28  31
ENDBRANCH   9  28
TORSDOF 4
ENDMDL
MODEL 7
REMARK VINA RESULT:     -10.2      3.827      7.144
REMARK  Name = 46213929
REMARK  4 active torsions:
REMARK  status: ('A' for Active; 'I' for Inactive)
REMARK    1  A    between atoms: C_7  and  C_20
REMARK    2  A    between atoms: C_9  and  C_28
REMARK    3  A    between atoms: C_20  and  N_22
REMARK    4  A    between atoms: C_28  and  C_31
REMARK                            x       y       z     vdW  Elec       q    Type
REMARK                         _______ _______ _______ _____ _____    ______ ____
ROOT
ATOM      1  N   UNL     1      34.557 -22.257 -16.384  0.00  0.00    -0.179 N 
ATOM      2  N   UNL     1      35.200 -23.234 -14.489  0.00  0.00    -0.393 NA
ATOM      3  N   UNL     1      34.605 -21.593 -17.566  0.00  0.00    -0.160 NA
ATOM      4  N   UNL     1      35.973 -20.554 -19.133  0.00  0.00    -0.281 N 
ATOM      5  N   UNL     1      33.665 -20.418 -19.880  0.00  0.00    -0.166 NA
ATOM      6  N   UNL     1      33.133 -19.868 -20.984  0.00  0.00    -0.239 N 
ATOM      7  C   UNL     1      36.923 -22.198 -15.968  0.00  0.00    +0.005 C 
ATOM      8  C   UNL     1      35.615 -22.585 -15.561  0.00  0.00    +0.196 C 
ATOM      9  C   UNL     1      33.418 -22.729 -15.786  0.00  0.00    +0.151 C 
ATOM     10  C   UNL     1      37.032 -21.536 -17.133  0.00  0.00    +0.034 C 
ATOM     11  C   UNL     1      33.840 -23.325 -14.623  0.00  0.00    +0.109 C 
ATOM     12  C   UNL     1      35.806 -21.234 -17.947  0.00  0.00    +0.151 C 
ATOM     13  C   UNL     1      33.034 -23.997 -13.592  0.00  0.00    +0.063 C 
ATOM     14  C   UNL     1      34.972 -20.181 -20.024  0.00  0.00    +0.152 C 
ATOM     15  C   UNL     1      35.271 -19.485 -21.210  0.00  0.00    +0.048 C 
ATOM     16  C   UNL     1      34.052 -19.296 -21.814  0.00  0.00    +0.046 C 
ATOM     17  C   UNL     1      33.670 -18.642 -23.076  0.00  0.00    +0.049 C 
ATOM     18  H   UNL     1      36.895 -20.307 -19.374  0.00  0.00    +0.155 HD
ATOM     19  H   UNL     1      32.168 -19.877 -21.177  0.00  0.00    +0.174 HD
ENDROOT
BRANCH   7  20
ATOM     20  C   UNL     1      38.158 -22.497 -15.159  0.00  0.00    -0.046 C 
BRANCH  20  22
ATOM     21  O   UNL     1      39.253 -26.025 -13.166  0.00  0.00    -0.358 OA
ATOM     22  N   UNL     1      38.190 -23.891 -14.721  0.00  0.00    +0.393 N 
ATOM     23  C   UNL     1      39.480 -24.512 -15.049  0.00  0.00    -0.044 C 
ATOM     24  C   UNL     1      37.935 -23.990 -13.278  0.00  0.00    -0.044 C 
ATOM     25  C   UNL     1      39.493 -25.961 -14.573  0.00  0.00    +0.119 C 
ATOM     26  C   UNL     1      37.985 -25.451 -12.842  0.00  0.00    +0.119 C 
ATOM     27  H   UNL     1      37.451 -24.391 -15.217  0.00  0.00    -0.079 HD
ENDBRANCH  20  22
ENDBRANCH   7  20
BRANCH   9  28
ATOM     28  C   UNL     1      32.074 -22.568 -16.371  0.00  0.00    +0.057 C 
BRANCH  28  31
ATOM     29 CL   UNL     1      27.750 -25.751 -13.620  0.00  0.00    -0.082 Cl
ATOM     30  F   UNL     1      30.642 -21.622 -14.105  0.00  0.00    -0.204 F 
ATOM     31  C   UNL     1      30.983 -23.370 -15.675  0.00  0.00    +0.007 C 
ATOM     32  C   UNL     1      30.322 -22.838 -14.566  0.00  0.00    +0.137 C 
ATOM     33  C   UNL     1      30.642 -24.637 -16.148  0.00  0.00    -0.001 C 
ATOM     34  C   UNL     1      29.323 -23.576 -13.931  0.00  0.00    +0.041 C 
ATOM     35  C   UNL     1      29.642 -25.374 -15.513  0.00  0.00    +0.011 C 
ATOM     36  C   UNL     1      28.982 -24.843 -14.404  0.00  0.00    +0.060 C 
ENDBRANCH  28  31
ENDBRANCH   9  28
TORSDOF 4
ENDMDL
MODEL 8
REMARK VINA RESULT:     -10.2      3.358      6.813
REMARK  Name = 46213929
REMARK  4 active torsions:
REMARK  status: ('A' for Active; 'I' for Inactive)
REMARK    1  A    between atoms: C_7  and  C_20
REMARK    2  A    between atoms: C_9  and  C_28
REMARK    3  A    between atoms: C_20  and  N_22
REMARK    4  A    between atoms: C_28  and  C_31
REMARK                            x       y       z     vdW  Elec       q    Type
REMARK                         _______ _______ _______ _____ _____    ______ ____
ROOT
ATOM      1  N   UNL     1      33.525 -21.878 -17.772  0.00  0.00    -0.179 N 
ATOM      2  N   UNL     1      31.485 -21.373 -18.508  0.00  0.00    -0.393 NA
ATOM      3  N   UNL     1      34.525 -22.357 -16.991  0.00  0.00    -0.160 NA
ATOM      4  N   UNL     1      35.060 -23.469 -15.020  0.00  0.00    -0.281 N 
ATOM      5  N   UNL     1      37.110 -22.919 -16.202  0.00  0.00    -0.166 NA
ATOM      6  N   UNL     1      38.394 -23.155 -15.886  0.00  0.00    -0.239 N 
ATOM      7  C   UNL     1      31.729 -22.577 -16.336  0.00  0.00    +0.005 C 
ATOM      8  C   UNL     1      32.167 -21.942 -17.533  0.00  0.00    +0.196 C 
ATOM      9  C   UNL     1      33.695 -21.230 -18.967  0.00  0.00    +0.151 C 
ATOM     10  C   UNL     1      32.677 -23.072 -15.522  0.00  0.00    +0.034 C 
ATOM     11  C   UNL     1      32.426 -20.930 -19.399  0.00  0.00    +0.109 C 
ATOM     12  C   UNL     1      34.129 -22.944 -15.888  0.00  0.00    +0.151 C 
ATOM     13  C   UNL     1      32.017 -20.233 -20.629  0.00  0.00    +0.063 C 
ATOM     14  C   UNL     1      36.442 -23.452 -15.175  0.00  0.00    +0.152 C 
ATOM     15  C   UNL     1      37.293 -24.025 -14.212  0.00  0.00    +0.048 C 
ATOM     16  C   UNL     1      38.558 -23.816 -14.704  0.00  0.00    +0.046 C 
ATOM     17  C   UNL     1      39.888 -24.170 -14.182  0.00  0.00    +0.049 C 
ATOM     18  H   UNL     1      34.711 -23.898 -14.206  0.00  0.00    +0.155 HD
ATOM     19  H   UNL     1      39.147 -22.878 -16.455  0.00  0.00    +0.174 HD
ENDROOT
BRANCH   7  20
ATOM     20  C   UNL     1      30.277 -22.711 -15.961  0.00  0.00    -0.046 C 
BRANCH  20  22
ATOM     21  O   UNL     1      28.695 -25.038 -12.846  0.00  0.00    -0.358 OA
ATOM     22  N   UNL     1      30.063 -23.806 -15.018  0.00  0.00    +0.393 N 
ATOM     23  C   UNL     1      30.248 -23.349 -13.634  0.00  0.00    -0.044 C 
ATOM     24  C   UNL     1      28.721 -24.383 -15.183  0.00  0.00    -0.044 C 
ATOM     25  C   UNL     1      30.009 -24.506 -12.670  0.00  0.00    +0.119 C 
ATOM     26  C   UNL     1      28.517 -25.515 -14.181  0.00  0.00    +0.119 C 
ATOM     27  H   UNL     1      30.754 -24.530 -15.218  0.00  0.00    -0.079 HD
ENDBRANCH  20  22
ENDBRANCH   7  20
BRANCH   9  28
ATOM     28  C   UNL     1      35.019 -20.969 -19.563  0.00  0.00    +0.057 C 
BRANCH  28  31
ATOM     29 CL   UNL     1      35.151 -16.333 -23.421  0.00  0.00    -0.082 Cl
ATOM     30  F   UNL     1      36.915 -18.858 -19.400  0.00  0.00    -0.204 F 
ATOM     31  C   UNL     1      35.053 -19.798 -20.535  0.00  0.00    +0.007 C 
ATOM     32  C   UNL     1      36.016 -18.797 -20.392  0.00  0.00    +0.137 C 
ATOM     33  C   UNL     1      34.122 -19.727 -21.571  0.00  0.00    -0.001 C 
ATOM     34  C   UNL     1      36.045 -17.726 -21.285  0.00  0.00    +0.041 C 
ATOM     35  C   UNL     1      34.152 -18.655 -22.464  0.00  0.00    +0.011 C 
ATOM     36  C   UNL     1      35.114 -17.655 -22.321  0.00  0.00    +0.060 C 
ENDBRANCH  28  31
ENDBRANCH   9  28
TORSDOF 4
ENDMDL
MODEL 9
REMARK VINA RESULT:      -9.3      2.760      6.245
REMARK  Name = 46213929
REMARK  4 active torsions:
REMARK  status: ('A' for Active; 'I' for Inactive)
REMARK    1  A    between atoms: C_7  and  C_20
REMARK    2  A    between atoms: C_9  and  C_28
REMARK    3  A    between atoms: C_20  and  N_22
REMARK    4  A    between atoms: C_28  and  C_31
REMARK                            x       y       z     vdW  Elec       q    Type
REMARK                         _______ _______ _______ _____ _____    ______ ____
ROOT
ATOM      1  N   UNL     1      34.431 -21.871 -17.003  0.00  0.00    -0.179 N 
ATOM      2  N   UNL     1      36.412 -21.509 -17.952  0.00  0.00    -0.393 NA
ATOM      3  N   UNL     1      33.090 -21.992 -16.838  0.00  0.00    -0.160 NA
ATOM      4  N   UNL     1      31.007 -21.845 -17.861  0.00  0.00    -0.281 N 
ATOM      5  N   UNL     1      30.705 -22.471 -15.533  0.00  0.00    -0.166 NA
ATOM      6  N   UNL     1      29.588 -22.718 -14.829  0.00  0.00    -0.239 N 
ATOM      7  C   UNL     1      34.344 -21.267 -19.327  0.00  0.00    +0.005 C 
ATOM      8  C   UNL     1      35.109 -21.530 -18.156  0.00  0.00    +0.196 C 
ATOM      9  C   UNL     1      35.370 -22.073 -16.026  0.00  0.00    +0.151 C 
ATOM     10  C   UNL     1      33.008 -21.372 -19.224  0.00  0.00    +0.034 C 
ATOM     11  C   UNL     1      36.580 -21.844 -16.635  0.00  0.00    +0.109 C 
ATOM     12  C   UNL     1      32.380 -21.752 -17.913  0.00  0.00    +0.151 C 
ATOM     13  C   UNL     1      37.929 -21.919 -16.051  0.00  0.00    +0.063 C 
ATOM     14  C   UNL     1      30.239 -22.180 -16.751  0.00  0.00    +0.152 C 
ATOM     15  C   UNL     1      28.835 -22.244 -16.824  0.00  0.00    +0.048 C 
ATOM     16  C   UNL     1      28.440 -22.597 -15.557  0.00  0.00    +0.046 C 
ATOM     17  C   UNL     1      27.111 -22.828 -14.970  0.00  0.00    +0.049 C 
ATOM     18  H   UNL     1      30.519 -21.655 -18.695  0.00  0.00    +0.155 HD
ATOM     19  H   UNL     1      29.596 -22.966 -13.877  0.00  0.00    +0.174 HD
ENDROOT
BRANCH   7  20
ATOM     20  C   UNL     1      34.965 -20.885 -20.645  0.00  0.00    -0.046 C 
BRANCH  20  22
ATOM     21  O   UNL     1      34.884 -17.144 -22.547  0.00  0.00    -0.358 OA
ATOM     22  N   UNL     1      34.534 -19.557 -21.078  0.00  0.00    +0.393 N 
ATOM     23  C   UNL     1      35.496 -18.531 -20.653  0.00  0.00    -0.044 C 
ATOM     24  C   UNL     1      34.364 -19.514 -22.537  0.00  0.00    -0.044 C 
ATOM     25  C   UNL     1      35.031 -17.158 -21.126  0.00  0.00    +0.119 C 
ATOM     26  C   UNL     1      33.926 -18.117 -22.967  0.00  0.00    +0.119 C 
ATOM     27  H   UNL     1      33.634 -19.363 -20.640  0.00  0.00    -0.079 HD
ENDBRANCH  20  22
ENDBRANCH   7  20
BRANCH   9  28
ATOM     28  C   UNL     1      35.027 -22.456 -14.643  0.00  0.00    +0.057 C 
BRANCH  28  31
ATOM     29 CL   UNL     1      38.938 -26.251 -12.056  0.00  0.00    -0.082 Cl
ATOM     30  F   UNL     1      35.227 -25.205 -15.340  0.00  0.00    -0.204 F 
ATOM     31  C   UNL     1      36.013 -23.415 -13.991  0.00  0.00    +0.007 C 
ATOM     32  C   UNL     1      36.053 -24.753 -14.386  0.00  0.00    +0.137 C 
ATOM     33  C   UNL     1      36.878 -22.955 -12.998  0.00  0.00    -0.001 C 
ATOM     34  C   UNL     1      36.959 -25.630 -13.787  0.00  0.00    +0.041 C 
ATOM     35  C   UNL     1      37.783 -23.831 -12.399  0.00  0.00    +0.011 C 
ATOM     36  C   UNL     1      37.823 -25.169 -12.794  0.00  0.00    +0.060 C 
ENDBRANCH  28  31
ENDBRANCH   9  28
TORSDOF 4
ENDMDL
