MODEL 1
REMARK VINA RESULT:     -10.1      0.000      0.000
REMARK  Name = 3885
REMARK  0 active torsions:
REMARK  status: ('A' for Active; 'I' for Inactive)
REMARK                            x       y       z     vdW  Elec       q    Type
REMARK                         _______ _______ _______ _____ _____    ______ ____
ROOT
ATOM      1  O   UNL     1      36.166 -22.945 -15.875  0.00  0.00    -0.483 OA
ATOM      2  O   UNL     1      31.447 -23.476 -15.325  0.00  0.00    -0.283 OA
ATOM      3  O   UNL     1      31.019 -22.106 -17.551  0.00  0.00    -0.283 OA
ATOM      4  C   UNL     1      36.455 -23.455 -14.560  0.00  0.00    +0.134 C 
ATOM      5  C   UNL     1      35.474 -24.568 -14.163  0.00  0.00    +0.045 C 
ATOM      6  C   UNL     1      34.027 -24.103 -14.269  0.00  0.00    +0.036 C 
ATOM      7  C   UNL     1      33.818 -23.290 -15.511  0.00  0.00    +0.054 C 
ATOM      8  C   UNL     1      34.839 -22.793 -16.232  0.00  0.00    +0.137 C 
ATOM      9  C   UNL     1      37.873 -24.037 -14.632  0.00  0.00    +0.044 C 
ATOM     10  C   UNL     1      36.454 -22.288 -13.562  0.00  0.00    +0.044 C 
ATOM     11  C   UNL     1      34.625 -22.030 -17.479  0.00  0.00    +0.037 C 
ATOM     12  C   UNL     1      32.418 -23.064 -15.943  0.00  0.00    +0.233 C 
ATOM     13  C   UNL     1      33.331 -21.779 -17.956  0.00  0.00    +0.045 C 
ATOM     14  C   UNL     1      32.175 -22.287 -17.201  0.00  0.00    +0.234 C 
ATOM     15  C   UNL     1      35.706 -21.529 -18.226  0.00  0.00    +0.003 C 
ATOM     16  C   UNL     1      33.115 -21.056 -19.135  0.00  0.00    +0.003 C 
ATOM     17  C   UNL     1      35.495 -20.806 -19.404  0.00  0.00    +0.000 C 
ATOM     18  C   UNL     1      34.200 -20.570 -19.857  0.00  0.00    +0.000 C 
ENDROOT
TORSDOF 0
ENDMDL
MODEL 2
REMARK VINA RESULT:      -9.8      1.844      3.821
REMARK  Name = 3885
REMARK  0 active torsions:
REMARK  status: ('A' for Active; 'I' for Inactive)
REMARK                            x       y       z     vdW  Elec       q    Type
REMARK                         _______ _______ _______ _____ _____    ______ ____
ROOT
ATOM      1  O   UNL     1      34.572 -22.986 -13.614  0.00  0.00    -0.483 OA
ATOM      2  O   UNL     1      34.659 -22.103 -18.312  0.00  0.00    -0.283 OA
ATOM      3  O   UNL     1      32.012 -22.167 -18.387  0.00  0.00    -0.283 OA
ATOM      4  C   UNL     1      35.993 -23.212 -13.552  0.00  0.00    +0.134 C 
ATOM      5  C   UNL     1      36.749 -22.294 -14.524  0.00  0.00    +0.045 C 
ATOM      6  C   UNL     1      36.229 -22.438 -15.949  0.00  0.00    +0.036 C 
ATOM      7  C   UNL     1      34.732 -22.519 -15.964  0.00  0.00    +0.054 C 
ATOM      8  C   UNL     1      34.008 -22.754 -14.856  0.00  0.00    +0.137 C 
ATOM      9  C   UNL     1      36.413 -22.878 -12.114  0.00  0.00    +0.044 C 
ATOM     10  C   UNL     1      36.270 -24.700 -13.812  0.00  0.00    +0.044 C 
ATOM     11  C   UNL     1      32.531 -22.791 -14.872  0.00  0.00    +0.037 C 
ATOM     12  C   UNL     1      34.058 -22.307 -17.267  0.00  0.00    +0.233 C 
ATOM     13  C   UNL     1      31.820 -22.593 -16.064  0.00  0.00    +0.045 C 
ATOM     14  C   UNL     1      32.560 -22.345 -17.311  0.00  0.00    +0.234 C 
ATOM     15  C   UNL     1      31.791 -23.025 -13.700  0.00  0.00    +0.003 C 
ATOM     16  C   UNL     1      30.420 -22.626 -16.093  0.00  0.00    +0.003 C 
ATOM     17  C   UNL     1      30.393 -23.059 -13.725  0.00  0.00    +0.000 C 
ATOM     18  C   UNL     1      29.709 -22.861 -14.920  0.00  0.00    +0.000 C 
ENDROOT
TORSDOF 0
ENDMDL
MODEL 3
REMARK VINA RESULT:      -9.8      6.354      9.152
REMARK  Name = 3885
REMARK  0 active torsions:
REMARK  status: ('A' for Active; 'I' for Inactive)
REMARK                            x       y       z     vdW  Elec       q    Type
REMARK                         _______ _______ _______ _____ _____    ______ ____
ROOT
ATOM      1  O   UNL     1      34.900 -17.363 -20.925  0.00  0.00    -0.483 OA
ATOM      2  O   UNL     1      33.713 -17.009 -25.543  0.00  0.00    -0.283 OA
ATOM      3  O   UNL     1      32.958 -14.497 -25.170  0.00  0.00    -0.283 OA
ATOM      4  C   UNL     1      35.088 -18.788 -21.003  0.00  0.00    +0.134 C 
ATOM      5  C   UNL     1      35.669 -19.204 -22.362  0.00  0.00    +0.045 C 
ATOM      6  C   UNL     1      34.812 -18.696 -23.516  0.00  0.00    +0.036 C 
ATOM      7  C   UNL     1      34.358 -17.290 -23.263  0.00  0.00    +0.054 C 
ATOM      8  C   UNL     1      34.437 -16.710 -22.053  0.00  0.00    +0.137 C 
ATOM      9  C   UNL     1      36.090 -19.146 -19.897  0.00  0.00    +0.044 C 
ATOM     10  C   UNL     1      33.751 -19.482 -20.698  0.00  0.00    +0.044 C 
ATOM     11  C   UNL     1      34.026 -15.310 -21.822  0.00  0.00    +0.037 C 
ATOM     12  C   UNL     1      33.824 -16.534 -24.422  0.00  0.00    +0.233 C 
ATOM     13  C   UNL     1      33.517 -14.527 -22.868  0.00  0.00    +0.045 C 
ATOM     14  C   UNL     1      33.395 -15.114 -24.211  0.00  0.00    +0.234 C 
ATOM     15  C   UNL     1      34.129 -14.715 -20.552  0.00  0.00    +0.003 C 
ATOM     16  C   UNL     1      33.123 -13.199 -22.662  0.00  0.00    +0.003 C 
ATOM     17  C   UNL     1      33.737 -13.390 -20.341  0.00  0.00    +0.000 C 
ATOM     18  C   UNL     1      33.234 -12.633 -21.395  0.00  0.00    +0.000 C 
ENDROOT
TORSDOF 0
ENDMDL
MODEL 4
REMARK VINA RESULT:      -9.6      1.867      4.084
REMARK  Name = 3885
REMARK  0 active torsions:
REMARK  status: ('A' for Active; 'I' for Inactive)
REMARK                            x       y       z     vdW  Elec       q    Type
REMARK                         _______ _______ _______ _____ _____    ______ ____
ROOT
ATOM      1  O   UNL     1      32.785 -23.397 -14.551  0.00  0.00    -0.483 OA
ATOM      2  O   UNL     1      32.058 -21.688 -18.956  0.00  0.00    -0.283 OA
ATOM      3  O   UNL     1      34.641 -21.145 -19.186  0.00  0.00    -0.283 OA
ATOM      4  C   UNL     1      31.375 -23.483 -14.268  0.00  0.00    +0.134 C 
ATOM      5  C   UNL     1      30.575 -23.869 -15.521  0.00  0.00    +0.045 C 
ATOM      6  C   UNL     1      30.849 -22.914 -16.676  0.00  0.00    +0.036 C 
ATOM      7  C   UNL     1      32.309 -22.583 -16.759  0.00  0.00    +0.054 C 
ATOM      8  C   UNL     1      33.169 -22.844 -15.759  0.00  0.00    +0.137 C 
ATOM      9  C   UNL     1      31.220 -24.586 -13.212  0.00  0.00    +0.044 C 
ATOM     10  C   UNL     1      30.909 -22.152 -13.660  0.00  0.00    +0.044 C 
ATOM     11  C   UNL     1      34.613 -22.554 -15.865  0.00  0.00    +0.037 C 
ATOM     12  C   UNL     1      32.791 -21.963 -18.017  0.00  0.00    +0.233 C 
ATOM     13  C   UNL     1      35.147 -21.973 -17.025  0.00  0.00    +0.045 C 
ATOM     14  C   UNL     1      34.251 -21.653 -18.146  0.00  0.00    +0.234 C 
ATOM     15  C   UNL     1      35.500 -22.846 -14.814  0.00  0.00    +0.003 C 
ATOM     16  C   UNL     1      36.514 -21.692 -17.138  0.00  0.00    +0.003 C 
ATOM     17  C   UNL     1      36.865 -22.566 -14.922  0.00  0.00    +0.000 C 
ATOM     18  C   UNL     1      37.371 -21.989 -16.083  0.00  0.00    +0.000 C 
ENDROOT
TORSDOF 0
ENDMDL
MODEL 5
REMARK VINA RESULT:      -9.5      1.978      4.511
REMARK  Name = 3885
REMARK  0 active torsions:
REMARK  status: ('A' for Active; 'I' for Inactive)
REMARK                            x       y       z     vdW  Elec       q    Type
REMARK                         _______ _______ _______ _____ _____    ______ ____
ROOT
ATOM      1  O   UNL     1      30.483 -22.443 -16.174  0.00  0.00    -0.483 OA
ATOM      2  O   UNL     1      34.423 -23.749 -13.801  0.00  0.00    -0.283 OA
ATOM      3  O   UNL     1      35.925 -22.975 -15.842  0.00  0.00    -0.283 OA
ATOM      4  C   UNL     1      29.607 -23.068 -15.218  0.00  0.00    +0.134 C 
ATOM      5  C   UNL     1      30.165 -22.959 -13.791  0.00  0.00    +0.045 C 
ATOM      6  C   UNL     1      31.577 -23.524 -13.698  0.00  0.00    +0.036 C 
ATOM      7  C   UNL     1      32.395 -23.113 -14.884  0.00  0.00    +0.054 C 
ATOM      8  C   UNL     1      31.846 -22.599 -15.999  0.00  0.00    +0.137 C 
ATOM      9  C   UNL     1      28.278 -22.305 -15.297  0.00  0.00    +0.044 C 
ATOM     10  C   UNL     1      29.364 -24.524 -15.644  0.00  0.00    +0.044 C 
ATOM     11  C   UNL     1      32.663 -22.156 -17.148  0.00  0.00    +0.037 C 
ATOM     12  C   UNL     1      33.865 -23.275 -14.781  0.00  0.00    +0.233 C 
ATOM     13  C   UNL     1      34.060 -22.272 -17.124  0.00  0.00    +0.045 C 
ATOM     14  C   UNL     1      34.715 -22.840 -15.936  0.00  0.00    +0.234 C 
ATOM     15  C   UNL     1      32.073 -21.609 -18.300  0.00  0.00    +0.003 C 
ATOM     16  C   UNL     1      34.846 -21.857 -18.206  0.00  0.00    +0.003 C 
ATOM     17  C   UNL     1      32.853 -21.194 -19.384  0.00  0.00    +0.000 C 
ATOM     18  C   UNL     1      34.238 -21.319 -19.337  0.00  0.00    +0.000 C 
ENDROOT
TORSDOF 0
ENDMDL
MODEL 6
REMARK VINA RESULT:      -9.0      2.241      4.170
REMARK  Name = 3885
REMARK  0 active torsions:
REMARK  status: ('A' for Active; 'I' for Inactive)
REMARK                            x       y       z     vdW  Elec       q    Type
REMARK                         _______ _______ _______ _____ _____    ______ ____
ROOT
ATOM      1  O   UNL     1      34.641 -23.546 -12.346  0.00  0.00    -0.483 OA
ATOM      2  O   UNL     1      36.809 -22.086 -16.349  0.00  0.00    -0.283 OA
ATOM      3  O   UNL     1      34.495 -22.138 -17.637  0.00  0.00    -0.283 OA
ATOM      4  C   UNL     1      35.887 -23.780 -11.664  0.00  0.00    +0.134 C 
ATOM      5  C   UNL     1      36.951 -22.749 -12.071  0.00  0.00    +0.045 C 
ATOM      6  C   UNL     1      37.146 -22.713 -13.582  0.00  0.00    +0.036 C 
ATOM      7  C   UNL     1      35.828 -22.791 -14.292  0.00  0.00    +0.054 C 
ATOM      8  C   UNL     1      34.693 -23.162 -13.673  0.00  0.00    +0.137 C 
ATOM      9  C   UNL     1      35.587 -23.628 -10.166  0.00  0.00    +0.044 C 
ATOM     10  C   UNL     1      36.337 -25.224 -11.931  0.00  0.00    +0.044 C 
ATOM     11  C   UNL     1      33.390 -23.194 -14.370  0.00  0.00    +0.037 C 
ATOM     12  C   UNL     1      35.811 -22.418 -15.726  0.00  0.00    +0.233 C 
ATOM     13  C   UNL     1      33.291 -22.849 -15.725  0.00  0.00    +0.045 C 
ATOM     14  C   UNL     1      34.502 -22.449 -16.457  0.00  0.00    +0.234 C 
ATOM     15  C   UNL     1      32.212 -23.572 -13.703  0.00  0.00    +0.003 C 
ATOM     16  C   UNL     1      32.063 -22.877 -16.397  0.00  0.00    +0.003 C 
ATOM     17  C   UNL     1      30.983 -23.602 -14.370  0.00  0.00    +0.000 C 
ATOM     18  C   UNL     1      30.909 -23.255 -15.716  0.00  0.00    +0.000 C 
ENDROOT
TORSDOF 0
ENDMDL
MODEL 7
REMARK VINA RESULT:      -9.0      2.329      5.780
REMARK  Name = 3885
REMARK  0 active torsions:
REMARK  status: ('A' for Active; 'I' for Inactive)
REMARK                            x       y       z     vdW  Elec       q    Type
REMARK                         _______ _______ _______ _____ _____    ______ ____
ROOT
ATOM      1  O   UNL     1      32.563 -23.803 -13.613  0.00  0.00    -0.483 OA
ATOM      2  O   UNL     1      35.491 -22.067 -16.971  0.00  0.00    -0.283 OA
ATOM      3  O   UNL     1      37.556 -22.349 -15.335  0.00  0.00    -0.283 OA
ATOM      4  C   UNL     1      31.379 -23.444 -14.350  0.00  0.00    +0.134 C 
ATOM      5  C   UNL     1      31.594 -23.598 -15.863  0.00  0.00    +0.045 C 
ATOM      6  C   UNL     1      32.803 -22.803 -16.340  0.00  0.00    +0.036 C 
ATOM      7  C   UNL     1      33.944 -22.939 -15.378  0.00  0.00    +0.054 C 
ATOM      8  C   UNL     1      33.788 -23.426 -14.134  0.00  0.00    +0.137 C 
ATOM      9  C   UNL     1      30.285 -24.419 -13.896  0.00  0.00    +0.044 C 
ATOM     10  C   UNL     1      30.963 -22.019 -13.957  0.00  0.00    +0.044 C 
ATOM     11  C   UNL     1      34.925 -23.596 -13.206  0.00  0.00    +0.037 C 
ATOM     12  C   UNL     1      35.285 -22.529 -15.858  0.00  0.00    +0.233 C 
ATOM     13  C   UNL     1      36.225 -23.237 -13.588  0.00  0.00    +0.045 C 
ATOM     14  C   UNL     1      36.454 -22.687 -14.932  0.00  0.00    +0.234 C 
ATOM     15  C   UNL     1      34.744 -24.119 -11.913  0.00  0.00    +0.003 C 
ATOM     16  C   UNL     1      37.311 -23.393 -12.717  0.00  0.00    +0.003 C 
ATOM     17  C   UNL     1      35.825 -24.276 -11.041  0.00  0.00    +0.000 C 
ATOM     18  C   UNL     1      37.107 -23.912 -11.443  0.00  0.00    +0.000 C 
ENDROOT
TORSDOF 0
ENDMDL
MODEL 8
REMARK VINA RESULT:      -8.8      1.423      1.908
REMARK  Name = 3885
REMARK  0 active torsions:
REMARK  status: ('A' for Active; 'I' for Inactive)
REMARK                            x       y       z     vdW  Elec       q    Type
REMARK                         _______ _______ _______ _____ _____    ______ ____
ROOT
ATOM      1  O   UNL     1      36.738 -23.174 -13.944  0.00  0.00    -0.483 OA
ATOM      2  O   UNL     1      32.046 -24.091 -13.902  0.00  0.00    -0.283 OA
ATOM      3  O   UNL     1      31.795 -22.986 -16.296  0.00  0.00    -0.283 OA
ATOM      4  C   UNL     1      36.898 -23.528 -12.558  0.00  0.00    +0.134 C 
ATOM      5  C   UNL     1      35.968 -24.685 -12.163  0.00  0.00    +0.045 C 
ATOM      6  C   UNL     1      34.514 -24.369 -12.488  0.00  0.00    +0.036 C 
ATOM      7  C   UNL     1      34.399 -23.702 -13.826  0.00  0.00    +0.054 C 
ATOM      8  C   UNL     1      35.459 -23.183 -14.469  0.00  0.00    +0.137 C 
ATOM      9  C   UNL     1      38.357 -23.978 -12.399  0.00  0.00    +0.044 C 
ATOM     10  C   UNL     1      36.675 -22.275 -11.697  0.00  0.00    +0.044 C 
ATOM     11  C   UNL     1      35.344 -22.565 -15.807  0.00  0.00    +0.037 C 
ATOM     12  C   UNL     1      33.051 -23.650 -14.441  0.00  0.00    +0.233 C 
ATOM     13  C   UNL     1      34.105 -22.484 -16.457  0.00  0.00    +0.045 C 
ATOM     14  C   UNL     1      32.908 -23.023 -15.795  0.00  0.00    +0.234 C 
ATOM     15  C   UNL     1      36.466 -22.039 -16.471  0.00  0.00    +0.003 C 
ATOM     16  C   UNL     1      33.982 -21.900 -17.724  0.00  0.00    +0.003 C 
ATOM     17  C   UNL     1      36.349 -21.455 -17.736  0.00  0.00    +0.000 C 
ATOM     18  C   UNL     1      35.108 -21.385 -18.361  0.00  0.00    +0.000 C 
ENDROOT
TORSDOF 0
ENDMDL
MODEL 9
REMARK VINA RESULT:      -8.8      1.387      4.730
REMARK  Name = 3885
REMARK  0 active torsions:
REMARK  status: ('A' for Active; 'I' for Inactive)
REMARK                            x       y       z     vdW  Elec       q    Type
REMARK                         _______ _______ _______ _____ _____    ______ ____
ROOT
ATOM      1  O   UNL     1      34.557 -22.162 -17.481  0.00  0.00    -0.483 OA
ATOM      2  O   UNL     1      30.897 -23.444 -14.684  0.00  0.00    -0.283 OA
ATOM      3  O   UNL     1      32.589 -24.155 -12.773  0.00  0.00    -0.283 OA
ATOM      4  C   UNL     1      33.716 -21.997 -18.637  0.00  0.00    +0.134 C 
ATOM      5  C   UNL     1      32.333 -21.451 -18.251  0.00  0.00    +0.045 C 
ATOM      6  C   UNL     1      31.661 -22.324 -17.199  0.00  0.00    +0.036 C 
ATOM      7  C   UNL     1      32.645 -22.754 -16.154  0.00  0.00    +0.054 C 
ATOM      8  C   UNL     1      33.974 -22.641 -16.321  0.00  0.00    +0.137 C 
ATOM      9  C   UNL     1      34.426 -20.976 -19.537  0.00  0.00    +0.044 C 
ATOM     10  C   UNL     1      33.631 -23.336 -19.385  0.00  0.00    +0.044 C 
ATOM     11  C   UNL     1      34.937 -23.027 -15.269  0.00  0.00    +0.037 C 
ATOM     12  C   UNL     1      32.094 -23.302 -14.891  0.00  0.00    +0.233 C 
ATOM     13  C   UNL     1      34.494 -23.547 -14.045  0.00  0.00    +0.045 C 
ATOM     14  C   UNL     1      33.050 -23.707 -13.811  0.00  0.00    +0.234 C 
ATOM     15  C   UNL     1      36.323 -22.889 -15.456  0.00  0.00    +0.003 C 
ATOM     16  C   UNL     1      35.395 -23.918 -13.039  0.00  0.00    +0.003 C 
ATOM     17  C   UNL     1      37.228 -23.258 -14.456  0.00  0.00    +0.000 C 
ATOM     18  C   UNL     1      36.763 -23.773 -13.249  0.00  0.00    +0.000 C 
ENDROOT
TORSDOF 0
ENDMDL
