MODEL 1
REMARK VINA RESULT:     -11.7      0.000      0.000
REMARK  Name = 70846
REMARK  1 active torsions:
REMARK  status: ('A' for Active; 'I' for Inactive)
REMARK    1  A    between atoms: C_3  and  C_13
REMARK                            x       y       z     vdW  Elec       q    Type
REMARK                         _______ _______ _______ _____ _____    ______ ____
ROOT
ATOM      1  O   UNL     1      34.374 -19.966 -23.836  0.00  0.00    -0.291 OA
ATOM      2  O   UNL     1      35.651 -16.986 -20.369  0.00  0.00    -0.291 OA
ATOM      3  C   UNL     1      35.179 -18.972 -21.738  0.00  0.00    +0.146 C 
ATOM      4  C   UNL     1      34.541 -18.997 -23.119  0.00  0.00    +0.184 C 
ATOM      5  C   UNL     1      35.185 -17.496 -21.372  0.00  0.00    +0.184 C 
ATOM      6  C   UNL     1      34.148 -17.630 -23.464  0.00  0.00    +0.038 C 
ATOM      7  C   UNL     1      34.523 -16.756 -22.447  0.00  0.00    +0.038 C 
ATOM      8  C   UNL     1      33.511 -17.184 -24.607  0.00  0.00    +0.003 C 
ATOM      9  C   UNL     1      34.276 -15.399 -22.529  0.00  0.00    +0.003 C 
ATOM     10  C   UNL     1      33.251 -15.815 -24.705  0.00  0.00    +0.000 C 
ATOM     11  C   UNL     1      33.630 -14.930 -23.676  0.00  0.00    +0.000 C 
ENDROOT
BRANCH   3  13
ATOM     12 CL   UNL     1      32.096 -22.259 -17.774  0.00  0.00    -0.082 Cl
ATOM     13  C   UNL     1      34.415 -19.787 -20.757  0.00  0.00    -0.008 C 
ATOM     14  C   UNL     1      33.025 -19.666 -20.674  0.00  0.00    -0.003 C 
ATOM     15  C   UNL     1      35.083 -20.677 -19.912  0.00  0.00    -0.003 C 
ATOM     16  C   UNL     1      32.309 -20.430 -19.752  0.00  0.00    +0.011 C 
ATOM     17  C   UNL     1      34.366 -21.441 -18.991  0.00  0.00    +0.011 C 
ATOM     18  C   UNL     1      32.980 -21.317 -18.912  0.00  0.00    +0.058 C 
ENDBRANCH   3  13
TORSDOF 1
ENDMDL
MODEL 2
REMARK VINA RESULT:     -11.4      2.877      5.924
REMARK  Name = 70846
REMARK  1 active torsions:
REMARK  status: ('A' for Active; 'I' for Inactive)
REMARK    1  A    between atoms: C_3  and  C_13
REMARK                            x       y       z     vdW  Elec       q    Type
REMARK                         _______ _______ _______ _____ _____    ______ ____
ROOT
ATOM      1  O   UNL     1      37.285 -17.961 -21.385  0.00  0.00    -0.291 OA
ATOM      2  O   UNL     1      32.871 -19.228 -22.584  0.00  0.00    -0.291 OA
ATOM      3  C   UNL     1      35.063 -18.129 -22.420  0.00  0.00    +0.146 C 
ATOM      4  C   UNL     1      36.170 -18.445 -21.425  0.00  0.00    +0.184 C 
ATOM      5  C   UNL     1      33.945 -19.084 -22.029  0.00  0.00    +0.184 C 
ATOM      6  C   UNL     1      35.669 -19.457 -20.493  0.00  0.00    +0.038 C 
ATOM      7  C   UNL     1      34.374 -19.829 -20.845  0.00  0.00    +0.038 C 
ATOM      8  C   UNL     1      36.318 -20.022 -19.412  0.00  0.00    +0.003 C 
ATOM      9  C   UNL     1      33.673 -20.781 -20.130  0.00  0.00    +0.003 C 
ATOM     10  C   UNL     1      35.623 -20.985 -18.676  0.00  0.00    +0.000 C 
ATOM     11  C   UNL     1      34.313 -21.360 -19.031  0.00  0.00    +0.000 C 
ENDROOT
BRANCH   3  13
ATOM     12 CL   UNL     1      33.329 -12.391 -22.111  0.00  0.00    -0.082 Cl
ATOM     13  C   UNL     1      34.634 -16.707 -22.343  0.00  0.00    -0.008 C 
ATOM     14  C   UNL     1      34.401 -16.111 -21.101  0.00  0.00    -0.003 C 
ATOM     15  C   UNL     1      34.463 -15.962 -23.513  0.00  0.00    -0.003 C 
ATOM     16  C   UNL     1      33.998 -14.776 -21.030  0.00  0.00    +0.011 C 
ATOM     17  C   UNL     1      34.060 -14.628 -23.440  0.00  0.00    +0.011 C 
ATOM     18  C   UNL     1      33.827 -14.037 -22.199  0.00  0.00    +0.058 C 
ENDBRANCH   3  13
TORSDOF 1
ENDMDL
MODEL 3
REMARK VINA RESULT:      -9.4      6.058      9.131
REMARK  Name = 70846
REMARK  1 active torsions:
REMARK  status: ('A' for Active; 'I' for Inactive)
REMARK    1  A    between atoms: C_3  and  C_13
REMARK                            x       y       z     vdW  Elec       q    Type
REMARK                         _______ _______ _______ _____ _____    ______ ____
ROOT
ATOM      1  O   UNL     1      32.692 -12.659 -25.026  0.00  0.00    -0.291 OA
ATOM      2  O   UNL     1      31.616 -11.920 -20.462  0.00  0.00    -0.291 OA
ATOM      3  C   UNL     1      31.873 -11.738 -22.900  0.00  0.00    +0.146 C 
ATOM      4  C   UNL     1      32.624 -12.697 -23.811  0.00  0.00    +0.184 C 
ATOM      5  C   UNL     1      32.082 -12.325 -21.512  0.00  0.00    +0.184 C 
ATOM      6  C   UNL     1      33.271 -13.709 -22.974  0.00  0.00    +0.038 C 
ATOM      7  C   UNL     1      32.955 -13.492 -21.636  0.00  0.00    +0.038 C 
ATOM      8  C   UNL     1      34.077 -14.760 -23.369  0.00  0.00    +0.003 C 
ATOM      9  C   UNL     1      33.433 -14.316 -20.635  0.00  0.00    +0.003 C 
ATOM     10  C   UNL     1      34.571 -15.602 -22.370  0.00  0.00    +0.000 C 
ATOM     11  C   UNL     1      34.252 -15.383 -21.016  0.00  0.00    +0.000 C 
ENDROOT
BRANCH   3  13
ATOM     12 CL   UNL     1      33.981  -6.133 -23.308  0.00  0.00    -0.082 Cl
ATOM     13  C   UNL     1      32.395 -10.350 -23.002  0.00  0.00    -0.008 C 
ATOM     14  C   UNL     1      33.693 -10.120 -23.468  0.00  0.00    -0.003 C 
ATOM     15  C   UNL     1      31.591  -9.268 -22.632  0.00  0.00    -0.003 C 
ATOM     16  C   UNL     1      34.182  -8.816 -23.563  0.00  0.00    +0.011 C 
ATOM     17  C   UNL     1      32.081  -7.966 -22.727  0.00  0.00    +0.011 C 
ATOM     18  C   UNL     1      33.376  -7.741 -23.192  0.00  0.00    +0.058 C 
ENDBRANCH   3  13
TORSDOF 1
ENDMDL
MODEL 4
REMARK VINA RESULT:      -9.2      3.281      6.963
REMARK  Name = 70846
REMARK  1 active torsions:
REMARK  status: ('A' for Active; 'I' for Inactive)
REMARK    1  A    between atoms: C_3  and  C_13
REMARK                            x       y       z     vdW  Elec       q    Type
REMARK                         _______ _______ _______ _____ _____    ______ ____
ROOT
ATOM      1  O   UNL     1      36.773 -21.323 -17.570  0.00  0.00    -0.291 OA
ATOM      2  O   UNL     1      32.781 -22.614 -19.788  0.00  0.00    -0.291 OA
ATOM      3  C   UNL     1      35.022 -21.771 -19.234  0.00  0.00    +0.146 C 
ATOM      4  C   UNL     1      35.639 -21.665 -17.847  0.00  0.00    +0.184 C 
ATOM      5  C   UNL     1      33.627 -22.316 -18.965  0.00  0.00    +0.184 C 
ATOM      6  C   UNL     1      34.625 -22.055 -16.865  0.00  0.00    +0.038 C 
ATOM      7  C   UNL     1      33.454 -22.434 -17.517  0.00  0.00    +0.038 C 
ATOM      8  C   UNL     1      34.732 -22.085 -15.488  0.00  0.00    +0.003 C 
ATOM      9  C   UNL     1      32.340 -22.858 -16.818  0.00  0.00    +0.003 C 
ATOM     10  C   UNL     1      33.614 -22.508 -14.765  0.00  0.00    +0.000 C 
ATOM     11  C   UNL     1      32.429 -22.891 -15.423  0.00  0.00    +0.000 C 
ENDROOT
BRANCH   3  13
ATOM     12 CL   UNL     1      34.862 -16.466 -22.036  0.00  0.00    -0.082 Cl
ATOM     13  C   UNL     1      34.982 -20.456 -19.927  0.00  0.00    -0.008 C 
ATOM     14  C   UNL     1      33.762 -19.921 -20.348  0.00  0.00    -0.003 C 
ATOM     15  C   UNL     1      36.165 -19.750 -20.161  0.00  0.00    -0.003 C 
ATOM     16  C   UNL     1      33.725 -18.687 -20.999  0.00  0.00    +0.011 C 
ATOM     17  C   UNL     1      36.127 -18.517 -20.813  0.00  0.00    +0.011 C 
ATOM     18  C   UNL     1      34.908 -17.987 -21.231  0.00  0.00    +0.058 C 
ENDBRANCH   3  13
TORSDOF 1
ENDMDL
MODEL 5
REMARK VINA RESULT:      -8.9      3.714      6.274
REMARK  Name = 70846
REMARK  1 active torsions:
REMARK  status: ('A' for Active; 'I' for Inactive)
REMARK    1  A    between atoms: C_3  and  C_13
REMARK                            x       y       z     vdW  Elec       q    Type
REMARK                         _______ _______ _______ _____ _____    ______ ____
ROOT
ATOM      1  O   UNL     1      34.883 -15.988 -20.597  0.00  0.00    -0.291 OA
ATOM      2  O   UNL     1      34.036 -14.995 -25.160  0.00  0.00    -0.291 OA
ATOM      3  C   UNL     1      34.512 -14.869 -22.752  0.00  0.00    +0.146 C 
ATOM      4  C   UNL     1      34.573 -16.031 -21.773  0.00  0.00    +0.184 C 
ATOM      5  C   UNL     1      34.146 -15.531 -24.072  0.00  0.00    +0.184 C 
ATOM      6  C   UNL     1      34.190 -17.250 -22.488  0.00  0.00    +0.038 C 
ATOM      7  C   UNL     1      33.941 -16.959 -23.826  0.00  0.00    +0.038 C 
ATOM      8  C   UNL     1      34.079 -18.535 -21.992  0.00  0.00    +0.003 C 
ATOM      9  C   UNL     1      33.571 -17.939 -24.726  0.00  0.00    +0.003 C 
ATOM     10  C   UNL     1      33.702 -19.540 -22.887  0.00  0.00    +0.000 C 
ATOM     11  C   UNL     1      33.451 -19.245 -24.241  0.00  0.00    +0.000 C 
ENDROOT
BRANCH   3  13
ATOM     12 CL   UNL     1      30.473 -10.747 -21.102  0.00  0.00    -0.082 Cl
ATOM     13  C   UNL     1      33.511 -13.848 -22.344  0.00  0.00    -0.008 C 
ATOM     14  C   UNL     1      33.178 -12.805 -23.212  0.00  0.00    -0.003 C 
ATOM     15  C   UNL     1      32.899 -13.927 -21.090  0.00  0.00    -0.003 C 
ATOM     16  C   UNL     1      32.238 -11.847 -22.828  0.00  0.00    +0.011 C 
ATOM     17  C   UNL     1      31.960 -12.969 -20.707  0.00  0.00    +0.011 C 
ATOM     18  C   UNL     1      31.631 -11.930 -21.576  0.00  0.00    +0.058 C 
ENDBRANCH   3  13
TORSDOF 1
ENDMDL
MODEL 6
REMARK VINA RESULT:      -8.9      6.948      9.447
REMARK  Name = 70846
REMARK  1 active torsions:
REMARK  status: ('A' for Active; 'I' for Inactive)
REMARK    1  A    between atoms: C_3  and  C_13
REMARK                            x       y       z     vdW  Elec       q    Type
REMARK                         _______ _______ _______ _____ _____    ______ ____
ROOT
ATOM      1  O   UNL     1      30.599  -9.768 -19.323  0.00  0.00    -0.291 OA
ATOM      2  O   UNL     1      31.680  -9.391 -23.929  0.00  0.00    -0.291 OA
ATOM      3  C   UNL     1      30.990 -10.194 -21.711  0.00  0.00    +0.146 C 
ATOM      4  C   UNL     1      31.011  -9.407 -20.410  0.00  0.00    +0.184 C 
ATOM      5  C   UNL     1      31.555  -9.217 -22.731  0.00  0.00    +0.184 C 
ATOM      6  C   UNL     1      31.620  -8.102 -20.676  0.00  0.00    +0.038 C 
ATOM      7  C   UNL     1      31.937  -7.992 -22.027  0.00  0.00    +0.038 C 
ATOM      8  C   UNL     1      31.869  -7.075 -19.785  0.00  0.00    +0.003 C 
ATOM      9  C   UNL     1      32.517  -6.850 -22.546  0.00  0.00    +0.003 C 
ATOM     10  C   UNL     1      32.457  -5.913 -20.292  0.00  0.00    +0.000 C 
ATOM     11  C   UNL     1      32.778  -5.802 -21.659  0.00  0.00    +0.000 C 
ENDROOT
BRANCH   3  13
ATOM     12 CL   UNL     1      34.254 -15.218 -21.356  0.00  0.00    -0.082 Cl
ATOM     13  C   UNL     1      31.799 -11.438 -21.623  0.00  0.00    -0.008 C 
ATOM     14  C   UNL     1      32.804 -11.689 -22.560  0.00  0.00    -0.003 C 
ATOM     15  C   UNL     1      31.557 -12.361 -20.603  0.00  0.00    -0.003 C 
ATOM     16  C   UNL     1      33.563 -12.858 -22.477  0.00  0.00    +0.011 C 
ATOM     17  C   UNL     1      32.316 -13.529 -20.520  0.00  0.00    +0.011 C 
ATOM     18  C   UNL     1      33.318 -13.776 -21.458  0.00  0.00    +0.058 C 
ENDBRANCH   3  13
TORSDOF 1
ENDMDL
MODEL 7
REMARK VINA RESULT:      -8.8      5.692      8.348
REMARK  Name = 70846
REMARK  1 active torsions:
REMARK  status: ('A' for Active; 'I' for Inactive)
REMARK    1  A    between atoms: C_3  and  C_13
REMARK                            x       y       z     vdW  Elec       q    Type
REMARK                         _______ _______ _______ _____ _____    ______ ____
ROOT
ATOM      1  O   UNL     1      37.529 -20.668 -16.402  0.00  0.00    -0.291 OA
ATOM      2  O   UNL     1      34.226 -23.427 -14.400  0.00  0.00    -0.291 OA
ATOM      3  C   UNL     1      36.252 -22.125 -14.890  0.00  0.00    +0.146 C 
ATOM      4  C   UNL     1      36.566 -21.378 -16.178  0.00  0.00    +0.184 C 
ATOM      5  C   UNL     1      34.902 -22.769 -15.169  0.00  0.00    +0.184 C 
ATOM      6  C   UNL     1      35.495 -21.654 -17.138  0.00  0.00    +0.038 C 
ATOM      7  C   UNL     1      34.527 -22.463 -16.550  0.00  0.00    +0.038 C 
ATOM      8  C   UNL     1      35.377 -21.209 -18.441  0.00  0.00    +0.003 C 
ATOM      9  C   UNL     1      33.399 -22.863 -17.240  0.00  0.00    +0.003 C 
ATOM     10  C   UNL     1      34.244 -21.607 -19.155  0.00  0.00    +0.000 C 
ATOM     11  C   UNL     1      33.264 -22.426 -18.561  0.00  0.00    +0.000 C 
ENDROOT
BRANCH   3  13
ATOM     12 CL   UNL     1      40.461 -26.194 -13.566  0.00  0.00    -0.082 Cl
ATOM     13  C   UNL     1      37.294 -23.133 -14.562  0.00  0.00    -0.008 C 
ATOM     14  C   UNL     1      37.276 -23.785 -13.326  0.00  0.00    -0.003 C 
ATOM     15  C   UNL     1      38.295 -23.434 -15.489  0.00  0.00    -0.003 C 
ATOM     16  C   UNL     1      38.256 -24.731 -13.019  0.00  0.00    +0.011 C 
ATOM     17  C   UNL     1      39.273 -24.380 -15.181  0.00  0.00    +0.011 C 
ATOM     18  C   UNL     1      39.253 -25.028 -13.946  0.00  0.00    +0.058 C 
ENDBRANCH   3  13
TORSDOF 1
ENDMDL
