MODEL 1
REMARK VINA RESULT:     -11.4      0.000      0.000
REMARK  Name = 24779678
REMARK  5 active torsions:
REMARK  status: ('A' for Active; 'I' for Inactive)
REMARK    1  A    between atoms: N_1  and  C_22
REMARK    2  A    between atoms: N_6  and  C_14
REMARK    3  A    between atoms: C_10  and  C_21
REMARK    4  A    between atoms: C_22  and  C_23
REMARK    5  A    between atoms: C_23  and  C_26
REMARK                            x       y       z     vdW  Elec       q    Type
REMARK                         _______ _______ _______ _____ _____    ______ ____
ROOT
ATOM      1  N   UNL     1      32.434 -21.736 -18.454  0.00  0.00    -0.294 N 
ATOM      2  N   UNL     1      31.682 -22.620 -16.399  0.00  0.00    -0.123 N 
ATOM      3  N   UNL     1      33.914 -22.727 -16.891  0.00  0.00    -0.295 NA
ATOM      4  N   UNL     1      33.117 -23.611 -14.819  0.00  0.00    -0.314 NA
ATOM      5  N   UNL     1      30.402 -22.297 -16.655  0.00  0.00    -0.170 NA
ATOM      6  N   UNL     1      35.379 -23.718 -15.326  0.00  0.00    -0.238 N 
ATOM      7  C   UNL     1      32.726 -22.358 -17.271  0.00  0.00    +0.276 C 
ATOM      8  C   UNL     1      31.874 -23.235 -15.195  0.00  0.00    +0.219 C 
ATOM      9  C   UNL     1      34.096 -23.355 -15.660  0.00  0.00    +0.207 C 
ATOM     10  C   UNL     1      30.626 -23.318 -14.622  0.00  0.00    +0.203 C 
ATOM     11  C   UNL     1      29.760 -22.727 -15.564  0.00  0.00    +0.116 C 
ATOM     12  H   UNL     1      31.500 -21.497 -18.647  0.00  0.00    +0.150 HD
ATOM     13  H   UNL     1      35.982 -23.944 -16.070  0.00  0.00    +0.166 HD
ENDROOT
BRANCH   6  14
ATOM     14  C   UNL     1      35.914 -23.800 -14.043  0.00  0.00    +0.058 C 
ATOM     15  C   UNL     1      36.271 -25.040 -13.514  0.00  0.00    +0.015 C 
ATOM     16  C   UNL     1      36.095 -22.642 -13.287  0.00  0.00    +0.015 C 
ATOM     17  C   UNL     1      36.808 -25.122 -12.229  0.00  0.00    +0.001 C 
ATOM     18  C   UNL     1      36.632 -22.724 -12.003  0.00  0.00    +0.001 C 
ATOM     19  C   UNL     1      36.987 -23.964 -11.473  0.00  0.00    +0.000 C 
ENDBRANCH   6  14
BRANCH  10  21
ATOM     20  N   UNL     1      30.048 -24.343 -12.324  0.00  0.00    -0.195 NA
ATOM     21  C   UNL     1      30.307 -23.882 -13.357  0.00  0.00    +0.087 C 
ENDBRANCH  10  21
BRANCH   1  22
ATOM     22  C   UNL     1      33.442 -21.420 -19.421  0.00  0.00    +0.096 C 
BRANCH  22  23
ATOM     23  C   UNL     1      33.064 -20.170 -20.214  0.00  0.00    +0.063 C 
BRANCH  23  26
ATOM     24  N   UNL     1      35.472 -19.413 -20.178  0.00  0.00    -0.319 N 
ATOM     25  N   UNL     1      35.718 -18.278 -22.071  0.00  0.00    -0.315 N 
ATOM     26  C   UNL     1      34.258 -19.458 -20.802  0.00  0.00    +0.039 C 
ATOM     27  C   UNL     1      34.434 -18.750 -21.968  0.00  0.00    +0.069 C 
ATOM     28  C   UNL     1      36.317 -18.694 -20.978  0.00  0.00    +0.182 C 
ATOM     29  H   UNL     1      35.698 -19.822 -19.312  0.00  0.00    +0.148 HD
ATOM     30  H   UNL     1      36.106 -17.745 -22.803  0.00  0.00    +0.148 HD
ENDBRANCH  23  26
ENDBRANCH  22  23
ENDBRANCH   1  22
TORSDOF 5
ENDMDL
MODEL 2
REMARK VINA RESULT:     -11.1      2.053      7.093
REMARK  Name = 24779678
REMARK  5 active torsions:
REMARK  status: ('A' for Active; 'I' for Inactive)
REMARK    1  A    between atoms: N_1  and  C_22
REMARK    2  A    between atoms: N_6  and  C_14
REMARK    3  A    between atoms: C_10  and  C_21
REMARK    4  A    between atoms: C_22  and  C_23
REMARK    5  A    between atoms: C_23  and  C_26
REMARK                            x       y       z     vdW  Elec       q    Type
REMARK                         _______ _______ _______ _____ _____    ______ ____
ROOT
ATOM      1  N   UNL     1      31.470 -23.862 -13.692  0.00  0.00    -0.294 N 
ATOM      2  N   UNL     1      33.720 -23.507 -14.311  0.00  0.00    -0.123 N 
ATOM      3  N   UNL     1      32.083 -23.163 -15.872  0.00  0.00    -0.295 NA
ATOM      4  N   UNL     1      34.371 -22.812 -16.462  0.00  0.00    -0.314 NA
ATOM      5  N   UNL     1      34.176 -23.840 -13.089  0.00  0.00    -0.170 NA
ATOM      6  N   UNL     1      32.706 -22.466 -18.041  0.00  0.00    -0.238 N 
ATOM      7  C   UNL     1      32.378 -23.506 -14.652  0.00  0.00    +0.276 C 
ATOM      8  C   UNL     1      34.699 -23.166 -15.200  0.00  0.00    +0.219 C 
ATOM      9  C   UNL     1      33.092 -22.818 -16.769  0.00  0.00    +0.207 C 
ATOM     10  C   UNL     1      35.882 -23.284 -14.506  0.00  0.00    +0.203 C 
ATOM     11  C   UNL     1      35.499 -23.701 -13.216  0.00  0.00    +0.116 C 
ATOM     12  H   UNL     1      31.796 -24.106 -12.797  0.00  0.00    +0.150 HD
ATOM     13  H   UNL     1      31.885 -22.886 -18.385  0.00  0.00    +0.166 HD
ENDROOT
BRANCH   6  14
ATOM     14  C   UNL     1      33.357 -21.578 -18.893  0.00  0.00    +0.058 C 
ATOM     15  C   UNL     1      34.747 -21.612 -19.006  0.00  0.00    +0.015 C 
ATOM     16  C   UNL     1      32.620 -20.657 -19.636  0.00  0.00    +0.015 C 
ATOM     17  C   UNL     1      35.399 -20.724 -19.861  0.00  0.00    +0.001 C 
ATOM     18  C   UNL     1      33.272 -19.769 -20.491  0.00  0.00    +0.001 C 
ATOM     19  C   UNL     1      34.662 -19.802 -20.603  0.00  0.00    +0.000 C 
ENDBRANCH   6  14
BRANCH  10  21
ATOM     20  N   UNL     1      38.255 -22.832 -15.414  0.00  0.00    -0.195 NA
ATOM     21  C   UNL     1      37.188 -23.035 -15.005  0.00  0.00    +0.087 C 
ENDBRANCH  10  21
BRANCH   1  22
ATOM     22  C   UNL     1      30.061 -23.891 -13.945  0.00  0.00    +0.096 C 
BRANCH  22  23
ATOM     23  C   UNL     1      29.526 -22.484 -14.214  0.00  0.00    +0.063 C 
BRANCH  23  26
ATOM     24  N   UNL     1      27.402 -21.653 -15.296  0.00  0.00    -0.319 N 
ATOM     25  N   UNL     1      27.331 -22.712 -17.247  0.00  0.00    -0.315 N 
ATOM     26  C   UNL     1      28.521 -22.437 -15.337  0.00  0.00    +0.039 C 
ATOM     27  C   UNL     1      28.454 -23.082 -16.550  0.00  0.00    +0.069 C 
ATOM     28  C   UNL     1      26.719 -21.852 -16.463  0.00  0.00    +0.182 C 
ATOM     29  H   UNL     1      27.137 -21.055 -14.560  0.00  0.00    +0.148 HD
ATOM     30  H   UNL     1      27.046 -23.023 -18.136  0.00  0.00    +0.148 HD
ENDBRANCH  23  26
ENDBRANCH  22  23
ENDBRANCH   1  22
TORSDOF 5
ENDMDL
MODEL 3
REMARK VINA RESULT:     -10.3      2.377      7.477
REMARK  Name = 24779678
REMARK  5 active torsions:
REMARK  status: ('A' for Active; 'I' for Inactive)
REMARK    1  A    between atoms: N_1  and  C_22
REMARK    2  A    between atoms: N_6  and  C_14
REMARK    3  A    between atoms: C_10  and  C_21
REMARK    4  A    between atoms: C_22  and  C_23
REMARK    5  A    between atoms: C_23  and  C_26
REMARK                            x       y       z     vdW  Elec       q    Type
REMARK                         _______ _______ _______ _____ _____    ______ ____
ROOT
ATOM      1  N   UNL     1      36.560 -22.424 -13.200  0.00  0.00    -0.294 N 
ATOM      2  N   UNL     1      35.452 -22.314 -15.282  0.00  0.00    -0.123 N 
ATOM      3  N   UNL     1      34.360 -23.250 -13.502  0.00  0.00    -0.295 NA
ATOM      4  N   UNL     1      33.268 -23.122 -15.623  0.00  0.00    -0.314 NA
ATOM      5  N   UNL     1      36.499 -21.720 -15.881  0.00  0.00    -0.170 NA
ATOM      6  N   UNL     1      32.167 -24.071 -13.813  0.00  0.00    -0.238 N 
ATOM      7  C   UNL     1      35.442 -22.682 -13.946  0.00  0.00    +0.276 C 
ATOM      8  C   UNL     1      34.384 -22.530 -16.105  0.00  0.00    +0.219 C 
ATOM      9  C   UNL     1      33.277 -23.465 -14.353  0.00  0.00    +0.207 C 
ATOM     10  C   UNL     1      34.762 -22.038 -17.334  0.00  0.00    +0.203 C 
ATOM     11  C   UNL     1      36.070 -21.553 -17.136  0.00  0.00    +0.116 C 
ATOM     12  H   UNL     1      37.329 -21.989 -13.633  0.00  0.00    +0.150 HD
ATOM     13  H   UNL     1      32.323 -24.699 -13.073  0.00  0.00    +0.166 HD
ENDROOT
BRANCH   6  14
ATOM     14  C   UNL     1      30.845 -23.888 -14.208  0.00  0.00    +0.058 C 
ATOM     15  C   UNL     1      30.393 -22.618 -14.566  0.00  0.00    +0.015 C 
ATOM     16  C   UNL     1      29.972 -24.975 -14.248  0.00  0.00    +0.015 C 
ATOM     17  C   UNL     1      29.069 -22.434 -14.962  0.00  0.00    +0.001 C 
ATOM     18  C   UNL     1      28.647 -24.791 -14.645  0.00  0.00    +0.001 C 
ATOM     19  C   UNL     1      28.195 -23.521 -15.001  0.00  0.00    +0.000 C 
ENDBRANCH   6  14
BRANCH  10  21
ATOM     20  N   UNL     1      33.350 -22.031 -19.495  0.00  0.00    -0.195 NA
ATOM     21  C   UNL     1      33.985 -22.033 -18.523  0.00  0.00    +0.087 C 
ENDBRANCH  10  21
BRANCH   1  22
ATOM     22  C   UNL     1      36.649 -22.763 -11.813  0.00  0.00    +0.096 C 
BRANCH  22  23
ATOM     23  C   UNL     1      37.692 -23.857 -11.584  0.00  0.00    +0.063 C 
BRANCH  23  26
ATOM     24  N   UNL     1      36.503 -25.770 -12.724  0.00  0.00    -0.319 N 
ATOM     25  N   UNL     1      37.962 -26.504 -14.229  0.00  0.00    -0.315 N 
ATOM     26  C   UNL     1      37.607 -24.977 -12.592  0.00  0.00    +0.039 C 
ATOM     27  C   UNL     1      38.495 -25.449 -13.531  0.00  0.00    +0.069 C 
ATOM     28  C   UNL     1      36.763 -26.672 -13.718  0.00  0.00    +0.182 C 
ATOM     29  H   UNL     1      35.672 -25.706 -12.200  0.00  0.00    +0.148 HD
ATOM     30  H   UNL     1      38.386 -27.021 -14.951  0.00  0.00    +0.148 HD
ENDBRANCH  23  26
ENDBRANCH  22  23
ENDBRANCH   1  22
TORSDOF 5
ENDMDL
MODEL 4
REMARK VINA RESULT:     -10.0      1.919      5.129
REMARK  Name = 24779678
REMARK  5 active torsions:
REMARK  status: ('A' for Active; 'I' for Inactive)
REMARK    1  A    between atoms: N_1  and  C_22
REMARK    2  A    between atoms: N_6  and  C_14
REMARK    3  A    between atoms: C_10  and  C_21
REMARK    4  A    between atoms: C_22  and  C_23
REMARK    5  A    between atoms: C_23  and  C_26
REMARK                            x       y       z     vdW  Elec       q    Type
REMARK                         _______ _______ _______ _____ _____    ______ ____
ROOT
ATOM      1  N   UNL     1      36.967 -21.436 -16.958  0.00  0.00    -0.294 N 
ATOM      2  N   UNL     1      36.747 -22.940 -15.151  0.00  0.00    -0.123 N 
ATOM      3  N   UNL     1      34.875 -21.881 -15.936  0.00  0.00    -0.295 NA
ATOM      4  N   UNL     1      34.690 -23.410 -14.109  0.00  0.00    -0.314 NA
ATOM      5  N   UNL     1      38.062 -23.220 -15.140  0.00  0.00    -0.170 NA
ATOM      6  N   UNL     1      32.797 -22.332 -14.909  0.00  0.00    -0.238 N 
ATOM      7  C   UNL     1      36.160 -22.055 -16.042  0.00  0.00    +0.276 C 
ATOM      8  C   UNL     1      36.024 -23.605 -14.203  0.00  0.00    +0.219 C 
ATOM      9  C   UNL     1      34.151 -22.566 -14.962  0.00  0.00    +0.207 C 
ATOM     10  C   UNL     1      36.937 -24.378 -13.522  0.00  0.00    +0.203 C 
ATOM     11  C   UNL     1      38.172 -24.100 -14.141  0.00  0.00    +0.116 C 
ATOM     12  H   UNL     1      37.929 -21.637 -16.955  0.00  0.00    +0.150 HD
ATOM     13  H   UNL     1      32.492 -21.440 -15.191  0.00  0.00    +0.166 HD
ENDROOT
BRANCH   6  14
ATOM     14  C   UNL     1      31.813 -23.226 -14.496  0.00  0.00    +0.058 C 
ATOM     15  C   UNL     1      30.764 -23.555 -15.354  0.00  0.00    +0.015 C 
ATOM     16  C   UNL     1      31.877 -23.795 -13.224  0.00  0.00    +0.015 C 
ATOM     17  C   UNL     1      29.779 -24.451 -14.941  0.00  0.00    +0.001 C 
ATOM     18  C   UNL     1      30.892 -24.691 -12.811  0.00  0.00    +0.001 C 
ATOM     19  C   UNL     1      29.843 -25.019 -13.669  0.00  0.00    +0.000 C 
ENDBRANCH   6  14
BRANCH  10  21
ATOM     20  N   UNL     1      36.448 -25.970 -11.550  0.00  0.00    -0.195 NA
ATOM     21  C   UNL     1      36.667 -25.255 -12.437  0.00  0.00    +0.087 C 
ENDBRANCH  10  21
BRANCH   1  22
ATOM     22  C   UNL     1      36.458 -20.507 -17.921  0.00  0.00    +0.096 C 
BRANCH  22  23
ATOM     23  C   UNL     1      35.967 -21.234 -19.173  0.00  0.00    +0.063 C 
BRANCH  23  26
ATOM     24  N   UNL     1      33.902 -20.038 -19.998  0.00  0.00    -0.319 N 
ATOM     25  N   UNL     1      32.230 -21.395 -19.457  0.00  0.00    -0.315 N 
ATOM     26  C   UNL     1      34.478 -21.114 -19.383  0.00  0.00    +0.039 C 
ATOM     27  C   UNL     1      33.425 -21.937 -19.057  0.00  0.00    +0.069 C 
ATOM     28  C   UNL     1      32.552 -20.252 -20.020  0.00  0.00    +0.182 C 
ATOM     29  H   UNL     1      34.373 -19.253 -20.360  0.00  0.00    +0.148 HD
ATOM     30  H   UNL     1      31.330 -21.778 -19.346  0.00  0.00    +0.148 HD
ENDBRANCH  23  26
ENDBRANCH  22  23
ENDBRANCH   1  22
TORSDOF 5
ENDMDL
MODEL 5
REMARK VINA RESULT:     -10.0      1.532      4.554
REMARK  Name = 24779678
REMARK  5 active torsions:
REMARK  status: ('A' for Active; 'I' for Inactive)
REMARK    1  A    between atoms: N_1  and  C_22
REMARK    2  A    between atoms: N_6  and  C_14
REMARK    3  A    between atoms: C_10  and  C_21
REMARK    4  A    between atoms: C_22  and  C_23
REMARK    5  A    between atoms: C_23  and  C_26
REMARK                            x       y       z     vdW  Elec       q    Type
REMARK                         _______ _______ _______ _____ _____    ______ ____
ROOT
ATOM      1  N   UNL     1      34.988 -21.663 -18.932  0.00  0.00    -0.294 N 
ATOM      2  N   UNL     1      35.179 -22.181 -16.637  0.00  0.00    -0.123 N 
ATOM      3  N   UNL     1      33.096 -22.131 -17.584  0.00  0.00    -0.295 NA
ATOM      4  N   UNL     1      33.328 -22.652 -15.263  0.00  0.00    -0.314 NA
ATOM      5  N   UNL     1      36.519 -22.066 -16.656  0.00  0.00    -0.170 NA
ATOM      6  N   UNL     1      31.218 -22.599 -16.230  0.00  0.00    -0.238 N 
ATOM      7  C   UNL     1      34.379 -21.988 -17.751  0.00  0.00    +0.276 C 
ATOM      8  C   UNL     1      34.663 -22.508 -15.416  0.00  0.00    +0.219 C 
ATOM      9  C   UNL     1      32.583 -22.465 -16.331  0.00  0.00    +0.207 C 
ATOM     10  C   UNL     1      35.748 -22.615 -14.575  0.00  0.00    +0.203 C 
ATOM     11  C   UNL     1      36.861 -22.333 -15.392  0.00  0.00    +0.116 C 
ATOM     12  H   UNL     1      35.968 -21.578 -18.953  0.00  0.00    +0.150 HD
ATOM     13  H   UNL     1      30.674 -22.049 -16.838  0.00  0.00    +0.166 HD
ENDROOT
BRANCH   6  14
ATOM     14  C   UNL     1      30.527 -23.433 -15.355  0.00  0.00    +0.058 C 
ATOM     15  C   UNL     1      31.119 -23.831 -14.157  0.00  0.00    +0.015 C 
ATOM     16  C   UNL     1      29.241 -23.867 -15.675  0.00  0.00    +0.015 C 
ATOM     17  C   UNL     1      30.426 -24.665 -13.280  0.00  0.00    +0.001 C 
ATOM     18  C   UNL     1      28.548 -24.701 -14.798  0.00  0.00    +0.001 C 
ATOM     19  C   UNL     1      29.141 -25.101 -13.601  0.00  0.00    +0.000 C 
ENDBRANCH   6  14
BRANCH  10  21
ATOM     20  N   UNL     1      35.701 -23.205 -12.063  0.00  0.00    -0.195 NA
ATOM     21  C   UNL     1      35.723 -22.940 -13.192  0.00  0.00    +0.087 C 
ENDBRANCH  10  21
BRANCH   1  22
ATOM     22  C   UNL     1      34.250 -21.446 -20.139  0.00  0.00    +0.096 C 
BRANCH  22  23
ATOM     23  C   UNL     1      33.780 -19.995 -20.237  0.00  0.00    +0.063 C 
BRANCH  23  26
ATOM     24  N   UNL     1      35.985 -18.842 -20.664  0.00  0.00    -0.319 N 
ATOM     25  N   UNL     1      35.686 -17.787 -22.596  0.00  0.00    -0.315 N 
ATOM     26  C   UNL     1      34.705 -19.125 -21.051  0.00  0.00    +0.039 C 
ATOM     27  C   UNL     1      34.543 -18.462 -22.245  0.00  0.00    +0.069 C 
ATOM     28  C   UNL     1      36.534 -18.036 -21.623  0.00  0.00    +0.182 C 
ATOM     29  H   UNL     1      36.430 -19.159 -19.846  0.00  0.00    +0.148 HD
ATOM     30  H   UNL     1      35.837 -17.237 -23.398  0.00  0.00    +0.148 HD
ENDBRANCH  23  26
ENDBRANCH  22  23
ENDBRANCH   1  22
TORSDOF 5
ENDMDL
MODEL 6
REMARK VINA RESULT:      -9.5      1.983      7.667
REMARK  Name = 24779678
REMARK  5 active torsions:
REMARK  status: ('A' for Active; 'I' for Inactive)
REMARK    1  A    between atoms: N_1  and  C_22
REMARK    2  A    between atoms: N_6  and  C_14
REMARK    3  A    between atoms: C_10  and  C_21
REMARK    4  A    between atoms: C_22  and  C_23
REMARK    5  A    between atoms: C_23  and  C_26
REMARK                            x       y       z     vdW  Elec       q    Type
REMARK                         _______ _______ _______ _____ _____    ______ ____
ROOT
ATOM      1  N   UNL     1      31.001 -22.806 -16.258  0.00  0.00    -0.294 N 
ATOM      2  N   UNL     1      33.350 -22.575 -16.223  0.00  0.00    -0.123 N 
ATOM      3  N   UNL     1      32.206 -21.908 -18.090  0.00  0.00    -0.295 NA
ATOM      4  N   UNL     1      34.584 -21.688 -18.019  0.00  0.00    -0.314 NA
ATOM      5  N   UNL     1      33.447 -23.088 -14.984  0.00  0.00    -0.170 NA
ATOM      6  N   UNL     1      33.418 -21.015 -19.910  0.00  0.00    -0.238 N 
ATOM      7  C   UNL     1      32.149 -22.418 -16.895  0.00  0.00    +0.276 C 
ATOM      8  C   UNL     1      34.546 -22.216 -16.776  0.00  0.00    +0.219 C 
ATOM      9  C   UNL     1      33.434 -21.547 -18.642  0.00  0.00    +0.207 C 
ATOM     10  C   UNL     1      35.495 -22.516 -15.825  0.00  0.00    +0.203 C 
ATOM     11  C   UNL     1      34.762 -23.050 -14.746  0.00  0.00    +0.116 C 
ATOM     12  H   UNL     1      31.066 -23.182 -15.351  0.00  0.00    +0.150 HD
ATOM     13  H   UNL     1      32.697 -21.318 -20.507  0.00  0.00    +0.166 HD
ENDROOT
BRANCH   6  14
ATOM     14  C   UNL     1      34.317 -20.091 -20.436  0.00  0.00    +0.058 C 
ATOM     15  C   UNL     1      33.908 -19.214 -21.441  0.00  0.00    +0.015 C 
ATOM     16  C   UNL     1      35.626 -20.040 -19.958  0.00  0.00    +0.015 C 
ATOM     17  C   UNL     1      34.808 -18.288 -21.968  0.00  0.00    +0.001 C 
ATOM     18  C   UNL     1      36.526 -19.114 -20.484  0.00  0.00    +0.001 C 
ATOM     19  C   UNL     1      36.117 -18.239 -21.490  0.00  0.00    +0.000 C 
ENDBRANCH   6  14
BRANCH  10  21
ATOM     20  N   UNL     1      38.044 -22.164 -16.023  0.00  0.00    -0.195 NA
ATOM     21  C   UNL     1      36.898 -22.322 -15.933  0.00  0.00    +0.087 C 
ENDBRANCH  10  21
BRANCH   1  22
ATOM     22  C   UNL     1      29.711 -22.684 -16.864  0.00  0.00    +0.096 C 
BRANCH  22  23
ATOM     23  C   UNL     1      28.612 -23.149 -15.909  0.00  0.00    +0.063 C 
BRANCH  23  26
ATOM     24  N   UNL     1      29.777 -22.915 -13.682  0.00  0.00    -0.319 N 
ATOM     25  N   UNL     1      29.769 -24.970 -12.841  0.00  0.00    -0.315 N 
ATOM     26  C   UNL     1      29.148 -23.696 -14.610  0.00  0.00    +0.039 C 
ATOM     27  C   UNL     1      29.157 -24.961 -14.069  0.00  0.00    +0.069 C 
ATOM     28  C   UNL     1      30.132 -23.723 -12.638  0.00  0.00    +0.182 C 
ATOM     29  H   UNL     1      29.945 -21.947 -13.752  0.00  0.00    +0.148 HD
ATOM     30  H   UNL     1      29.908 -25.741 -12.245  0.00  0.00    +0.148 HD
ENDBRANCH  23  26
ENDBRANCH  22  23
ENDBRANCH   1  22
TORSDOF 5
ENDMDL
MODEL 7
REMARK VINA RESULT:      -9.4      1.302      1.853
REMARK  Name = 24779678
REMARK  5 active torsions:
REMARK  status: ('A' for Active; 'I' for Inactive)
REMARK    1  A    between atoms: N_1  and  C_22
REMARK    2  A    between atoms: N_6  and  C_14
REMARK    3  A    between atoms: C_10  and  C_21
REMARK    4  A    between atoms: C_22  and  C_23
REMARK    5  A    between atoms: C_23  and  C_26
REMARK                            x       y       z     vdW  Elec       q    Type
REMARK                         _______ _______ _______ _____ _____    ______ ____
ROOT
ATOM      1  N   UNL     1      34.511 -21.523 -18.977  0.00  0.00    -0.294 N 
ATOM      2  N   UNL     1      33.064 -22.290 -17.277  0.00  0.00    -0.123 N 
ATOM      3  N   UNL     1      35.324 -22.480 -16.967  0.00  0.00    -0.295 NA
ATOM      4  N   UNL     1      33.830 -23.245 -15.267  0.00  0.00    -0.314 NA
ATOM      5  N   UNL     1      31.964 -21.945 -17.968  0.00  0.00    -0.170 NA
ATOM      6  N   UNL     1      36.123 -23.436 -14.961  0.00  0.00    -0.238 N 
ATOM      7  C   UNL     1      34.354 -22.097 -17.745  0.00  0.00    +0.276 C 
ATOM      8  C   UNL     1      32.808 -22.854 -16.060  0.00  0.00    +0.219 C 
ATOM      9  C   UNL     1      35.047 -23.055 -15.728  0.00  0.00    +0.207 C 
ATOM     10  C   UNL     1      31.436 -22.877 -15.948  0.00  0.00    +0.203 C 
ATOM     11  C   UNL     1      30.971 -22.307 -17.150  0.00  0.00    +0.116 C 
ATOM     12  H   UNL     1      33.710 -21.269 -19.488  0.00  0.00    +0.150 HD
ATOM     13  H   UNL     1      36.934 -23.712 -15.444  0.00  0.00    +0.166 HD
ENDROOT
BRANCH   6  14
ATOM     14  C   UNL     1      36.182 -23.473 -13.570  0.00  0.00    +0.058 C 
ATOM     15  C   UNL     1      36.822 -22.449 -12.872  0.00  0.00    +0.015 C 
ATOM     16  C   UNL     1      35.598 -24.531 -12.875  0.00  0.00    +0.015 C 
ATOM     17  C   UNL     1      36.880 -22.485 -11.479  0.00  0.00    +0.001 C 
ATOM     18  C   UNL     1      35.656 -24.567 -11.482  0.00  0.00    +0.001 C 
ATOM     19  C   UNL     1      36.298 -23.544 -10.784  0.00  0.00    +0.000 C 
ENDBRANCH   6  14
BRANCH  10  21
ATOM     20  N   UNL     1      30.064 -23.779 -13.956  0.00  0.00    -0.195 NA
ATOM     21  C   UNL     1      30.680 -23.374 -14.852  0.00  0.00    +0.087 C 
ENDBRANCH  10  21
BRANCH   1  22
ATOM     22  C   UNL     1      35.801 -21.280 -19.549  0.00  0.00    +0.096 C 
BRANCH  22  23
ATOM     23  C   UNL     1      36.023 -19.785 -19.777  0.00  0.00    +0.063 C 
BRANCH  23  26
ATOM     24  N   UNL     1      35.919 -18.495 -21.945  0.00  0.00    -0.319 N 
ATOM     25  N   UNL     1      33.812 -18.713 -22.611  0.00  0.00    -0.315 N 
ATOM     26  C   UNL     1      35.302 -19.258 -20.993  0.00  0.00    +0.039 C 
ATOM     27  C   UNL     1      34.002 -19.377 -21.426  0.00  0.00    +0.069 C 
ATOM     28  C   UNL     1      34.984 -18.192 -22.896  0.00  0.00    +0.182 C 
ATOM     29  H   UNL     1      36.862 -18.215 -21.946  0.00  0.00    +0.148 HD
ATOM     30  H   UNL     1      32.980 -18.641 -23.133  0.00  0.00    +0.148 HD
ENDBRANCH  23  26
ENDBRANCH  22  23
ENDBRANCH   1  22
TORSDOF 5
ENDMDL
