MODEL 1
REMARK VINA RESULT:     -11.6      0.000      0.000
REMARK  Name = 2822496
REMARK  6 active torsions:
REMARK  status: ('A' for Active; 'I' for Inactive)
REMARK    1  A    between atoms: C_2  and  C_7
REMARK    2  A    between atoms: C_4  and  C_19
REMARK    3  A    between atoms: C_7  and  S_8
REMARK    4  A    between atoms: S_8  and  C_13
REMARK    5  A    between atoms: C_12  and  C_18
REMARK    6  A    between atoms: C_20  and  C_21
REMARK                            x       y       z     vdW  Elec       q    Type
REMARK                         _______ _______ _______ _____ _____    ______ ____
ROOT
ATOM      1  O   UNL     1      35.427 -22.652 -16.548  0.00  0.00    -0.442 OA
ATOM      2  C   UNL     1      35.927 -23.217 -15.419  0.00  0.00    +0.192 C 
ATOM      3  C   UNL     1      37.154 -22.676 -15.110  0.00  0.00    +0.045 C 
ATOM      4  C   UNL     1      36.348 -21.749 -16.951  0.00  0.00    +0.187 C 
ATOM      5  C   UNL     1      37.424 -21.717 -16.115  0.00  0.00    +0.049 C 
ENDROOT
BRANCH   2   7
ATOM      6  O   UNL     1      35.014 -25.398 -15.164  0.00  0.00    -0.275 OA
ATOM      7  C   UNL     1      35.149 -24.218 -14.773  0.00  0.00    +0.270 C 
BRANCH   7   8
ATOM      8  S   UNL     1      34.379 -23.758 -13.224  0.00  0.00    +0.043 S 
BRANCH   8  13
ATOM      9  N   UNL     1      30.661 -24.200 -13.571  0.00  0.00    -0.196 N 
ATOM     10  N   UNL     1      32.168 -23.064 -14.675  0.00  0.00    -0.322 NA
ATOM     11  N   UNL     1      31.800 -24.484 -12.920  0.00  0.00    -0.107 NA
ATOM     12  C   UNL     1      30.888 -23.355 -14.613  0.00  0.00    +0.284 C 
ATOM     13  C   UNL     1      32.644 -23.773 -13.635  0.00  0.00    +0.139 C 
ATOM     14  H   UNL     1      29.777 -24.555 -13.327  0.00  0.00    +0.178 HD
BRANCH  12  18
ATOM     15  F   UNL     1      28.927 -22.014 -14.897  0.00  0.00    -0.162 F 
ATOM     16  F   UNL     1      30.245 -22.205 -16.609  0.00  0.00    -0.162 F 
ATOM     17  F   UNL     1      29.024 -23.894 -15.986  0.00  0.00    -0.162 F 
ATOM     18  C   UNL     1      29.810 -22.881 -15.495  0.00  0.00    +0.463 C 
ENDBRANCH  12  18
ENDBRANCH   8  13
ENDBRANCH   7   8
ENDBRANCH   2   7
BRANCH   4  19
ATOM     19  C   UNL     1      36.046 -21.011 -18.138  0.00  0.00    -0.023 C 
ATOM     20  C   UNL     1      35.791 -20.391 -19.138  0.00  0.00    -0.057 C 
BRANCH  20  21
ATOM     21  C   UNL     1      35.490 -19.654 -20.324  0.00  0.00    +0.042 C 
ATOM     22  C   UNL     1      36.441 -18.790 -20.868  0.00  0.00    +0.008 C 
ATOM     23  C   UNL     1      34.247 -19.800 -20.939  0.00  0.00    +0.008 C 
ATOM     24  C   UNL     1      36.147 -18.071 -22.027  0.00  0.00    +0.001 C 
ATOM     25  C   UNL     1      33.954 -19.081 -22.098  0.00  0.00    +0.001 C 
ATOM     26  C   UNL     1      34.903 -18.217 -22.642  0.00  0.00    +0.000 C 
ENDBRANCH  20  21
ENDBRANCH   4  19
TORSDOF 6
ENDMDL
MODEL 2
REMARK VINA RESULT:     -11.2      7.156      9.752
REMARK  Name = 2822496
REMARK  6 active torsions:
REMARK  status: ('A' for Active; 'I' for Inactive)
REMARK    1  A    between atoms: C_2  and  C_7
REMARK    2  A    between atoms: C_4  and  C_19
REMARK    3  A    between atoms: C_7  and  S_8
REMARK    4  A    between atoms: S_8  and  C_13
REMARK    5  A    between atoms: C_12  and  C_18
REMARK    6  A    between atoms: C_20  and  C_21
REMARK                            x       y       z     vdW  Elec       q    Type
REMARK                         _______ _______ _______ _____ _____    ______ ____
ROOT
ATOM      1  O   UNL     1      33.915 -14.333 -22.382  0.00  0.00    -0.442 OA
ATOM      2  C   UNL     1      34.173 -15.606 -22.782  0.00  0.00    +0.192 C 
ATOM      3  C   UNL     1      33.854 -15.768 -24.110  0.00  0.00    +0.045 C 
ATOM      4  C   UNL     1      33.430 -13.693 -23.468  0.00  0.00    +0.187 C 
ATOM      5  C   UNL     1      33.369 -14.516 -24.554  0.00  0.00    +0.049 C 
ENDROOT
BRANCH   2   7
ATOM      6  O   UNL     1      34.678 -16.352 -20.581  0.00  0.00    -0.275 OA
ATOM      7  C   UNL     1      34.701 -16.513 -21.821  0.00  0.00    +0.270 C 
BRANCH   7   8
ATOM      8  S   UNL     1      35.371 -18.047 -22.454  0.00  0.00    +0.043 S 
BRANCH   8  13
ATOM      9  N   UNL     1      35.678 -20.160 -19.358  0.00  0.00    -0.196 N 
ATOM     10  N   UNL     1      34.093 -19.838 -20.829  0.00  0.00    -0.322 NA
ATOM     11  N   UNL     1      36.224 -19.280 -20.211  0.00  0.00    -0.107 NA
ATOM     12  C   UNL     1      34.412 -20.487 -19.731  0.00  0.00    +0.284 C 
ATOM     13  C   UNL     1      35.222 -19.141 -21.052  0.00  0.00    +0.139 C 
ATOM     14  H   UNL     1      36.134 -20.522 -18.565  0.00  0.00    +0.178 HD
BRANCH  12  18
ATOM     15  F   UNL     1      32.307 -20.991 -18.710  0.00  0.00    -0.162 F 
ATOM     16  F   UNL     1      33.401 -22.649 -19.583  0.00  0.00    -0.162 F 
ATOM     17  F   UNL     1      34.101 -21.740 -17.736  0.00  0.00    -0.162 F 
ATOM     18  C   UNL     1      33.583 -21.434 -18.970  0.00  0.00    +0.463 C 
ENDBRANCH  12  18
ENDBRANCH   8  13
ENDBRANCH   7   8
ENDBRANCH   2   7
BRANCH   4  19
ATOM     19  C   UNL     1      33.079 -12.317 -23.299  0.00  0.00    -0.023 C 
ATOM     20  C   UNL     1      32.783 -11.159 -23.157  0.00  0.00    -0.057 C 
BRANCH  20  21
ATOM     21  C   UNL     1      32.433  -9.785 -22.987  0.00  0.00    +0.042 C 
ATOM     22  C   UNL     1      33.354  -8.786 -23.307  0.00  0.00    +0.008 C 
ATOM     23  C   UNL     1      31.171  -9.441 -22.504  0.00  0.00    +0.008 C 
ATOM     24  C   UNL     1      33.011  -7.444 -23.142  0.00  0.00    +0.001 C 
ATOM     25  C   UNL     1      30.829  -8.099 -22.339  0.00  0.00    +0.001 C 
ATOM     26  C   UNL     1      31.749  -7.100 -22.658  0.00  0.00    +0.000 C 
ENDBRANCH  20  21
ENDBRANCH   4  19
TORSDOF 6
ENDMDL
MODEL 3
REMARK VINA RESULT:     -11.2      6.074      9.286
REMARK  Name = 2822496
REMARK  6 active torsions:
REMARK  status: ('A' for Active; 'I' for Inactive)
REMARK    1  A    between atoms: C_2  and  C_7
REMARK    2  A    between atoms: C_4  and  C_19
REMARK    3  A    between atoms: C_7  and  S_8
REMARK    4  A    between atoms: S_8  and  C_13
REMARK    5  A    between atoms: C_12  and  C_18
REMARK    6  A    between atoms: C_20  and  C_21
REMARK                            x       y       z     vdW  Elec       q    Type
REMARK                         _______ _______ _______ _____ _____    ______ ____
ROOT
ATOM      1  O   UNL     1      33.429 -20.708 -19.426  0.00  0.00    -0.442 OA
ATOM      2  C   UNL     1      34.549 -20.312 -20.085  0.00  0.00    +0.192 C 
ATOM      3  C   UNL     1      35.670 -20.862 -19.505  0.00  0.00    +0.045 C 
ATOM      4  C   UNL     1      33.850 -21.511 -18.425  0.00  0.00    +0.187 C 
ATOM      5  C   UNL     1      35.207 -21.643 -18.420  0.00  0.00    +0.049 C 
ENDROOT
BRANCH   2   7
ATOM      6  O   UNL     1      33.371 -19.354 -21.915  0.00  0.00    -0.275 OA
ATOM      7  C   UNL     1      34.395 -19.446 -21.204  0.00  0.00    +0.270 C 
BRANCH   7   8
ATOM      8  S   UNL     1      35.759 -18.340 -21.552  0.00  0.00    +0.043 S 
BRANCH   8  13
ATOM      9  N   UNL     1      34.065 -15.255 -22.876  0.00  0.00    -0.196 N 
ATOM     10  N   UNL     1      34.555 -15.980 -20.873  0.00  0.00    -0.322 NA
ATOM     11  N   UNL     1      34.670 -16.429 -23.114  0.00  0.00    -0.107 NA
ATOM     12  C   UNL     1      34.000 -14.995 -21.543  0.00  0.00    +0.284 C 
ATOM     13  C   UNL     1      34.929 -16.795 -21.877  0.00  0.00    +0.139 C 
ATOM     14  H   UNL     1      33.713 -14.659 -23.576  0.00  0.00    +0.178 HD
BRANCH  12  18
ATOM     15  F   UNL     1      32.843 -12.943 -21.958  0.00  0.00    -0.162 F 
ATOM     16  F   UNL     1      32.354 -13.994 -20.125  0.00  0.00    -0.162 F 
ATOM     17  F   UNL     1      34.267 -12.977 -20.315  0.00  0.00    -0.162 F 
ATOM     18  C   UNL     1      33.385 -13.772 -21.005  0.00  0.00    +0.463 C 
ENDBRANCH  12  18
ENDBRANCH   8  13
ENDBRANCH   7   8
ENDBRANCH   2   7
BRANCH   4  19
ATOM     19  C   UNL     1      32.840 -22.061 -17.576  0.00  0.00    -0.023 C 
ATOM     20  C   UNL     1      31.989 -22.525 -16.862  0.00  0.00    -0.057 C 
BRANCH  20  21
ATOM     21  C   UNL     1      30.979 -23.075 -16.014  0.00  0.00    +0.042 C 
ATOM     22  C   UNL     1      31.340 -23.866 -14.923  0.00  0.00    +0.008 C 
ATOM     23  C   UNL     1      29.633 -22.820 -16.276  0.00  0.00    +0.008 C 
ATOM     24  C   UNL     1      30.354 -24.402 -14.094  0.00  0.00    +0.001 C 
ATOM     25  C   UNL     1      28.648 -23.356 -15.447  0.00  0.00    +0.001 C 
ATOM     26  C   UNL     1      29.008 -24.148 -14.357  0.00  0.00    +0.000 C 
ENDBRANCH  20  21
ENDBRANCH   4  19
TORSDOF 6
ENDMDL
MODEL 4
REMARK VINA RESULT:     -11.1      4.878      5.981
REMARK  Name = 2822496
REMARK  6 active torsions:
REMARK  status: ('A' for Active; 'I' for Inactive)
REMARK    1  A    between atoms: C_2  and  C_7
REMARK    2  A    between atoms: C_4  and  C_19
REMARK    3  A    between atoms: C_7  and  S_8
REMARK    4  A    between atoms: S_8  and  C_13
REMARK    5  A    between atoms: C_12  and  C_18
REMARK    6  A    between atoms: C_20  and  C_21
REMARK                            x       y       z     vdW  Elec       q    Type
REMARK                         _______ _______ _______ _____ _____    ______ ____
ROOT
ATOM      1  O   UNL     1      35.308 -20.558 -18.578  0.00  0.00    -0.442 OA
ATOM      2  C   UNL     1      35.160 -21.592 -17.710  0.00  0.00    +0.192 C 
ATOM      3  C   UNL     1      34.112 -22.399 -18.094  0.00  0.00    +0.045 C 
ATOM      4  C   UNL     1      34.346 -20.716 -19.514  0.00  0.00    +0.187 C 
ATOM      5  C   UNL     1      33.584 -21.821 -19.273  0.00  0.00    +0.049 C 
ENDROOT
BRANCH   2   7
ATOM      6  O   UNL     1      37.202 -21.173 -16.567  0.00  0.00    -0.275 OA
ATOM      7  C   UNL     1      36.057 -21.674 -16.609  0.00  0.00    +0.270 C 
BRANCH   7   8
ATOM      8  S   UNL     1      35.446 -22.489 -15.137  0.00  0.00    +0.043 S 
BRANCH   8  13
ATOM      9  N   UNL     1      37.427 -25.663 -14.756  0.00  0.00    -0.196 N 
ATOM     10  N   UNL     1      37.921 -23.537 -14.631  0.00  0.00    -0.322 NA
ATOM     11  N   UNL     1      36.252 -25.059 -14.995  0.00  0.00    -0.107 NA
ATOM     12  C   UNL     1      38.413 -24.751 -14.542  0.00  0.00    +0.284 C 
ATOM     13  C   UNL     1      36.630 -23.802 -14.903  0.00  0.00    +0.139 C 
ATOM     14  H   UNL     1      37.558 -26.638 -14.739  0.00  0.00    +0.178 HD
BRANCH  12  18
ATOM     15  F   UNL     1      39.937 -26.060 -13.241  0.00  0.00    -0.162 F 
ATOM     16  F   UNL     1      40.459 -25.716 -15.318  0.00  0.00    -0.162 F 
ATOM     17  F   UNL     1      40.599 -24.090 -13.881  0.00  0.00    -0.162 F 
ATOM     18  C   UNL     1      39.802 -25.143 -14.257  0.00  0.00    +0.463 C 
ENDBRANCH  12  18
ENDBRANCH   8  13
ENDBRANCH   7   8
ENDBRANCH   2   7
BRANCH   4  19
ATOM     19  C   UNL     1      34.295 -19.736 -20.554  0.00  0.00    -0.023 C 
ATOM     20  C   UNL     1      34.252 -18.912 -21.429  0.00  0.00    -0.057 C 
BRANCH  20  21
ATOM     21  C   UNL     1      34.201 -17.933 -22.469  0.00  0.00    +0.042 C 
ATOM     22  C   UNL     1      33.641 -18.258 -23.705  0.00  0.00    +0.008 C 
ATOM     23  C   UNL     1      34.709 -16.654 -22.248  0.00  0.00    +0.008 C 
ATOM     24  C   UNL     1      33.591 -17.302 -24.720  0.00  0.00    +0.001 C 
ATOM     25  C   UNL     1      34.659 -15.698 -23.263  0.00  0.00    +0.001 C 
ATOM     26  C   UNL     1      34.100 -16.022 -24.499  0.00  0.00    +0.000 C 
ENDBRANCH  20  21
ENDBRANCH   4  19
TORSDOF 6
ENDMDL
MODEL 5
REMARK VINA RESULT:     -11.1      6.511      9.495
REMARK  Name = 2822496
REMARK  6 active torsions:
REMARK  status: ('A' for Active; 'I' for Inactive)
REMARK    1  A    between atoms: C_2  and  C_7
REMARK    2  A    between atoms: C_4  and  C_19
REMARK    3  A    between atoms: C_7  and  S_8
REMARK    4  A    between atoms: S_8  and  C_13
REMARK    5  A    between atoms: C_12  and  C_18
REMARK    6  A    between atoms: C_20  and  C_21
REMARK                            x       y       z     vdW  Elec       q    Type
REMARK                         _______ _______ _______ _____ _____    ______ ____
ROOT
ATOM      1  O   UNL     1      36.094 -20.122 -19.108  0.00  0.00    -0.442 OA
ATOM      2  C   UNL     1      35.427 -19.699 -20.214  0.00  0.00    +0.192 C 
ATOM      3  C   UNL     1      34.226 -20.360 -20.336  0.00  0.00    +0.045 C 
ATOM      4  C   UNL     1      35.305 -21.056 -18.533  0.00  0.00    +0.187 C 
ATOM      5  C   UNL     1      34.151 -21.245 -19.236  0.00  0.00    +0.049 C 
ENDROOT
BRANCH   2   7
ATOM      6  O   UNL     1      37.164 -18.192 -20.819  0.00  0.00    -0.275 OA
ATOM      7  C   UNL     1      36.039 -18.699 -21.020  0.00  0.00    +0.270 C 
BRANCH   7   8
ATOM      8  S   UNL     1      35.149 -18.202 -22.491  0.00  0.00    +0.043 S 
BRANCH   8  13
ATOM      9  N   UNL     1      34.061 -14.944 -20.959  0.00  0.00    -0.196 N 
ATOM     10  N   UNL     1      34.168 -15.701 -23.007  0.00  0.00    -0.322 NA
ATOM     11  N   UNL     1      34.540 -16.189 -20.802  0.00  0.00    -0.107 NA
ATOM     12  C   UNL     1      33.844 -14.662 -22.271  0.00  0.00    +0.284 C 
ATOM     13  C   UNL     1      34.574 -16.569 -22.061  0.00  0.00    +0.139 C 
ATOM     14  H   UNL     1      33.891 -14.317 -20.220  0.00  0.00    +0.178 HD
BRANCH  12  18
ATOM     15  F   UNL     1      32.101 -13.025 -22.186  0.00  0.00    -0.162 F 
ATOM     16  F   UNL     1      34.128 -12.293 -22.430  0.00  0.00    -0.162 F 
ATOM     17  F   UNL     1      33.131 -13.297 -24.082  0.00  0.00    -0.162 F 
ATOM     18  C   UNL     1      33.320 -13.364 -22.724  0.00  0.00    +0.463 C 
ENDBRANCH  12  18
ENDBRANCH   8  13
ENDBRANCH   7   8
ENDBRANCH   2   7
BRANCH   4  19
ATOM     19  C   UNL     1      35.795 -21.660 -17.333  0.00  0.00    -0.023 C 
ATOM     20  C   UNL     1      36.210 -22.168 -16.324  0.00  0.00    -0.057 C 
BRANCH  20  21
ATOM     21  C   UNL     1      36.700 -22.773 -15.126  0.00  0.00    +0.042 C 
ATOM     22  C   UNL     1      36.023 -22.581 -13.922  0.00  0.00    +0.008 C 
ATOM     23  C   UNL     1      37.855 -23.554 -15.162  0.00  0.00    +0.008 C 
ATOM     24  C   UNL     1      36.501 -23.172 -12.751  0.00  0.00    +0.001 C 
ATOM     25  C   UNL     1      38.333 -24.145 -13.991  0.00  0.00    +0.001 C 
ATOM     26  C   UNL     1      37.657 -23.953 -12.787  0.00  0.00    +0.000 C 
ENDBRANCH  20  21
ENDBRANCH   4  19
TORSDOF 6
ENDMDL
MODEL 6
REMARK VINA RESULT:     -11.1      4.070      5.762
REMARK  Name = 2822496
REMARK  6 active torsions:
REMARK  status: ('A' for Active; 'I' for Inactive)
REMARK    1  A    between atoms: C_2  and  C_7
REMARK    2  A    between atoms: C_4  and  C_19
REMARK    3  A    between atoms: C_7  and  S_8
REMARK    4  A    between atoms: S_8  and  C_13
REMARK    5  A    between atoms: C_12  and  C_18
REMARK    6  A    between atoms: C_20  and  C_21
REMARK                            x       y       z     vdW  Elec       q    Type
REMARK                         _______ _______ _______ _____ _____    ______ ____
ROOT
ATOM      1  O   UNL     1      34.477 -18.305 -20.572  0.00  0.00    -0.442 OA
ATOM      2  C   UNL     1      35.278 -19.401 -20.513  0.00  0.00    +0.192 C 
ATOM      3  C   UNL     1      36.463 -19.169 -21.174  0.00  0.00    +0.045 C 
ATOM      4  C   UNL     1      35.165 -17.379 -21.274  0.00  0.00    +0.187 C 
ATOM      5  C   UNL     1      36.383 -17.847 -21.670  0.00  0.00    +0.049 C 
ENDROOT
BRANCH   2   7
ATOM      6  O   UNL     1      35.473 -21.280 -19.068  0.00  0.00    -0.275 OA
ATOM      7  C   UNL     1      34.794 -20.546 -19.819  0.00  0.00    +0.270 C 
BRANCH   7   8
ATOM      8  S   UNL     1      33.046 -20.897 -19.977  0.00  0.00    +0.043 S 
BRANCH   8  13
ATOM      9  N   UNL     1      32.918 -23.046 -16.894  0.00  0.00    -0.196 N 
ATOM     10  N   UNL     1      31.521 -21.656 -17.838  0.00  0.00    -0.322 NA
ATOM     11  N   UNL     1      33.593 -22.616 -17.972  0.00  0.00    -0.107 NA
ATOM     12  C   UNL     1      31.688 -22.471 -16.821  0.00  0.00    +0.284 C 
ATOM     13  C   UNL     1      32.696 -21.797 -18.477  0.00  0.00    +0.139 C 
ATOM     14  H   UNL     1      33.268 -23.694 -16.240  0.00  0.00    +0.178 HD
BRANCH  12  18
ATOM     15  F   UNL     1      30.743 -24.077 -15.321  0.00  0.00    -0.162 F 
ATOM     16  F   UNL     1      30.955 -22.048 -14.584  0.00  0.00    -0.162 F 
ATOM     17  F   UNL     1      29.434 -22.510 -16.068  0.00  0.00    -0.162 F 
ATOM     18  C   UNL     1      30.741 -22.766 -15.735  0.00  0.00    +0.463 C 
ENDBRANCH  12  18
ENDBRANCH   8  13
ENDBRANCH   7   8
ENDBRANCH   2   7
BRANCH   4  19
ATOM     19  C   UNL     1      34.521 -16.118 -21.474  0.00  0.00    -0.023 C 
ATOM     20  C   UNL     1      33.981 -15.056 -21.643  0.00  0.00    -0.057 C 
BRANCH  20  21
ATOM     21  C   UNL     1      33.338 -13.796 -21.842  0.00  0.00    +0.042 C 
ATOM     22  C   UNL     1      32.409 -13.332 -20.910  0.00  0.00    +0.008 C 
ATOM     23  C   UNL     1      33.639 -13.030 -22.968  0.00  0.00    +0.008 C 
ATOM     24  C   UNL     1      31.782 -12.101 -21.104  0.00  0.00    +0.001 C 
ATOM     25  C   UNL     1      33.012 -11.798 -23.161  0.00  0.00    +0.001 C 
ATOM     26  C   UNL     1      32.083 -11.335 -22.230  0.00  0.00    +0.000 C 
ENDBRANCH  20  21
ENDBRANCH   4  19
TORSDOF 6
ENDMDL
MODEL 7
REMARK VINA RESULT:     -11.0      4.584      5.620
REMARK  Name = 2822496
REMARK  6 active torsions:
REMARK  status: ('A' for Active; 'I' for Inactive)
REMARK    1  A    between atoms: C_2  and  C_7
REMARK    2  A    between atoms: C_4  and  C_19
REMARK    3  A    between atoms: C_7  and  S_8
REMARK    4  A    between atoms: S_8  and  C_13
REMARK    5  A    between atoms: C_12  and  C_18
REMARK    6  A    between atoms: C_20  and  C_21
REMARK                            x       y       z     vdW  Elec       q    Type
REMARK                         _______ _______ _______ _____ _____    ______ ____
ROOT
ATOM      1  O   UNL     1      34.388 -22.716 -16.946  0.00  0.00    -0.442 OA
ATOM      2  C   UNL     1      33.727 -23.463 -16.023  0.00  0.00    +0.192 C 
ATOM      3  C   UNL     1      32.366 -23.310 -16.162  0.00  0.00    +0.045 C 
ATOM      4  C   UNL     1      33.434 -22.090 -17.670  0.00  0.00    +0.187 C 
ATOM      5  C   UNL     1      32.181 -22.412 -17.239  0.00  0.00    +0.049 C 
ENDROOT
BRANCH   2   7
ATOM      6  O   UNL     1      34.827 -25.433 -15.275  0.00  0.00    -0.275 OA
ATOM      7  C   UNL     1      34.500 -24.238 -15.114  0.00  0.00    +0.270 C 
BRANCH   7   8
ATOM      8  S   UNL     1      35.122 -23.388 -13.666  0.00  0.00    +0.043 S 
BRANCH   8  13
ATOM      9  N   UNL     1      38.254 -25.163 -12.580  0.00  0.00    -0.196 N 
ATOM     10  N   UNL     1      37.668 -24.079 -14.386  0.00  0.00    -0.322 NA
ATOM     11  N   UNL     1      36.996 -24.779 -12.314  0.00  0.00    -0.107 NA
ATOM     12  C   UNL     1      38.646 -24.744 -13.813  0.00  0.00    +0.284 C 
ATOM     13  C   UNL     1      36.721 -24.143 -13.432  0.00  0.00    +0.139 C 
ATOM     14  H   UNL     1      38.819 -25.682 -11.964  0.00  0.00    +0.178 HD
BRANCH  12  18
ATOM     15  F   UNL     1      39.989 -25.413 -15.677  0.00  0.00    -0.162 F 
ATOM     16  F   UNL     1      40.854 -23.969 -14.309  0.00  0.00    -0.162 F 
ATOM     17  F   UNL     1      40.632 -26.045 -13.698  0.00  0.00    -0.162 F 
ATOM     18  C   UNL     1      39.983 -25.030 -14.357  0.00  0.00    +0.463 C 
ENDBRANCH  12  18
ENDBRANCH   8  13
ENDBRANCH   7   8
ENDBRANCH   2   7
BRANCH   4  19
ATOM     19  C   UNL     1      33.886 -21.233 -18.721  0.00  0.00    -0.023 C 
ATOM     20  C   UNL     1      34.267 -20.512 -19.607  0.00  0.00    -0.057 C 
BRANCH  20  21
ATOM     21  C   UNL     1      34.719 -19.656 -20.657  0.00  0.00    +0.042 C 
ATOM     22  C   UNL     1      35.995 -19.096 -20.598  0.00  0.00    +0.008 C 
ATOM     23  C   UNL     1      33.885 -19.381 -21.740  0.00  0.00    +0.008 C 
ATOM     24  C   UNL     1      36.438 -18.260 -21.624  0.00  0.00    +0.001 C 
ATOM     25  C   UNL     1      34.328 -18.545 -22.766  0.00  0.00    +0.001 C 
ATOM     26  C   UNL     1      35.603 -17.984 -22.708  0.00  0.00    +0.000 C 
ENDBRANCH  20  21
ENDBRANCH   4  19
TORSDOF 6
ENDMDL
MODEL 8
REMARK VINA RESULT:     -11.0      4.229      5.221
REMARK  Name = 2822496
REMARK  6 active torsions:
REMARK  status: ('A' for Active; 'I' for Inactive)
REMARK    1  A    between atoms: C_2  and  C_7
REMARK    2  A    between atoms: C_4  and  C_19
REMARK    3  A    between atoms: C_7  and  S_8
REMARK    4  A    between atoms: S_8  and  C_13
REMARK    5  A    between atoms: C_12  and  C_18
REMARK    6  A    between atoms: C_20  and  C_21
REMARK                            x       y       z     vdW  Elec       q    Type
REMARK                         _______ _______ _______ _____ _____    ______ ____
ROOT
ATOM      1  O   UNL     1      34.058 -21.232 -18.866  0.00  0.00    -0.442 OA
ATOM      2  C   UNL     1      34.568 -21.954 -17.834  0.00  0.00    +0.192 C 
ATOM      3  C   UNL     1      35.910 -21.693 -17.679  0.00  0.00    +0.045 C 
ATOM      4  C   UNL     1      35.089 -20.512 -19.362  0.00  0.00    +0.187 C 
ATOM      5  C   UNL     1      36.246 -20.751 -18.679  0.00  0.00    +0.049 C 
ENDROOT
BRANCH   2   7
ATOM      6  O   UNL     1      32.858 -23.595 -17.638  0.00  0.00    -0.275 OA
ATOM      7  C   UNL     1      33.686 -22.813 -17.121  0.00  0.00    +0.270 C 
BRANCH   7   8
ATOM      8  S   UNL     1      33.850 -22.827 -15.339  0.00  0.00    +0.043 S 
BRANCH   8  13
ATOM      9  N   UNL     1      36.381 -25.590 -15.018  0.00  0.00    -0.196 N 
ATOM     10  N   UNL     1      36.425 -23.437 -14.646  0.00  0.00    -0.322 NA
ATOM     11  N   UNL     1      35.137 -25.197 -15.335  0.00  0.00    -0.107 NA
ATOM     12  C   UNL     1      37.140 -24.538 -14.609  0.00  0.00    +0.284 C 
ATOM     13  C   UNL     1      35.245 -23.910 -15.088  0.00  0.00    +0.139 C 
ATOM     14  H   UNL     1      36.702 -26.519 -15.074  0.00  0.00    +0.178 HD
BRANCH  12  18
ATOM     15  F   UNL     1      39.011 -25.982 -14.238  0.00  0.00    -0.162 F 
ATOM     16  F   UNL     1      39.438 -23.987 -14.974  0.00  0.00    -0.162 F 
ATOM     17  F   UNL     1      38.788 -24.269 -12.918  0.00  0.00    -0.162 F 
ATOM     18  C   UNL     1      38.545 -24.689 -14.202  0.00  0.00    +0.463 C 
ENDBRANCH  12  18
ENDBRANCH   8  13
ENDBRANCH   7   8
ENDBRANCH   2   7
BRANCH   4  19
ATOM     19  C   UNL     1      34.801 -19.659 -20.472  0.00  0.00    -0.023 C 
ATOM     20  C   UNL     1      34.557 -18.941 -21.407  0.00  0.00    -0.057 C 
BRANCH  20  21
ATOM     21  C   UNL     1      34.269 -18.089 -22.516  0.00  0.00    +0.042 C 
ATOM     22  C   UNL     1      33.594 -18.595 -23.627  0.00  0.00    +0.008 C 
ATOM     23  C   UNL     1      34.662 -16.751 -22.488  0.00  0.00    +0.008 C 
ATOM     24  C   UNL     1      33.311 -17.763 -24.711  0.00  0.00    +0.001 C 
ATOM     25  C   UNL     1      34.380 -15.919 -23.572  0.00  0.00    +0.001 C 
ATOM     26  C   UNL     1      33.705 -16.425 -24.683  0.00  0.00    +0.000 C 
ENDBRANCH  20  21
ENDBRANCH   4  19
TORSDOF 6
ENDMDL
MODEL 9
REMARK VINA RESULT:     -10.8      3.542      4.773
REMARK  Name = 2822496
REMARK  6 active torsions:
REMARK  status: ('A' for Active; 'I' for Inactive)
REMARK    1  A    between atoms: C_2  and  C_7
REMARK    2  A    between atoms: C_4  and  C_19
REMARK    3  A    between atoms: C_7  and  S_8
REMARK    4  A    between atoms: S_8  and  C_13
REMARK    5  A    between atoms: C_12  and  C_18
REMARK    6  A    between atoms: C_20  and  C_21
REMARK                            x       y       z     vdW  Elec       q    Type
REMARK                         _______ _______ _______ _____ _____    ______ ____
ROOT
ATOM      1  O   UNL     1      33.909 -20.498 -20.093  0.00  0.00    -0.442 OA
ATOM      2  C   UNL     1      34.384 -21.513 -19.325  0.00  0.00    +0.192 C 
ATOM      3  C   UNL     1      35.725 -21.340 -19.071  0.00  0.00    +0.045 C 
ATOM      4  C   UNL     1      34.961 -19.682 -20.322  0.00  0.00    +0.187 C 
ATOM      5  C   UNL     1      36.097 -20.142 -19.725  0.00  0.00    +0.049 C 
ENDROOT
BRANCH   2   7
ATOM      6  O   UNL     1      33.430 -23.690 -19.398  0.00  0.00    -0.275 OA
ATOM      7  C   UNL     1      33.473 -22.532 -18.929  0.00  0.00    +0.270 C 
BRANCH   7   8
ATOM      8  S   UNL     1      32.362 -22.133 -17.583  0.00  0.00    +0.043 S 
BRANCH   8  13
ATOM      9  N   UNL     1      33.337 -23.854 -14.385  0.00  0.00    -0.196 N 
ATOM     10  N   UNL     1      34.392 -23.378 -16.239  0.00  0.00    -0.322 NA
ATOM     11  N   UNL     1      32.403 -23.230 -15.119  0.00  0.00    -0.107 NA
ATOM     12  C   UNL     1      34.516 -23.939 -15.058  0.00  0.00    +0.284 C 
ATOM     13  C   UNL     1      33.108 -22.980 -16.202  0.00  0.00    +0.139 C 
ATOM     14  H   UNL     1      33.188 -24.206 -13.478  0.00  0.00    +0.178 HD
BRANCH  12  18
ATOM     15  F   UNL     1      36.901 -24.130 -15.003  0.00  0.00    -0.162 F 
ATOM     16  F   UNL     1      35.848 -24.404 -13.127  0.00  0.00    -0.162 F 
ATOM     17  F   UNL     1      35.741 -25.938 -14.665  0.00  0.00    -0.162 F 
ATOM     18  C   UNL     1      35.710 -24.577 -14.482  0.00  0.00    +0.463 C 
ENDBRANCH  12  18
ENDBRANCH   8  13
ENDBRANCH   7   8
ENDBRANCH   2   7
BRANCH   4  19
ATOM     19  C   UNL     1      34.711 -18.522 -21.120  0.00  0.00    -0.023 C 
ATOM     20  C   UNL     1      34.500 -17.545 -21.791  0.00  0.00    -0.057 C 
BRANCH  20  21
ATOM     21  C   UNL     1      34.250 -16.386 -22.588  0.00  0.00    +0.042 C 
ATOM     22  C   UNL     1      34.206 -15.126 -21.991  0.00  0.00    +0.008 C 
ATOM     23  C   UNL     1      34.050 -16.514 -23.962  0.00  0.00    +0.008 C 
ATOM     24  C   UNL     1      33.963 -13.994 -22.769  0.00  0.00    +0.001 C 
ATOM     25  C   UNL     1      33.807 -15.382 -24.740  0.00  0.00    +0.001 C 
ATOM     26  C   UNL     1      33.763 -14.122 -24.143  0.00  0.00    +0.000 C 
ENDBRANCH  20  21
ENDBRANCH   4  19
TORSDOF 6
ENDMDL
