MODEL 1
REMARK VINA RESULT:     -11.9      0.000      0.000
REMARK  Name = 11304412
REMARK  4 active torsions:
REMARK  status: ('A' for Active; 'I' for Inactive)
REMARK    1  A    between atoms: C_5  and  N_18
REMARK    2  A    between atoms: C_6  and  C_11
REMARK    3  A    between atoms: N_18  and  C_20
REMARK    4  A    between atoms: C_20  and  C_23
REMARK                            x       y       z     vdW  Elec       q    Type
REMARK                         _______ _______ _______ _____ _____    ______ ____
ROOT
ATOM      1 BR   UNL     1      38.822 -24.685 -13.605  0.00  0.00    -0.066 Br
ATOM      2  N   UNL     1      34.833 -24.015 -13.284  0.00  0.00    -0.152 N 
ATOM      3  N   UNL     1      36.061 -23.321 -15.236  0.00  0.00    -0.388 NA
ATOM      4  N   UNL     1      35.046 -24.637 -12.090  0.00  0.00    -0.173 NA
ATOM      5  C   UNL     1      33.620 -23.525 -13.793  0.00  0.00    +0.126 C 
ATOM      6  C   UNL     1      34.940 -22.854 -15.704  0.00  0.00    +0.135 C 
ATOM      7  C   UNL     1      33.621 -22.937 -15.001  0.00  0.00    +0.064 C 
ATOM      8  C   UNL     1      36.020 -23.909 -14.010  0.00  0.00    +0.200 C 
ATOM      9  C   UNL     1      37.004 -24.486 -13.240  0.00  0.00    +0.168 C 
ATOM     10  C   UNL     1      36.350 -24.912 -12.079  0.00  0.00    +0.112 C 
ENDROOT
BRANCH   6  11
ATOM     11  C   UNL     1      34.938 -22.198 -17.038  0.00  0.00    +0.026 C 
ATOM     12  C   UNL     1      35.989 -21.374 -17.437  0.00  0.00    -0.019 C 
ATOM     13  C   UNL     1      33.860 -22.420 -17.893  0.00  0.00    +0.002 C 
ATOM     14  C   UNL     1      35.963 -20.771 -18.694  0.00  0.00    -0.004 C 
ATOM     15  C   UNL     1      37.156 -21.120 -16.538  0.00  0.00    +0.031 C 
ATOM     16  C   UNL     1      33.833 -21.816 -19.150  0.00  0.00    +0.000 C 
ATOM     17  C   UNL     1      34.884 -20.991 -19.551  0.00  0.00    -0.000 C 
ENDBRANCH   6  11
BRANCH   5  18
ATOM     18  N   UNL     1      32.503 -23.684 -13.023  0.00  0.00    -0.316 N 
ATOM     19  H   UNL     1      32.439 -24.473 -12.438  0.00  0.00    +0.148 HD
BRANCH  18  20
ATOM     20  C   UNL     1      31.420 -22.746 -13.037  0.00  0.00    +0.117 C 
BRANCH  20  23
ATOM     21  O   UNL     1      28.464 -22.018 -16.751  0.00  0.00    -0.163 OA
ATOM     22  N   UNL     1      28.852 -22.772 -15.801  0.00  0.00    -0.127 N 
ATOM     23  C   UNL     1      30.299 -23.198 -13.935  0.00  0.00    +0.018 C 
ATOM     24  C   UNL     1      29.879 -22.378 -14.967  0.00  0.00    +0.119 C 
ATOM     25  C   UNL     1      29.700 -24.425 -13.722  0.00  0.00    +0.001 C 
ATOM     26  C   UNL     1      28.664 -24.832 -14.557  0.00  0.00    +0.022 C 
ATOM     27  C   UNL     1      28.250 -23.998 -15.591  0.00  0.00    +0.121 C 
ENDBRANCH  20  23
ENDBRANCH  18  20
ENDBRANCH   5  18
TORSDOF 4
ENDMDL
MODEL 2
REMARK VINA RESULT:     -11.8      0.630      1.448
REMARK  Name = 11304412
REMARK  4 active torsions:
REMARK  status: ('A' for Active; 'I' for Inactive)
REMARK    1  A    between atoms: C_5  and  N_18
REMARK    2  A    between atoms: C_6  and  C_11
REMARK    3  A    between atoms: N_18  and  C_20
REMARK    4  A    between atoms: C_20  and  C_23
REMARK                            x       y       z     vdW  Elec       q    Type
REMARK                         _______ _______ _______ _____ _____    ______ ____
ROOT
ATOM      1 BR   UNL     1      39.163 -24.611 -14.480  0.00  0.00    -0.066 Br
ATOM      2  N   UNL     1      35.256 -23.866 -13.679  0.00  0.00    -0.152 N 
ATOM      3  N   UNL     1      36.267 -23.141 -15.742  0.00  0.00    -0.388 NA
ATOM      4  N   UNL     1      35.591 -24.528 -12.535  0.00  0.00    -0.173 NA
ATOM      5  C   UNL     1      34.005 -23.336 -14.030  0.00  0.00    +0.126 C 
ATOM      6  C   UNL     1      35.110 -22.637 -16.063  0.00  0.00    +0.135 C 
ATOM      7  C   UNL     1      33.880 -22.712 -15.214  0.00  0.00    +0.064 C 
ATOM      8  C   UNL     1      36.354 -23.764 -14.535  0.00  0.00    +0.200 C 
ATOM      9  C   UNL     1      37.406 -24.385 -13.901  0.00  0.00    +0.168 C 
ATOM     10  C   UNL     1      36.880 -24.831 -12.683  0.00  0.00    +0.112 C 
ENDROOT
BRANCH   6  11
ATOM     11  C   UNL     1      34.970 -21.942 -17.370  0.00  0.00    +0.026 C 
ATOM     12  C   UNL     1      33.755 -21.929 -18.051  0.00  0.00    -0.019 C 
ATOM     13  C   UNL     1      36.082 -21.300 -17.911  0.00  0.00    +0.002 C 
ATOM     14  C   UNL     1      33.650 -21.270 -19.276  0.00  0.00    -0.004 C 
ATOM     15  C   UNL     1      32.547 -22.610 -17.493  0.00  0.00    +0.031 C 
ATOM     16  C   UNL     1      35.979 -20.643 -19.137  0.00  0.00    +0.000 C 
ATOM     17  C   UNL     1      34.762 -20.628 -19.820  0.00  0.00    -0.000 C 
ENDBRANCH   6  11
BRANCH   5  18
ATOM     18  N   UNL     1      32.981 -23.493 -13.140  0.00  0.00    -0.316 N 
ATOM     19  H   UNL     1      33.027 -24.232 -12.490  0.00  0.00    +0.148 HD
BRANCH  18  20
ATOM     20  C   UNL     1      31.842 -22.626 -13.118  0.00  0.00    +0.117 C 
BRANCH  20  23
ATOM     21  O   UNL     1      28.612 -22.182 -16.643  0.00  0.00    -0.163 OA
ATOM     22  N   UNL     1      29.113 -22.889 -15.711  0.00  0.00    -0.127 N 
ATOM     23  C   UNL     1      30.703 -23.174 -13.935  0.00  0.00    +0.018 C 
ATOM     24  C   UNL     1      30.159 -22.405 -14.949  0.00  0.00    +0.119 C 
ATOM     25  C   UNL     1      30.211 -24.438 -13.668  0.00  0.00    +0.001 C 
ATOM     26  C   UNL     1      29.158 -24.934 -14.430  0.00  0.00    +0.022 C 
ATOM     27  C   UNL     1      28.619 -24.151 -15.446  0.00  0.00    +0.121 C 
ENDBRANCH  20  23
ENDBRANCH  18  20
ENDBRANCH   5  18
TORSDOF 4
ENDMDL
MODEL 3
REMARK VINA RESULT:     -11.8      3.453      6.848
REMARK  Name = 11304412
REMARK  4 active torsions:
REMARK  status: ('A' for Active; 'I' for Inactive)
REMARK    1  A    between atoms: C_5  and  N_18
REMARK    2  A    between atoms: C_6  and  C_11
REMARK    3  A    between atoms: N_18  and  C_20
REMARK    4  A    between atoms: C_20  and  C_23
REMARK                            x       y       z     vdW  Elec       q    Type
REMARK                         _______ _______ _______ _____ _____    ______ ____
ROOT
ATOM      1 BR   UNL     1      30.062 -24.239 -13.127  0.00  0.00    -0.066 Br
ATOM      2  N   UNL     1      32.521 -22.854 -16.042  0.00  0.00    -0.152 N 
ATOM      3  N   UNL     1      33.400 -23.686 -13.959  0.00  0.00    -0.388 NA
ATOM      4  N   UNL     1      31.320 -22.662 -16.660  0.00  0.00    -0.173 NA
ATOM      5  C   UNL     1      33.800 -22.572 -16.545  0.00  0.00    +0.126 C 
ATOM      6  C   UNL     1      34.587 -23.412 -14.419  0.00  0.00    +0.135 C 
ATOM      7  C   UNL     1      34.867 -22.836 -15.771  0.00  0.00    +0.064 C 
ATOM      8  C   UNL     1      32.345 -23.405 -14.771  0.00  0.00    +0.200 C 
ATOM      9  C   UNL     1      30.989 -23.561 -14.595  0.00  0.00    +0.168 C 
ATOM     10  C   UNL     1      30.415 -23.089 -15.781  0.00  0.00    +0.112 C 
ENDROOT
BRANCH   6  11
ATOM     11  C   UNL     1      35.769 -23.698 -13.564  0.00  0.00    +0.026 C 
ATOM     12  C   UNL     1      36.503 -24.872 -13.719  0.00  0.00    -0.019 C 
ATOM     13  C   UNL     1      36.136 -22.767 -12.593  0.00  0.00    +0.002 C 
ATOM     14  C   UNL     1      37.608 -25.116 -12.903  0.00  0.00    -0.004 C 
ATOM     15  C   UNL     1      36.130 -25.887 -14.752  0.00  0.00    +0.031 C 
ATOM     16  C   UNL     1      37.240 -23.012 -11.777  0.00  0.00    +0.000 C 
ATOM     17  C   UNL     1      37.976 -24.186 -11.931  0.00  0.00    -0.000 C 
ENDBRANCH   6  11
BRANCH   5  18
ATOM     18  N   UNL     1      33.882 -22.049 -17.804  0.00  0.00    -0.316 N 
ATOM     19  H   UNL     1      33.056 -21.948 -18.330  0.00  0.00    +0.148 HD
BRANCH  18  20
ATOM     20  C   UNL     1      35.125 -21.642 -18.387  0.00  0.00    +0.117 C 
BRANCH  20  23
ATOM     21  O   UNL     1      36.826 -18.171 -21.236  0.00  0.00    -0.163 OA
ATOM     22  N   UNL     1      35.840 -18.884 -20.861  0.00  0.00    -0.127 N 
ATOM     23  C   UNL     1      34.927 -20.611 -19.466  0.00  0.00    +0.018 C 
ATOM     24  C   UNL     1      35.999 -19.836 -19.874  0.00  0.00    +0.119 C 
ATOM     25  C   UNL     1      33.680 -20.445 -20.039  0.00  0.00    +0.001 C 
ATOM     26  C   UNL     1      33.509 -19.488 -21.034  0.00  0.00    +0.022 C 
ATOM     27  C   UNL     1      34.595 -18.716 -21.435  0.00  0.00    +0.121 C 
ENDBRANCH  20  23
ENDBRANCH  18  20
ENDBRANCH   5  18
TORSDOF 4
ENDMDL
MODEL 4
REMARK VINA RESULT:     -11.7      3.360      6.991
REMARK  Name = 11304412
REMARK  4 active torsions:
REMARK  status: ('A' for Active; 'I' for Inactive)
REMARK    1  A    between atoms: C_5  and  N_18
REMARK    2  A    between atoms: C_6  and  C_11
REMARK    3  A    between atoms: N_18  and  C_20
REMARK    4  A    between atoms: C_20  and  C_23
REMARK                            x       y       z     vdW  Elec       q    Type
REMARK                         _______ _______ _______ _____ _____    ______ ____
ROOT
ATOM      1 BR   UNL     1      36.453 -22.752 -13.360  0.00  0.00    -0.066 Br
ATOM      2  N   UNL     1      34.906 -22.091 -17.052  0.00  0.00    -0.152 N 
ATOM      3  N   UNL     1      33.509 -22.801 -15.223  0.00  0.00    -0.388 NA
ATOM      4  N   UNL     1      36.213 -21.797 -17.308  0.00  0.00    -0.173 NA
ATOM      5  C   UNL     1      33.826 -22.049 -17.947  0.00  0.00    +0.126 C 
ATOM      6  C   UNL     1      32.508 -22.776 -16.056  0.00  0.00    +0.135 C 
ATOM      7  C   UNL     1      32.604 -22.380 -17.496  0.00  0.00    +0.064 C 
ATOM      8  C   UNL     1      34.729 -22.460 -15.718  0.00  0.00    +0.200 C 
ATOM      9  C   UNL     1      35.969 -22.390 -15.124  0.00  0.00    +0.168 C 
ATOM     10  C   UNL     1      36.835 -21.981 -16.144  0.00  0.00    +0.112 C 
ENDROOT
BRANCH   6  11
ATOM     11  C   UNL     1      31.156 -23.147 -15.561  0.00  0.00    +0.026 C 
ATOM     12  C   UNL     1      30.997 -23.924 -14.414  0.00  0.00    -0.019 C 
ATOM     13  C   UNL     1      30.038 -22.705 -16.266  0.00  0.00    +0.002 C 
ATOM     14  C   UNL     1      29.718 -24.258 -13.972  0.00  0.00    -0.004 C 
ATOM     15  C   UNL     1      32.180 -24.411 -13.640  0.00  0.00    +0.031 C 
ATOM     16  C   UNL     1      28.759 -23.040 -15.824  0.00  0.00    +0.000 C 
ATOM     17  C   UNL     1      28.598 -23.817 -14.676  0.00  0.00    -0.000 C 
ENDBRANCH   6  11
BRANCH   5  18
ATOM     18  N   UNL     1      34.085 -21.662 -19.232  0.00  0.00    -0.316 N 
ATOM     19  H   UNL     1      34.782 -22.138 -19.738  0.00  0.00    +0.148 HD
BRANCH  18  20
ATOM     20  C   UNL     1      33.381 -20.590 -19.868  0.00  0.00    +0.117 C 
BRANCH  20  23
ATOM     21  O   UNL     1      34.233 -17.637 -23.558  0.00  0.00    -0.163 OA
ATOM     22  N   UNL     1      34.667 -18.233 -22.520  0.00  0.00    -0.127 N 
ATOM     23  C   UNL     1      34.306 -19.701 -20.655  0.00  0.00    +0.018 C 
ATOM     24  C   UNL     1      33.834 -19.053 -21.783  0.00  0.00    +0.119 C 
ATOM     25  C   UNL     1      35.617 -19.539 -20.247  0.00  0.00    +0.001 C 
ATOM     26  C   UNL     1      36.464 -18.716 -20.982  0.00  0.00    +0.022 C 
ATOM     27  C   UNL     1      35.977 -18.070 -22.114  0.00  0.00    +0.121 C 
ENDBRANCH  20  23
ENDBRANCH  18  20
ENDBRANCH   5  18
TORSDOF 4
ENDMDL
MODEL 5
REMARK VINA RESULT:     -11.5      3.284      5.880
REMARK  Name = 11304412
REMARK  4 active torsions:
REMARK  status: ('A' for Active; 'I' for Inactive)
REMARK    1  A    between atoms: C_5  and  N_18
REMARK    2  A    between atoms: C_6  and  C_11
REMARK    3  A    between atoms: N_18  and  C_20
REMARK    4  A    between atoms: C_20  and  C_23
REMARK                            x       y       z     vdW  Elec       q    Type
REMARK                         _______ _______ _______ _____ _____    ______ ____
ROOT
ATOM      1 BR   UNL     1      28.560 -23.245 -15.765  0.00  0.00    -0.066 Br
ATOM      2  N   UNL     1      32.070 -24.009 -13.878  0.00  0.00    -0.152 N 
ATOM      3  N   UNL     1      32.019 -22.907 -16.019  0.00  0.00    -0.388 NA
ATOM      4  N   UNL     1      31.210 -24.537 -12.960  0.00  0.00    -0.173 NA
ATOM      5  C   UNL     1      33.471 -23.953 -13.809  0.00  0.00    +0.126 C 
ATOM      6  C   UNL     1      33.319 -22.866 -15.963  0.00  0.00    +0.135 C 
ATOM      7  C   UNL     1      34.142 -23.388 -14.827  0.00  0.00    +0.064 C 
ATOM      8  C   UNL     1      31.376 -23.487 -14.970  0.00  0.00    +0.200 C 
ATOM      9  C   UNL     1      30.038 -23.695 -14.721  0.00  0.00    +0.168 C 
ATOM     10  C   UNL     1      29.999 -24.341 -13.480  0.00  0.00    +0.112 C 
ENDROOT
BRANCH   6  11
ATOM     11  C   UNL     1      34.065 -22.246 -17.090  0.00  0.00    +0.026 C 
ATOM     12  C   UNL     1      35.403 -21.880 -16.953  0.00  0.00    -0.019 C 
ATOM     13  C   UNL     1      33.402 -22.033 -18.297  0.00  0.00    +0.002 C 
ATOM     14  C   UNL     1      36.079 -21.300 -18.026  0.00  0.00    -0.004 C 
ATOM     15  C   UNL     1      36.137 -22.097 -15.669  0.00  0.00    +0.031 C 
ATOM     16  C   UNL     1      34.078 -21.452 -19.369  0.00  0.00    +0.000 C 
ATOM     17  C   UNL     1      35.417 -21.085 -19.235  0.00  0.00    -0.000 C 
ENDBRANCH   6  11
BRANCH   5  18
ATOM     18  N   UNL     1      34.070 -24.475 -12.697  0.00  0.00    -0.316 N 
ATOM     19  H   UNL     1      33.718 -25.313 -12.320  0.00  0.00    +0.148 HD
BRANCH  18  20
ATOM     20  C   UNL     1      35.188 -23.846 -12.060  0.00  0.00    +0.117 C 
BRANCH  20  23
ATOM     21  O   UNL     1      37.749 -27.101 -14.489  0.00  0.00    -0.163 OA
ATOM     22  N   UNL     1      37.720 -26.014 -13.828  0.00  0.00    -0.127 N 
ATOM     23  C   UNL     1      36.498 -24.351 -12.603  0.00  0.00    +0.018 C 
ATOM     24  C   UNL     1      36.529 -25.533 -13.322  0.00  0.00    +0.119 C 
ATOM     25  C   UNL     1      37.658 -23.632 -12.379  0.00  0.00    +0.001 C 
ATOM     26  C   UNL     1      38.863 -24.109 -12.885  0.00  0.00    +0.022 C 
ATOM     27  C   UNL     1      38.881 -25.298 -13.605  0.00  0.00    +0.121 C 
ENDBRANCH  20  23
ENDBRANCH  18  20
ENDBRANCH   5  18
TORSDOF 4
ENDMDL
MODEL 6
REMARK VINA RESULT:     -11.3      3.499      6.817
REMARK  Name = 11304412
REMARK  4 active torsions:
REMARK  status: ('A' for Active; 'I' for Inactive)
REMARK    1  A    between atoms: C_5  and  N_18
REMARK    2  A    between atoms: C_6  and  C_11
REMARK    3  A    between atoms: N_18  and  C_20
REMARK    4  A    between atoms: C_20  and  C_23
REMARK                            x       y       z     vdW  Elec       q    Type
REMARK                         _______ _______ _______ _____ _____    ______ ____
ROOT
ATOM      1 BR   UNL     1      30.126 -24.360 -13.269  0.00  0.00    -0.066 Br
ATOM      2  N   UNL     1      32.523 -22.823 -16.159  0.00  0.00    -0.152 N 
ATOM      3  N   UNL     1      33.430 -24.133 -14.352  0.00  0.00    -0.388 NA
ATOM      4  N   UNL     1      31.321 -22.357 -16.603  0.00  0.00    -0.173 NA
ATOM      5  C   UNL     1      33.785 -22.634 -16.743  0.00  0.00    +0.126 C 
ATOM      6  C   UNL     1      34.603 -23.946 -14.885  0.00  0.00    +0.135 C 
ATOM      7  C   UNL     1      34.858 -23.178 -16.144  0.00  0.00    +0.064 C 
ATOM      8  C   UNL     1      32.369 -23.565 -14.987  0.00  0.00    +0.200 C 
ATOM      9  C   UNL     1      31.024 -23.562 -14.694  0.00  0.00    +0.168 C 
ATOM     10  C   UNL     1      30.435 -22.808 -15.716  0.00  0.00    +0.112 C 
ENDROOT
BRANCH   6  11
ATOM     11  C   UNL     1      35.793 -24.543 -14.222  0.00  0.00    +0.026 C 
ATOM     12  C   UNL     1      36.401 -23.918 -13.135  0.00  0.00    -0.019 C 
ATOM     13  C   UNL     1      36.298 -25.748 -14.708  0.00  0.00    +0.002 C 
ATOM     14  C   UNL     1      37.516 -24.500 -12.531  0.00  0.00    -0.004 C 
ATOM     15  C   UNL     1      35.879 -22.626 -12.594  0.00  0.00    +0.031 C 
ATOM     16  C   UNL     1      37.414 -26.329 -14.106  0.00  0.00    +0.000 C 
ATOM     17  C   UNL     1      38.023 -25.705 -13.017  0.00  0.00    -0.000 C 
ENDBRANCH   6  11
BRANCH   5  18
ATOM     18  N   UNL     1      33.844 -21.906 -17.898  0.00  0.00    -0.316 N 
ATOM     19  H   UNL     1      33.003 -21.625 -18.323  0.00  0.00    +0.148 HD
BRANCH  18  20
ATOM     20  C   UNL     1      35.085 -21.540 -18.512  0.00  0.00    +0.117 C 
BRANCH  20  23
ATOM     21  O   UNL     1      36.804 -18.085 -21.369  0.00  0.00    -0.163 OA
ATOM     22  N   UNL     1      35.814 -18.791 -20.991  0.00  0.00    -0.127 N 
ATOM     23  C   UNL     1      34.892 -20.509 -19.592  0.00  0.00    +0.018 C 
ATOM     24  C   UNL     1      35.968 -19.742 -20.002  0.00  0.00    +0.119 C 
ATOM     25  C   UNL     1      33.646 -20.337 -20.164  0.00  0.00    +0.001 C 
ATOM     26  C   UNL     1      33.480 -19.381 -21.162  0.00  0.00    +0.022 C 
ATOM     27  C   UNL     1      34.569 -18.616 -21.565  0.00  0.00    +0.121 C 
ENDBRANCH  20  23
ENDBRANCH  18  20
ENDBRANCH   5  18
TORSDOF 4
ENDMDL
MODEL 7
REMARK VINA RESULT:     -11.2      3.382      6.059
REMARK  Name = 11304412
REMARK  4 active torsions:
REMARK  status: ('A' for Active; 'I' for Inactive)
REMARK    1  A    between atoms: C_5  and  N_18
REMARK    2  A    between atoms: C_6  and  C_11
REMARK    3  A    between atoms: N_18  and  C_20
REMARK    4  A    between atoms: C_20  and  C_23
REMARK                            x       y       z     vdW  Elec       q    Type
REMARK                         _______ _______ _______ _____ _____    ______ ____
ROOT
ATOM      1 BR   UNL     1      28.035 -22.441 -16.486  0.00  0.00    -0.066 Br
ATOM      2  N   UNL     1      31.779 -23.409 -15.259  0.00  0.00    -0.152 N 
ATOM      3  N   UNL     1      31.418 -22.095 -17.244  0.00  0.00    -0.388 NA
ATOM      4  N   UNL     1      31.061 -24.023 -14.275  0.00  0.00    -0.173 NA
ATOM      5  C   UNL     1      33.174 -23.367 -15.404  0.00  0.00    +0.126 C 
ATOM      6  C   UNL     1      32.712 -22.066 -17.389  0.00  0.00    +0.135 C 
ATOM      7  C   UNL     1      33.691 -22.705 -16.454  0.00  0.00    +0.064 C 
ATOM      8  C   UNL     1      30.934 -22.775 -16.170  0.00  0.00    +0.200 C 
ATOM      9  C   UNL     1      29.647 -23.002 -15.737  0.00  0.00    +0.168 C 
ATOM     10  C   UNL     1      29.788 -23.770 -14.576  0.00  0.00    +0.112 C 
ENDROOT
BRANCH   6  11
ATOM     11  C   UNL     1      33.286 -21.339 -18.551  0.00  0.00    +0.026 C 
ATOM     12  C   UNL     1      34.665 -21.213 -18.713  0.00  0.00    -0.019 C 
ATOM     13  C   UNL     1      32.419 -20.777 -19.486  0.00  0.00    +0.002 C 
ATOM     14  C   UNL     1      35.177 -20.525 -19.812  0.00  0.00    -0.004 C 
ATOM     15  C   UNL     1      35.617 -21.806 -17.724  0.00  0.00    +0.031 C 
ATOM     16  C   UNL     1      32.931 -20.088 -20.585  0.00  0.00    +0.000 C 
ATOM     17  C   UNL     1      34.311 -19.962 -20.749  0.00  0.00    -0.000 C 
ENDBRANCH   6  11
BRANCH   5  18
ATOM     18  N   UNL     1      33.927 -24.002 -14.458  0.00  0.00    -0.316 N 
ATOM     19  H   UNL     1      33.641 -23.958 -13.517  0.00  0.00    +0.148 HD
BRANCH  18  20
ATOM     20  C   UNL     1      35.118 -24.728 -14.784  0.00  0.00    +0.117 C 
BRANCH  20  23
ATOM     21  O   UNL     1      36.494 -23.851 -10.268  0.00  0.00    -0.163 OA
ATOM     22  N   UNL     1      36.817 -24.086 -11.477  0.00  0.00    -0.127 N 
ATOM     23  C   UNL     1      36.196 -24.529 -13.753  0.00  0.00    +0.018 C 
ATOM     24  C   UNL     1      35.844 -24.273 -12.439  0.00  0.00    +0.119 C 
ATOM     25  C   UNL     1      37.526 -24.602 -14.124  0.00  0.00    +0.001 C 
ATOM     26  C   UNL     1      38.513 -24.415 -13.163  0.00  0.00    +0.022 C 
ATOM     27  C   UNL     1      38.147 -24.159 -11.846  0.00  0.00    +0.121 C 
ENDBRANCH  20  23
ENDBRANCH  18  20
ENDBRANCH   5  18
TORSDOF 4
ENDMDL
MODEL 8
REMARK VINA RESULT:     -10.6      3.566      6.675
REMARK  Name = 11304412
REMARK  4 active torsions:
REMARK  status: ('A' for Active; 'I' for Inactive)
REMARK    1  A    between atoms: C_5  and  N_18
REMARK    2  A    between atoms: C_6  and  C_11
REMARK    3  A    between atoms: N_18  and  C_20
REMARK    4  A    between atoms: C_20  and  C_23
REMARK                            x       y       z     vdW  Elec       q    Type
REMARK                         _______ _______ _______ _____ _____    ______ ____
ROOT
ATOM      1 BR   UNL     1      30.516 -23.334 -13.172  0.00  0.00    -0.066 Br
ATOM      2  N   UNL     1      31.775 -22.406 -16.916  0.00  0.00    -0.152 N 
ATOM      3  N   UNL     1      33.340 -23.014 -15.189  0.00  0.00    -0.388 NA
ATOM      4  N   UNL     1      30.432 -22.243 -17.091  0.00  0.00    -0.173 NA
ATOM      5  C   UNL     1      32.791 -22.236 -17.868  0.00  0.00    +0.126 C 
ATOM      6  C   UNL     1      34.285 -22.843 -16.067  0.00  0.00    +0.135 C 
ATOM      7  C   UNL     1      34.065 -22.445 -17.493  0.00  0.00    +0.064 C 
ATOM      8  C   UNL     1      32.064 -22.792 -15.606  0.00  0.00    +0.200 C 
ATOM      9  C   UNL     1      30.859 -22.873 -14.945  0.00  0.00    +0.168 C 
ATOM     10  C   UNL     1      29.899 -22.527 -15.903  0.00  0.00    +0.112 C 
ENDROOT
BRANCH   6  11
ATOM     11  C   UNL     1      35.695 -23.068 -15.654  0.00  0.00    +0.026 C 
ATOM     12  C   UNL     1      36.054 -24.180 -14.893  0.00  0.00    -0.019 C 
ATOM     13  C   UNL     1      36.664 -22.144 -16.040  0.00  0.00    +0.002 C 
ATOM     14  C   UNL     1      37.384 -24.368 -14.519  0.00  0.00    -0.004 C 
ATOM     15  C   UNL     1      35.034 -25.186 -14.466  0.00  0.00    +0.031 C 
ATOM     16  C   UNL     1      37.994 -22.331 -15.664  0.00  0.00    +0.000 C 
ATOM     17  C   UNL     1      38.355 -23.443 -14.903  0.00  0.00    -0.000 C 
ENDBRANCH   6  11
BRANCH   5  18
ATOM     18  N   UNL     1      32.419 -21.871 -19.131  0.00  0.00    -0.316 N 
ATOM     19  H   UNL     1      32.265 -22.575 -19.802  0.00  0.00    +0.148 HD
BRANCH  18  20
ATOM     20  C   UNL     1      32.245 -20.502 -19.515  0.00  0.00    +0.117 C 
BRANCH  20  23
ATOM     21  O   UNL     1      34.115 -18.223 -23.305  0.00  0.00    -0.163 OA
ATOM     22  N   UNL     1      34.300 -18.833 -22.203  0.00  0.00    -0.127 N 
ATOM     23  C   UNL     1      33.429 -19.981 -20.283  0.00  0.00    +0.018 C 
ATOM     24  C   UNL     1      33.227 -19.319 -21.482  0.00  0.00    +0.119 C 
ATOM     25  C   UNL     1      34.707 -20.167 -19.789  0.00  0.00    +0.001 C 
ATOM     26  C   UNL     1      35.794 -19.682 -20.508  0.00  0.00    +0.022 C 
ATOM     27  C   UNL     1      35.578 -19.018 -21.711  0.00  0.00    +0.121 C 
ENDBRANCH  20  23
ENDBRANCH  18  20
ENDBRANCH   5  18
TORSDOF 4
ENDMDL
MODEL 9
REMARK VINA RESULT:     -10.5      2.287      4.713
REMARK  Name = 11304412
REMARK  4 active torsions:
REMARK  status: ('A' for Active; 'I' for Inactive)
REMARK    1  A    between atoms: C_5  and  N_18
REMARK    2  A    between atoms: C_6  and  C_11
REMARK    3  A    between atoms: N_18  and  C_20
REMARK    4  A    between atoms: C_20  and  C_23
REMARK                            x       y       z     vdW  Elec       q    Type
REMARK                         _______ _______ _______ _____ _____    ______ ____
ROOT
ATOM      1 BR   UNL     1      35.667 -21.156 -18.961  0.00  0.00    -0.066 Br
ATOM      2  N   UNL     1      32.964 -22.830 -16.441  0.00  0.00    -0.152 N 
ATOM      3  N   UNL     1      35.303 -22.732 -15.876  0.00  0.00    -0.388 NA
ATOM      4  N   UNL     1      32.124 -22.469 -17.453  0.00  0.00    -0.173 NA
ATOM      5  C   UNL     1      32.631 -23.468 -15.236  0.00  0.00    +0.126 C 
ATOM      6  C   UNL     1      34.998 -23.337 -14.763  0.00  0.00    +0.135 C 
ATOM      7  C   UNL     1      33.615 -23.742 -14.362  0.00  0.00    +0.064 C 
ATOM      8  C   UNL     1      34.281 -22.474 -16.735  0.00  0.00    +0.200 C 
ATOM      9  C   UNL     1      34.257 -21.869 -17.971  0.00  0.00    +0.168 C 
ATOM     10  C   UNL     1      32.913 -21.896 -18.360  0.00  0.00    +0.112 C 
ENDROOT
BRANCH   6  11
ATOM     11  C   UNL     1      36.084 -23.645 -13.796  0.00  0.00    +0.026 C 
ATOM     12  C   UNL     1      36.768 -24.859 -13.844  0.00  0.00    -0.019 C 
ATOM     13  C   UNL     1      36.412 -22.696 -12.830  0.00  0.00    +0.002 C 
ATOM     14  C   UNL     1      37.783 -25.123 -12.924  0.00  0.00    -0.004 C 
ATOM     15  C   UNL     1      36.436 -25.894 -14.870  0.00  0.00    +0.031 C 
ATOM     16  C   UNL     1      37.426 -22.961 -11.909  0.00  0.00    +0.000 C 
ATOM     17  C   UNL     1      38.112 -24.174 -11.956  0.00  0.00    -0.000 C 
ENDBRANCH   6  11
BRANCH   5  18
ATOM     18  N   UNL     1      31.316 -23.769 -15.023  0.00  0.00    -0.316 N 
ATOM     19  H   UNL     1      30.954 -24.605 -15.396  0.00  0.00    +0.148 HD
BRANCH  18  20
ATOM     20  C   UNL     1      30.443 -22.911 -14.278  0.00  0.00    +0.117 C 
BRANCH  20  23
ATOM     21  O   UNL     1      27.106 -24.386 -17.399  0.00  0.00    -0.163 OA
ATOM     22  N   UNL     1      27.483 -23.532 -16.534  0.00  0.00    -0.127 N 
ATOM     23  C   UNL     1      29.111 -22.741 -14.957  0.00  0.00    +0.018 C 
ATOM     24  C   UNL     1      28.701 -23.669 -15.898  0.00  0.00    +0.119 C 
ATOM     25  C   UNL     1      28.309 -21.661 -14.638  0.00  0.00    +0.001 C 
ATOM     26  C   UNL     1      27.080 -21.514 -15.272  0.00  0.00    +0.022 C 
ATOM     27  C   UNL     1      26.680 -22.453 -16.217  0.00  0.00    +0.121 C 
ENDBRANCH  20  23
ENDBRANCH  18  20
ENDBRANCH   5  18
TORSDOF 4
ENDMDL
