MODEL 1
REMARK VINA RESULT:     -11.6      0.000      0.000
REMARK  Name = 46912230
REMARK  2 active torsions:
REMARK  status: ('A' for Active; 'I' for Inactive)
REMARK    1  A    between atoms: N_2  and  C_26
REMARK    2  A    between atoms: C_15  and  C_20
REMARK                            x       y       z     vdW  Elec       q    Type
REMARK                         _______ _______ _______ _____ _____    ______ ____
ROOT
ATOM      1  O   UNL     1      27.935 -24.021 -14.943  0.00  0.00    -0.350 OA
ATOM      2  N   UNL     1      35.254 -23.394 -14.823  0.00  0.00    -0.240 N 
ATOM      3  N   UNL     1      30.598 -23.520 -15.689  0.00  0.00    -0.229 N 
ATOM      4  N   UNL     1      32.846 -23.570 -15.088  0.00  0.00    -0.310 NA
ATOM      5  N   UNL     1      35.753 -22.215 -16.648  0.00  0.00    -0.384 NA
ATOM      6  N   UNL     1      32.092 -22.444 -17.117  0.00  0.00    -0.326 NA
ATOM      7  C   UNL     1      34.069 -23.170 -15.465  0.00  0.00    +0.235 C 
ATOM      8  C   UNL     1      29.520 -22.633 -16.145  0.00  0.00    +0.135 C 
ATOM      9  C   UNL     1      30.300 -24.295 -14.479  0.00  0.00    +0.135 C 
ATOM     10  C   UNL     1      34.401 -22.438 -16.594  0.00  0.00    +0.208 C 
ATOM     11  C   UNL     1      31.918 -23.159 -15.980  0.00  0.00    +0.204 C 
ATOM     12  C   UNL     1      36.235 -22.800 -15.572  0.00  0.00    +0.166 C 
ATOM     13  C   UNL     1      28.207 -23.404 -16.202  0.00  0.00    +0.164 C 
ATOM     14  C   UNL     1      28.946 -24.977 -14.625  0.00  0.00    +0.164 C 
ATOM     15  C   UNL     1      33.355 -22.073 -17.436  0.00  0.00    +0.178 C 
ATOM     16  C   UNL     1      37.658 -22.842 -15.174  0.00  0.00    +0.084 C 
ENDROOT
BRANCH  15  20
ATOM     17  N   UNL     1      35.069 -20.339 -20.245  0.00  0.00    -0.203 NA
ATOM     18  N   UNL     1      32.687 -20.086 -20.508  0.00  0.00    -0.181 NA
ATOM     19  N   UNL     1      34.177 -19.148 -22.059  0.00  0.00    -0.303 N 
ATOM     20  C   UNL     1      33.568 -21.315 -18.636  0.00  0.00    +0.056 C 
ATOM     21  C   UNL     1      34.832 -21.049 -19.122  0.00  0.00    +0.168 C 
ATOM     22  C   UNL     1      32.523 -20.803 -19.377  0.00  0.00    +0.111 C 
ATOM     23  C   UNL     1      33.967 -19.895 -20.879  0.00  0.00    +0.084 C 
ATOM     24  H   UNL     1      35.093 -18.977 -22.377  0.00  0.00    +0.154 HD
ATOM     25  H   UNL     1      33.407 -18.798 -22.564  0.00  0.00    +0.154 HD
ENDBRANCH  15  20
BRANCH   2  26
ATOM     26  C   UNL     1      35.430 -24.118 -13.586  0.00  0.00    +0.082 C 
ATOM     27  C   UNL     1      36.402 -25.288 -13.752  0.00  0.00    +0.022 C 
ATOM     28  C   UNL     1      35.877 -23.193 -12.451  0.00  0.00    +0.022 C 
ENDBRANCH   2  26
TORSDOF 2
ENDMDL
MODEL 2
REMARK VINA RESULT:     -11.4      2.380      5.221
REMARK  Name = 46912230
REMARK  2 active torsions:
REMARK  status: ('A' for Active; 'I' for Inactive)
REMARK    1  A    between atoms: N_2  and  C_26
REMARK    2  A    between atoms: C_15  and  C_20
REMARK                            x       y       z     vdW  Elec       q    Type
REMARK                         _______ _______ _______ _____ _____    ______ ____
ROOT
ATOM      1  O   UNL     1      38.200 -25.227 -12.876  0.00  0.00    -0.350 OA
ATOM      2  N   UNL     1      31.322 -23.617 -14.893  0.00  0.00    -0.240 N 
ATOM      3  N   UNL     1      35.979 -24.082 -14.163  0.00  0.00    -0.229 N 
ATOM      4  N   UNL     1      33.662 -23.966 -14.344  0.00  0.00    -0.310 NA
ATOM      5  N   UNL     1      31.542 -22.430 -16.767  0.00  0.00    -0.384 NA
ATOM      6  N   UNL     1      35.125 -22.921 -15.994  0.00  0.00    -0.326 NA
ATOM      7  C   UNL     1      32.665 -23.486 -15.102  0.00  0.00    +0.235 C 
ATOM      8  C   UNL     1      37.206 -24.371 -14.916  0.00  0.00    +0.135 C 
ATOM      9  C   UNL     1      35.802 -24.863 -12.934  0.00  0.00    +0.135 C 
ATOM     10  C   UNL     1      32.780 -22.746 -16.268  0.00  0.00    +0.208 C 
ATOM     11  C   UNL     1      34.860 -23.632 -14.872  0.00  0.00    +0.204 C 
ATOM     12  C   UNL     1      30.690 -22.967 -15.920  0.00  0.00    +0.166 C 
ATOM     13  C   UNL     1      38.407 -24.342 -13.978  0.00  0.00    +0.164 C 
ATOM     14  C   UNL     1      37.077 -24.808 -12.100  0.00  0.00    +0.164 C 
ATOM     15  C   UNL     1      34.070 -22.466 -16.711  0.00  0.00    +0.178 C 
ATOM     16  C   UNL     1      29.216 -22.904 -16.019  0.00  0.00    +0.084 C 
ENDROOT
BRANCH  15  20
ATOM     17  N   UNL     1      35.861 -20.579 -19.368  0.00  0.00    -0.203 NA
ATOM     18  N   UNL     1      33.512 -20.644 -19.904  0.00  0.00    -0.181 NA
ATOM     19  N   UNL     1      35.039 -19.550 -21.310  0.00  0.00    -0.303 N 
ATOM     20  C   UNL     1      34.321 -21.710 -17.904  0.00  0.00    +0.056 C 
ATOM     21  C   UNL     1      35.588 -21.291 -18.255  0.00  0.00    +0.168 C 
ATOM     22  C   UNL     1      33.312 -21.354 -18.775  0.00  0.00    +0.111 C 
ATOM     23  C   UNL     1      34.791 -20.294 -20.136  0.00  0.00    +0.084 C 
ATOM     24  H   UNL     1      35.956 -19.267 -21.530  0.00  0.00    +0.154 HD
ATOM     25  H   UNL     1      34.294 -19.314 -21.910  0.00  0.00    +0.154 HD
ENDBRANCH  15  20
BRANCH   2  26
ATOM     26  C   UNL     1      30.694 -24.314 -13.795  0.00  0.00    +0.082 C 
ATOM     27  C   UNL     1      30.237 -23.347 -12.701  0.00  0.00    +0.022 C 
ATOM     28  C   UNL     1      29.530 -25.186 -14.275  0.00  0.00    +0.022 C 
ENDBRANCH   2  26
TORSDOF 2
ENDMDL
MODEL 3
REMARK VINA RESULT:     -10.9      2.475      6.760
REMARK  Name = 46912230
REMARK  2 active torsions:
REMARK  status: ('A' for Active; 'I' for Inactive)
REMARK    1  A    between atoms: N_2  and  C_26
REMARK    2  A    between atoms: C_15  and  C_20
REMARK                            x       y       z     vdW  Elec       q    Type
REMARK                         _______ _______ _______ _____ _____    ______ ____
ROOT
ATOM      1  O   UNL     1      34.469 -19.930 -20.530  0.00  0.00    -0.350 OA
ATOM      2  N   UNL     1      30.927 -23.381 -15.097  0.00  0.00    -0.240 N 
ATOM      3  N   UNL     1      33.872 -21.610 -18.357  0.00  0.00    -0.229 N 
ATOM      4  N   UNL     1      32.267 -22.390 -16.864  0.00  0.00    -0.310 NA
ATOM      5  N   UNL     1      32.534 -24.358 -13.901  0.00  0.00    -0.384 NA
ATOM      6  N   UNL     1      34.638 -22.879 -16.559  0.00  0.00    -0.326 NA
ATOM      7  C   UNL     1      32.099 -23.103 -15.741  0.00  0.00    +0.235 C 
ATOM      8  C   UNL     1      35.176 -20.938 -18.440  0.00  0.00    +0.135 C 
ATOM      9  C   UNL     1      32.793 -20.976 -19.122  0.00  0.00    +0.135 C 
ATOM     10  C   UNL     1      33.083 -23.718 -14.984  0.00  0.00    +0.208 C 
ATOM     11  C   UNL     1      33.575 -22.332 -17.197  0.00  0.00    +0.204 C 
ATOM     12  C   UNL     1      31.241 -24.137 -13.999  0.00  0.00    +0.166 C 
ATOM     13  C   UNL     1      35.521 -20.660 -19.898  0.00  0.00    +0.164 C 
ATOM     14  C   UNL     1      33.264 -20.696 -20.544  0.00  0.00    +0.164 C 
ATOM     15  C   UNL     1      34.394 -23.586 -15.430  0.00  0.00    +0.178 C 
ATOM     16  C   UNL     1      30.207 -24.623 -13.061  0.00  0.00    +0.084 C 
ENDROOT
BRANCH  15  20
ATOM     17  N   UNL     1      37.375 -23.962 -13.238  0.00  0.00    -0.203 NA
ATOM     18  N   UNL     1      36.847 -26.102 -14.211  0.00  0.00    -0.181 NA
ATOM     19  N   UNL     1      38.665 -25.860 -12.748  0.00  0.00    -0.303 N 
ATOM     20  C   UNL     1      35.502 -24.176 -14.734  0.00  0.00    +0.056 C 
ATOM     21  C   UNL     1      36.325 -23.441 -13.907  0.00  0.00    +0.168 C 
ATOM     22  C   UNL     1      35.813 -25.515 -14.850  0.00  0.00    +0.111 C 
ATOM     23  C   UNL     1      37.575 -25.280 -13.433  0.00  0.00    +0.084 C 
ATOM     24  H   UNL     1      39.233 -25.305 -12.166  0.00  0.00    +0.154 HD
ATOM     25  H   UNL     1      38.858 -26.820 -12.854  0.00  0.00    +0.154 HD
ENDBRANCH  15  20
BRANCH   2  26
ATOM     26  C   UNL     1      29.609 -22.953 -15.504  0.00  0.00    +0.082 C 
ATOM     27  C   UNL     1      28.656 -24.140 -15.667  0.00  0.00    +0.022 C 
ATOM     28  C   UNL     1      29.030 -21.917 -14.536  0.00  0.00    +0.022 C 
ENDBRANCH   2  26
TORSDOF 2
ENDMDL
MODEL 4
REMARK VINA RESULT:     -10.3      1.406      5.546
REMARK  Name = 46912230
REMARK  2 active torsions:
REMARK  status: ('A' for Active; 'I' for Inactive)
REMARK    1  A    between atoms: N_2  and  C_26
REMARK    2  A    between atoms: C_15  and  C_20
REMARK                            x       y       z     vdW  Elec       q    Type
REMARK                         _______ _______ _______ _____ _____    ______ ____
ROOT
ATOM      1  O   UNL     1      28.033 -23.891 -15.012  0.00  0.00    -0.350 OA
ATOM      2  N   UNL     1      33.854 -21.405 -18.742  0.00  0.00    -0.240 N 
ATOM      3  N   UNL     1      30.647 -23.128 -15.712  0.00  0.00    -0.229 N 
ATOM      4  N   UNL     1      32.060 -22.220 -17.322  0.00  0.00    -0.310 NA
ATOM      5  N   UNL     1      35.616 -22.017 -17.521  0.00  0.00    -0.384 NA
ATOM      6  N   UNL     1      32.936 -23.284 -15.309  0.00  0.00    -0.326 NA
ATOM      7  C   UNL     1      33.349 -22.019 -17.631  0.00  0.00    +0.235 C 
ATOM      8  C   UNL     1      30.418 -24.318 -14.882  0.00  0.00    +0.135 C 
ATOM      9  C   UNL     1      29.507 -22.714 -16.538  0.00  0.00    +0.135 C 
ATOM     10  C   UNL     1      34.457 -22.391 -16.887  0.00  0.00    +0.208 C 
ATOM     11  C   UNL     1      31.952 -22.862 -16.138  0.00  0.00    +0.204 C 
ATOM     12  C   UNL     1      35.219 -21.429 -18.630  0.00  0.00    +0.166 C 
ATOM     13  C   UNL     1      29.109 -24.168 -14.115  0.00  0.00    +0.164 C 
ATOM     14  C   UNL     1      28.247 -22.649 -15.683  0.00  0.00    +0.164 C 
ATOM     15  C   UNL     1      34.216 -23.047 -15.684  0.00  0.00    +0.178 C 
ATOM     16  C   UNL     1      36.101 -20.848 -19.663  0.00  0.00    +0.084 C 
ENDROOT
BRANCH  15  20
ATOM     17  N   UNL     1      37.108 -22.969 -13.347  0.00  0.00    -0.203 NA
ATOM     18  N   UNL     1      36.537 -25.265 -13.807  0.00  0.00    -0.181 NA
ATOM     19  N   UNL     1      38.313 -24.730 -12.371  0.00  0.00    -0.303 N 
ATOM     20  C   UNL     1      35.279 -23.484 -14.824  0.00  0.00    +0.056 C 
ATOM     21  C   UNL     1      36.099 -22.595 -14.162  0.00  0.00    +0.168 C 
ATOM     22  C   UNL     1      35.546 -24.820 -14.608  0.00  0.00    +0.111 C 
ATOM     23  C   UNL     1      37.267 -24.300 -13.217  0.00  0.00    +0.084 C 
ATOM     24  H   UNL     1      38.880 -24.068 -11.914  0.00  0.00    +0.154 HD
ATOM     25  H   UNL     1      38.476 -25.692 -12.239  0.00  0.00    +0.154 HD
ENDBRANCH  15  20
BRANCH   2  26
ATOM     26  C   UNL     1      33.086 -20.840 -19.827  0.00  0.00    +0.082 C 
ATOM     27  C   UNL     1      31.730 -20.320 -19.347  0.00  0.00    +0.022 C 
ATOM     28  C   UNL     1      33.865 -19.742 -20.556  0.00  0.00    +0.022 C 
ENDBRANCH   2  26
TORSDOF 2
ENDMDL
MODEL 5
REMARK VINA RESULT:     -10.3      1.888      2.674
REMARK  Name = 46912230
REMARK  2 active torsions:
REMARK  status: ('A' for Active; 'I' for Inactive)
REMARK    1  A    between atoms: N_2  and  C_26
REMARK    2  A    between atoms: C_15  and  C_20
REMARK                            x       y       z     vdW  Elec       q    Type
REMARK                         _______ _______ _______ _____ _____    ______ ____
ROOT
ATOM      1  O   UNL     1      29.873 -23.565 -13.414  0.00  0.00    -0.350 OA
ATOM      2  N   UNL     1      37.161 -24.364 -13.878  0.00  0.00    -0.240 N 
ATOM      3  N   UNL     1      32.529 -23.481 -14.329  0.00  0.00    -0.229 N 
ATOM      4  N   UNL     1      34.755 -24.041 -13.944  0.00  0.00    -0.310 NA
ATOM      5  N   UNL     1      37.769 -23.059 -15.579  0.00  0.00    -0.384 NA
ATOM      6  N   UNL     1      34.114 -22.520 -15.741  0.00  0.00    -0.326 NA
ATOM      7  C   UNL     1      36.007 -23.832 -14.377  0.00  0.00    +0.235 C 
ATOM      8  C   UNL     1      31.624 -22.350 -14.571  0.00  0.00    +0.135 C 
ATOM      9  C   UNL     1      32.160 -24.346 -13.203  0.00  0.00    +0.135 C 
ATOM     10  C   UNL     1      36.406 -23.026 -15.431  0.00  0.00    +0.208 C 
ATOM     11  C   UNL     1      33.873 -23.341 -14.690  0.00  0.00    +0.204 C 
ATOM     12  C   UNL     1      38.192 -23.870 -14.633  0.00  0.00    +0.166 C 
ATOM     13  C   UNL     1      30.182 -22.842 -14.605  0.00  0.00    +0.164 C 
ATOM     14  C   UNL     1      30.690 -24.732 -13.310  0.00  0.00    +0.164 C 
ATOM     15  C   UNL     1      35.402 -22.355 -16.124  0.00  0.00    +0.178 C 
ATOM     16  C   UNL     1      39.600 -24.236 -14.373  0.00  0.00    +0.084 C 
ENDROOT
BRANCH  15  20
ATOM     17  N   UNL     1      35.296 -20.833 -19.516  0.00  0.00    -0.203 NA
ATOM     18  N   UNL     1      36.904 -19.640 -18.175  0.00  0.00    -0.181 NA
ATOM     19  N   UNL     1      36.498 -19.024 -20.402  0.00  0.00    -0.303 N 
ATOM     20  C   UNL     1      35.686 -21.490 -17.234  0.00  0.00    +0.056 C 
ATOM     21  C   UNL     1      35.053 -21.627 -18.451  0.00  0.00    +0.168 C 
ATOM     22  C   UNL     1      36.612 -20.470 -17.152  0.00  0.00    +0.111 C 
ATOM     23  C   UNL     1      36.219 -19.874 -19.310  0.00  0.00    +0.084 C 
ATOM     24  H   UNL     1      36.028 -19.150 -21.258  0.00  0.00    +0.154 HD
ATOM     25  H   UNL     1      37.165 -18.305 -20.308  0.00  0.00    +0.154 HD
ENDBRANCH  15  20
BRANCH   2  26
ATOM     26  C   UNL     1      37.267 -25.275 -12.762  0.00  0.00    +0.082 C 
ATOM     27  C   UNL     1      36.575 -24.721 -11.515  0.00  0.00    +0.022 C 
ATOM     28  C   UNL     1      36.727 -26.663 -13.116  0.00  0.00    +0.022 C 
ENDBRANCH   2  26
TORSDOF 2
ENDMDL
MODEL 6
REMARK VINA RESULT:      -9.9      2.687      6.931
REMARK  Name = 46912230
REMARK  2 active torsions:
REMARK  status: ('A' for Active; 'I' for Inactive)
REMARK    1  A    between atoms: N_2  and  C_26
REMARK    2  A    between atoms: C_15  and  C_20
REMARK                            x       y       z     vdW  Elec       q    Type
REMARK                         _______ _______ _______ _____ _____    ______ ____
ROOT
ATOM      1  O   UNL     1      38.782 -24.252 -13.040  0.00  0.00    -0.350 OA
ATOM      2  N   UNL     1      34.296 -21.705 -18.272  0.00  0.00    -0.240 N 
ATOM      3  N   UNL     1      36.513 -23.764 -14.628  0.00  0.00    -0.229 N 
ATOM      4  N   UNL     1      35.616 -22.697 -16.491  0.00  0.00    -0.310 NA
ATOM      5  N   UNL     1      32.249 -22.255 -17.583  0.00  0.00    -0.384 NA
ATOM      6  N   UNL     1      34.193 -23.790 -14.837  0.00  0.00    -0.326 NA
ATOM      7  C   UNL     1      34.464 -22.399 -17.107  0.00  0.00    +0.235 C 
ATOM      8  C   UNL     1      36.386 -23.897 -13.170  0.00  0.00    +0.135 C 
ATOM      9  C   UNL     1      37.848 -23.386 -15.106  0.00  0.00    +0.135 C 
ATOM     10  C   UNL     1      33.182 -22.731 -16.697  0.00  0.00    +0.208 C 
ATOM     11  C   UNL     1      35.379 -23.396 -15.359  0.00  0.00    +0.204 C 
ATOM     12  C   UNL     1      32.950 -21.645 -18.516  0.00  0.00    +0.166 C 
ATOM     13  C   UNL     1      37.514 -24.767 -12.630  0.00  0.00    +0.164 C 
ATOM     14  C   UNL     1      38.899 -24.283 -14.463  0.00  0.00    +0.164 C 
ATOM     15  C   UNL     1      33.069 -23.454 -15.513  0.00  0.00    +0.178 C 
ATOM     16  C   UNL     1      32.398 -20.962 -19.704  0.00  0.00    +0.084 C 
ENDROOT
BRANCH  15  20
ATOM     17  N   UNL     1      30.478 -24.713 -13.161  0.00  0.00    -0.203 NA
ATOM     18  N   UNL     1      29.429 -24.177 -15.263  0.00  0.00    -0.181 NA
ATOM     19  N   UNL     1      28.171 -25.011 -13.468  0.00  0.00    -0.303 N 
ATOM     20  C   UNL     1      31.798 -23.857 -14.982  0.00  0.00    +0.056 C 
ATOM     21  C   UNL     1      31.656 -24.324 -13.692  0.00  0.00    +0.168 C 
ATOM     22  C   UNL     1      30.640 -23.805 -15.730  0.00  0.00    +0.111 C 
ATOM     23  C   UNL     1      29.421 -24.614 -13.990  0.00  0.00    +0.084 C 
ATOM     24  H   UNL     1      28.106 -25.340 -12.543  0.00  0.00    +0.154 HD
ATOM     25  H   UNL     1      27.364 -24.960 -14.030  0.00  0.00    +0.154 HD
ENDBRANCH  15  20
BRANCH   2  26
ATOM     26  C   UNL     1      35.348 -21.143 -19.087  0.00  0.00    +0.082 C 
ATOM     27  C   UNL     1      34.795 -20.158 -20.120  0.00  0.00    +0.022 C 
ATOM     28  C   UNL     1      36.432 -20.484 -18.230  0.00  0.00    +0.022 C 
ENDBRANCH   2  26
TORSDOF 2
ENDMDL
MODEL 7
REMARK VINA RESULT:      -9.6      2.565      5.998
REMARK  Name = 46912230
REMARK  2 active torsions:
REMARK  status: ('A' for Active; 'I' for Inactive)
REMARK    1  A    between atoms: N_2  and  C_26
REMARK    2  A    between atoms: C_15  and  C_20
REMARK                            x       y       z     vdW  Elec       q    Type
REMARK                         _______ _______ _______ _____ _____    ______ ____
ROOT
ATOM      1  O   UNL     1      34.756 -20.386 -20.471  0.00  0.00    -0.350 OA
ATOM      2  N   UNL     1      36.600 -23.897 -14.286  0.00  0.00    -0.240 N 
ATOM      3  N   UNL     1      34.632 -21.653 -17.964  0.00  0.00    -0.229 N 
ATOM      4  N   UNL     1      35.788 -22.698 -16.235  0.00  0.00    -0.310 NA
ATOM      5  N   UNL     1      34.660 -24.546 -13.401  0.00  0.00    -0.384 NA
ATOM      6  N   UNL     1      33.351 -22.735 -16.347  0.00  0.00    -0.326 NA
ATOM      7  C   UNL     1      35.627 -23.416 -15.115  0.00  0.00    +0.235 C 
ATOM      8  C   UNL     1      33.558 -21.844 -18.947  0.00  0.00    +0.135 C 
ATOM      9  C   UNL     1      35.925 -21.242 -18.524  0.00  0.00    +0.135 C 
ATOM     10  C   UNL     1      34.432 -23.829 -14.548  0.00  0.00    +0.208 C 
ATOM     11  C   UNL     1      34.589 -22.403 -16.784  0.00  0.00    +0.204 C 
ATOM     12  C   UNL     1      35.970 -24.569 -13.272  0.00  0.00    +0.166 C 
ATOM     13  C   UNL     1      33.484 -20.636 -19.873  0.00  0.00    +0.164 C 
ATOM     14  C   UNL     1      35.725 -20.066 -19.472  0.00  0.00    +0.164 C 
ATOM     15  C   UNL     1      33.263 -23.462 -15.208  0.00  0.00    +0.178 C 
ATOM     16  C   UNL     1      36.721 -25.227 -12.183  0.00  0.00    +0.084 C 
ENDROOT
BRANCH  15  20
ATOM     17  N   UNL     1      30.559 -24.665 -12.956  0.00  0.00    -0.203 NA
ATOM     18  N   UNL     1      29.595 -24.058 -15.079  0.00  0.00    -0.181 NA
ATOM     19  N   UNL     1      28.253 -24.876 -13.336  0.00  0.00    -0.303 N 
ATOM     20  C   UNL     1      31.964 -23.829 -14.722  0.00  0.00    +0.056 C 
ATOM     21  C   UNL     1      31.766 -24.311 -13.445  0.00  0.00    +0.168 C 
ATOM     22  C   UNL     1      30.831 -23.723 -15.503  0.00  0.00    +0.111 C 
ATOM     23  C   UNL     1      29.532 -24.515 -13.814  0.00  0.00    +0.084 C 
ATOM     24  H   UNL     1      28.148 -25.217 -12.419  0.00  0.00    +0.154 HD
ATOM     25  H   UNL     1      27.466 -24.787 -13.921  0.00  0.00    +0.154 HD
ENDBRANCH  15  20
BRANCH   2  26
ATOM     26  C   UNL     1      38.025 -23.727 -14.456  0.00  0.00    +0.082 C 
ATOM     27  C   UNL     1      38.734 -25.070 -14.645  0.00  0.00    +0.022 C 
ATOM     28  C   UNL     1      38.344 -22.774 -15.610  0.00  0.00    +0.022 C 
ENDBRANCH   2  26
TORSDOF 2
ENDMDL
MODEL 8
REMARK VINA RESULT:      -9.1      2.817      6.641
REMARK  Name = 46912230
REMARK  2 active torsions:
REMARK  status: ('A' for Active; 'I' for Inactive)
REMARK    1  A    between atoms: N_2  and  C_26
REMARK    2  A    between atoms: C_15  and  C_20
REMARK                            x       y       z     vdW  Elec       q    Type
REMARK                         _______ _______ _______ _____ _____    ______ ____
ROOT
ATOM      1  O   UNL     1      37.603 -23.623 -10.913  0.00  0.00    -0.350 OA
ATOM      2  N   UNL     1      34.822 -21.917 -17.495  0.00  0.00    -0.240 N 
ATOM      3  N   UNL     1      35.898 -23.436 -13.139  0.00  0.00    -0.229 N 
ATOM      4  N   UNL     1      35.573 -22.632 -15.299  0.00  0.00    -0.310 NA
ATOM      5  N   UNL     1      32.673 -22.495 -17.371  0.00  0.00    -0.384 NA
ATOM      6  N   UNL     1      33.744 -23.609 -14.011  0.00  0.00    -0.326 NA
ATOM      7  C   UNL     1      34.649 -22.466 -16.257  0.00  0.00    +0.235 C 
ATOM      8  C   UNL     1      35.347 -23.412 -11.778  0.00  0.00    +0.135 C 
ATOM      9  C   UNL     1      37.307 -23.043 -13.250  0.00  0.00    +0.135 C 
ATOM     10  C   UNL     1      33.310 -22.818 -16.200  0.00  0.00    +0.208 C 
ATOM     11  C   UNL     1      35.025 -23.213 -14.209  0.00  0.00    +0.204 C 
ATOM     12  C   UNL     1      33.607 -21.957 -18.126  0.00  0.00    +0.166 C 
ATOM     13  C   UNL     1      36.281 -24.155 -10.830  0.00  0.00    +0.164 C 
ATOM     14  C   UNL     1      38.137 -23.806 -12.224  0.00  0.00    +0.164 C 
ATOM     15  C   UNL     1      32.865 -23.410 -15.022  0.00  0.00    +0.178 C 
ATOM     16  C   UNL     1      33.419 -21.440 -19.498  0.00  0.00    +0.084 C 
ENDROOT
BRANCH  15  20
ATOM     17  N   UNL     1      29.198 -23.761 -15.535  0.00  0.00    -0.203 NA
ATOM     18  N   UNL     1      29.846 -25.064 -13.614  0.00  0.00    -0.181 NA
ATOM     19  N   UNL     1      27.609 -24.987 -14.318  0.00  0.00    -0.303 N 
ATOM     20  C   UNL     1      31.502 -23.819 -14.840  0.00  0.00    +0.056 C 
ATOM     21  C   UNL     1      30.490 -23.397 -15.677  0.00  0.00    +0.168 C 
ATOM     22  C   UNL     1      31.118 -24.660 -13.815  0.00  0.00    +0.111 C 
ATOM     23  C   UNL     1      28.951 -24.584 -14.498  0.00  0.00    +0.084 C 
ATOM     24  H   UNL     1      26.912 -24.666 -14.934  0.00  0.00    +0.154 HD
ATOM     25  H   UNL     1      27.371 -25.588 -13.576  0.00  0.00    +0.154 HD
ENDBRANCH  15  20
BRANCH   2  26
ATOM     26  C   UNL     1      36.057 -21.393 -18.030  0.00  0.00    +0.082 C 
ATOM     27  C   UNL     1      35.821 -20.594 -19.314  0.00  0.00    +0.022 C 
ATOM     28  C   UNL     1      36.808 -20.553 -16.994  0.00  0.00    +0.022 C 
ENDBRANCH   2  26
TORSDOF 2
ENDMDL
