MODEL 1
REMARK VINA RESULT:     -11.2      0.000      0.000
REMARK  Name = 72078
REMARK  8 active torsions:
REMARK  status: ('A' for Active; 'I' for Inactive)
REMARK    1  A    between atoms: C_6  and  O_21
REMARK    2  A    between atoms: C_6  and  C_26
REMARK    3  A    between atoms: C_9  and  O_23
REMARK    4  A    between atoms: C_26  and  C_27
REMARK    5  A    between atoms: C_27  and  O_28
REMARK    6  A    between atoms: O_28  and  P_29
REMARK    7  A    between atoms: P_29  and  O_31
REMARK    8  A    between atoms: P_29  and  O_33
REMARK                            x       y       z     vdW  Elec       q    Type
REMARK                         _______ _______ _______ _____ _____    ______ ____
ROOT
ATOM      1  O   UNL     1      39.486 -26.120 -14.210  0.00  0.00    -0.287 OA
ATOM      2  C   UNL     1      31.793 -23.222 -14.492  0.00  0.00    +0.031 C 
ATOM      3  C   UNL     1      32.901 -23.112 -15.563  0.00  0.00    +0.003 C 
ATOM      4  C   UNL     1      34.283 -22.769 -14.987  0.00  0.00    +0.003 C 
ATOM      5  C   UNL     1      34.704 -23.899 -13.982  0.00  0.00    +0.034 C 
ATOM      6  C   UNL     1      30.575 -23.502 -15.414  0.00  0.00    +0.141 C 
ATOM      7  C   UNL     1      32.191 -24.359 -13.529  0.00  0.00    +0.032 C 
ATOM      8  C   UNL     1      32.289 -22.188 -16.612  0.00  0.00    +0.003 C 
ATOM      9  C   UNL     1      33.596 -24.174 -12.915  0.00  0.00    +0.111 C 
ATOM     10  C   UNL     1      36.167 -23.685 -13.422  0.00  0.00    +0.036 C 
ATOM     11  C   UNL     1      30.794 -22.568 -16.626  0.00  0.00    +0.034 C 
ATOM     12  C   UNL     1      35.314 -22.617 -16.117  0.00  0.00    +0.004 C 
ATOM     13  C   UNL     1      31.561 -21.897 -13.713  0.00  0.00    +0.003 C 
ATOM     14  C   UNL     1      36.728 -22.404 -15.589  0.00  0.00    +0.022 C 
ATOM     15  C   UNL     1      37.095 -23.507 -14.630  0.00  0.00    -0.038 C 
ATOM     16  C   UNL     1      36.317 -22.445 -12.513  0.00  0.00    +0.009 C 
ATOM     17  C   UNL     1      36.583 -24.883 -12.581  0.00  0.00    -0.020 C 
ATOM     18  C   UNL     1      38.156 -24.292 -14.878  0.00  0.00    +0.034 C 
ATOM     19  C   UNL     1      37.636 -25.669 -12.824  0.00  0.00    +0.038 C 
ATOM     20  C   UNL     1      38.507 -25.416 -13.987  0.00  0.00    +0.195 C 
ENDROOT
BRANCH   6  21
ATOM     21  O   UNL     1      30.562 -24.856 -15.857  0.00  0.00    -0.380 OA
ATOM     22  H   UNL     1      29.883 -25.349 -15.371  0.00  0.00    +0.211 HD
ENDBRANCH   6  21
BRANCH   9  23
ATOM     23  O   UNL     1      33.557 -23.144 -11.937  0.00  0.00    -0.384 OA
ATOM     24  H   UNL     1      33.887 -22.318 -12.323  0.00  0.00    +0.210 HD
ENDBRANCH   9  23
BRANCH   6  26
ATOM     25  O   UNL     1      28.672 -24.238 -14.184  0.00  0.00    -0.291 OA
ATOM     26  C   UNL     1      29.240 -23.312 -14.760  0.00  0.00    +0.205 C 
BRANCH  26  27
ATOM     27  C   UNL     1      28.641 -21.923 -14.854  0.00  0.00    +0.220 C 
BRANCH  27  28
ATOM     28  O   UNL     1      28.298 -21.618 -16.189  0.00  0.00    -0.265 OA
BRANCH  28  29
ATOM     29  P   UNL     1      26.803 -21.969 -16.707  0.00  0.00    +0.473 P 
ATOM     30  O   UNL     1      26.716 -23.144 -17.637  0.00  0.00    -0.227 OA
BRANCH  29  31
ATOM     31  O   UNL     1      26.268 -20.569 -17.312  0.00  0.00    -0.303 OA
ATOM     32  H   UNL     1      26.993 -20.117 -17.773  0.00  0.00    +0.222 HD
ENDBRANCH  29  31
BRANCH  29  33
ATOM     33  O   UNL     1      25.966 -22.125 -15.331  0.00  0.00    -0.303 OA
ATOM     34  H   UNL     1      25.426 -22.930 -15.371  0.00  0.00    +0.222 HD
ENDBRANCH  29  33
ENDBRANCH  28  29
ENDBRANCH  27  28
ENDBRANCH  26  27
ENDBRANCH   6  26
TORSDOF 8
ENDMDL
MODEL 2
REMARK VINA RESULT:      -8.7      2.957      8.399
REMARK  Name = 72078
REMARK  8 active torsions:
REMARK  status: ('A' for Active; 'I' for Inactive)
REMARK    1  A    between atoms: C_6  and  O_21
REMARK    2  A    between atoms: C_6  and  C_26
REMARK    3  A    between atoms: C_9  and  O_23
REMARK    4  A    between atoms: C_26  and  C_27
REMARK    5  A    between atoms: C_27  and  O_28
REMARK    6  A    between atoms: O_28  and  P_29
REMARK    7  A    between atoms: P_29  and  O_31
REMARK    8  A    between atoms: P_29  and  O_33
REMARK                            x       y       z     vdW  Elec       q    Type
REMARK                         _______ _______ _______ _____ _____    ______ ____
ROOT
ATOM      1  O   UNL     1      27.217 -21.268 -15.470  0.00  0.00    -0.287 OA
ATOM      2  C   UNL     1      34.811 -23.780 -13.552  0.00  0.00    +0.031 C 
ATOM      3  C   UNL     1      34.378 -22.779 -14.647  0.00  0.00    +0.003 C 
ATOM      4  C   UNL     1      33.139 -23.227 -15.435  0.00  0.00    +0.003 C 
ATOM      5  C   UNL     1      31.938 -23.389 -14.437  0.00  0.00    +0.034 C 
ATOM      6  C   UNL     1      36.081 -23.053 -13.031  0.00  0.00    +0.141 C 
ATOM      7  C   UNL     1      33.644 -23.907 -12.552  0.00  0.00    +0.032 C 
ATOM      8  C   UNL     1      35.674 -22.499 -15.403  0.00  0.00    +0.003 C 
ATOM      9  C   UNL     1      32.308 -24.298 -13.222  0.00  0.00    +0.111 C 
ATOM     10  C   UNL     1      30.588 -23.742 -15.181  0.00  0.00    +0.036 C 
ATOM     11  C   UNL     1      36.762 -22.515 -14.310  0.00  0.00    +0.034 C 
ATOM     12  C   UNL     1      32.810 -22.212 -16.542  0.00  0.00    +0.004 C 
ATOM     13  C   UNL     1      35.205 -25.173 -14.117  0.00  0.00    +0.003 C 
ATOM     14  C   UNL     1      31.513 -22.546 -17.270  0.00  0.00    +0.022 C 
ATOM     15  C   UNL     1      30.385 -22.692 -16.280  0.00  0.00    -0.038 C 
ATOM     16  C   UNL     1      30.580 -25.138 -15.841  0.00  0.00    +0.009 C 
ATOM     17  C   UNL     1      29.431 -23.733 -14.192  0.00  0.00    -0.020 C 
ATOM     18  C   UNL     1      29.304 -21.901 -16.366  0.00  0.00    +0.034 C 
ATOM     19  C   UNL     1      28.354 -22.946 -14.271  0.00  0.00    +0.038 C 
ATOM     20  C   UNL     1      28.210 -21.982 -15.377  0.00  0.00    +0.195 C 
ENDROOT
BRANCH   6  21
ATOM     21  O   UNL     1      35.741 -21.961 -12.182  0.00  0.00    -0.380 OA
ATOM     22  H   UNL     1      35.354 -21.247 -12.714  0.00  0.00    +0.211 HD
ENDBRANCH   6  21
BRANCH   9  23
ATOM     23  O   UNL     1      32.346 -25.668 -13.596  0.00  0.00    -0.384 OA
ATOM     24  H   UNL     1      31.612 -26.139 -13.173  0.00  0.00    +0.210 HD
ENDBRANCH   9  23
BRANCH   6  26
ATOM     25  O   UNL     1      36.581 -24.480 -11.190  0.00  0.00    -0.291 OA
ATOM     26  C   UNL     1      36.990 -23.905 -12.197  0.00  0.00    +0.205 C 
BRANCH  26  27
ATOM     27  C   UNL     1      38.426 -24.009 -12.666  0.00  0.00    +0.220 C 
BRANCH  27  28
ATOM     28  O   UNL     1      38.643 -25.234 -13.336  0.00  0.00    -0.265 OA
BRANCH  28  29
ATOM     29  P   UNL     1      39.988 -25.406 -14.224  0.00  0.00    +0.473 P 
ATOM     30  O   UNL     1      40.871 -26.550 -13.818  0.00  0.00    -0.227 OA
BRANCH  29  31
ATOM     31  O   UNL     1      40.677 -23.945 -14.163  0.00  0.00    -0.303 OA
ATOM     32  H   UNL     1      40.829 -23.621 -15.064  0.00  0.00    +0.222 HD
ENDBRANCH  29  31
BRANCH  29  33
ATOM     33  O   UNL     1      39.420 -25.486 -15.736  0.00  0.00    -0.303 OA
ATOM     34  H   UNL     1      39.218 -24.592 -16.054  0.00  0.00    +0.222 HD
ENDBRANCH  29  33
ENDBRANCH  28  29
ENDBRANCH  27  28
ENDBRANCH  26  27
ENDBRANCH   6  26
TORSDOF 8
ENDMDL
