MODEL 1
REMARK VINA RESULT:     -11.4      0.000      0.000
REMARK  Name = 46937158
REMARK  3 active torsions:
REMARK  status: ('A' for Active; 'I' for Inactive)
REMARK    1  A    between atoms: N_2  and  C_19
REMARK    2  A    between atoms: C_7  and  C_13
REMARK    3  A    between atoms: C_19  and  C_21
REMARK                            x       y       z     vdW  Elec       q    Type
REMARK                         _______ _______ _______ _____ _____    ______ ____
ROOT
ATOM      1  N   UNL     1      31.899 -23.066 -15.390  0.00  0.00    -0.260 N 
ATOM      2  N   UNL     1      33.593 -21.908 -18.470  0.00  0.00    -0.302 N 
ATOM      3  N   UNL     1      34.430 -22.799 -16.480  0.00  0.00    -0.387 NA
ATOM      4  N   UNL     1      30.927 -22.229 -17.215  0.00  0.00    -0.224 NA
ATOM      5  C   UNL     1      32.067 -22.551 -16.649  0.00  0.00    +0.180 C 
ATOM      6  C   UNL     1      33.400 -22.418 -17.208  0.00  0.00    +0.212 C 
ATOM      7  C   UNL     1      34.223 -23.312 -15.200  0.00  0.00    +0.133 C 
ATOM      8  C   UNL     1      32.996 -23.458 -14.650  0.00  0.00    +0.156 C 
ATOM      9  C   UNL     1      30.557 -23.078 -15.134  0.00  0.00    +0.088 C 
ATOM     10  C   UNL     1      29.980 -22.556 -16.273  0.00  0.00    +0.117 C 
ATOM     11  H   UNL     1      32.809 -21.631 -18.998  0.00  0.00    +0.150 HD
ENDROOT
BRANCH   7  13
ATOM     12  F   UNL     1      35.359 -25.890 -15.439  0.00  0.00    -0.204 F 
ATOM     13  C   UNL     1      35.420 -23.734 -14.438  0.00  0.00    +0.055 C 
ATOM     14  C   UNL     1      35.936 -25.019 -14.599  0.00  0.00    +0.142 C 
ATOM     15  C   UNL     1      36.033 -22.841 -13.560  0.00  0.00    +0.005 C 
ATOM     16  C   UNL     1      37.066 -25.412 -13.879  0.00  0.00    +0.030 C 
ATOM     17  C   UNL     1      37.162 -23.232 -12.841  0.00  0.00    +0.000 C 
ATOM     18  C   UNL     1      37.679 -24.519 -13.001  0.00  0.00    +0.002 C 
ENDBRANCH   7  13
BRANCH   2  19
ATOM     19  C   UNL     1      34.894 -21.768 -19.040  0.00  0.00    +0.118 C 
BRANCH  19  21
ATOM     20  N   UNL     1      36.334 -18.578 -20.479  0.00  0.00    -0.243 NA
ATOM     21  C   UNL     1      34.998 -20.478 -19.805  0.00  0.00    +0.017 C 
ATOM     22  C   UNL     1      33.917 -19.982 -20.524  0.00  0.00    +0.001 C 
ATOM     23  C   UNL     1      36.174 -19.745 -19.814  0.00  0.00    +0.096 C 
ATOM     24  C   UNL     1      34.042 -18.786 -21.221  0.00  0.00    +0.020 C 
ATOM     25  C   UNL     1      35.260 -18.128 -21.168  0.00  0.00    +0.099 C 
ENDBRANCH  19  21
ENDBRANCH   2  19
TORSDOF 3
ENDMDL
MODEL 2
REMARK VINA RESULT:     -11.1      1.207      1.596
REMARK  Name = 46937158
REMARK  3 active torsions:
REMARK  status: ('A' for Active; 'I' for Inactive)
REMARK    1  A    between atoms: N_2  and  C_19
REMARK    2  A    between atoms: C_7  and  C_13
REMARK    3  A    between atoms: C_19  and  C_21
REMARK                            x       y       z     vdW  Elec       q    Type
REMARK                         _______ _______ _______ _____ _____    ______ ____
ROOT
ATOM      1  N   UNL     1      32.157 -23.511 -14.541  0.00  0.00    -0.260 N 
ATOM      2  N   UNL     1      33.474 -22.167 -17.727  0.00  0.00    -0.302 N 
ATOM      3  N   UNL     1      34.526 -23.259 -15.950  0.00  0.00    -0.387 NA
ATOM      4  N   UNL     1      30.992 -22.482 -16.139  0.00  0.00    -0.224 NA
ATOM      5  C   UNL     1      32.179 -22.898 -15.766  0.00  0.00    +0.180 C 
ATOM      6  C   UNL     1      33.428 -22.774 -16.494  0.00  0.00    +0.212 C 
ATOM      7  C   UNL     1      34.468 -23.870 -14.698  0.00  0.00    +0.133 C 
ATOM      8  C   UNL     1      33.322 -24.011 -13.994  0.00  0.00    +0.156 C 
ATOM      9  C   UNL     1      30.864 -23.488 -14.100  0.00  0.00    +0.088 C 
ATOM     10  C   UNL     1      30.165 -22.848 -15.102  0.00  0.00    +0.117 C 
ATOM     11  H   UNL     1      32.642 -21.813 -18.116  0.00  0.00    +0.150 HD
ENDROOT
BRANCH   7  13
ATOM     12  F   UNL     1      36.009 -22.481 -12.777  0.00  0.00    -0.204 F 
ATOM     13  C   UNL     1      35.734 -24.405 -14.148  0.00  0.00    +0.055 C 
ATOM     14  C   UNL     1      36.451 -23.674 -13.202  0.00  0.00    +0.142 C 
ATOM     15  C   UNL     1      36.208 -25.644 -14.578  0.00  0.00    +0.005 C 
ATOM     16  C   UNL     1      37.644 -24.182 -12.685  0.00  0.00    +0.030 C 
ATOM     17  C   UNL     1      37.400 -26.152 -14.062  0.00  0.00    +0.000 C 
ATOM     18  C   UNL     1      38.118 -25.421 -13.115  0.00  0.00    +0.002 C 
ENDBRANCH   7  13
BRANCH   2  19
ATOM     19  C   UNL     1      34.691 -22.033 -18.461  0.00  0.00    +0.118 C 
BRANCH  19  21
ATOM     20  N   UNL     1      35.733 -19.135 -20.660  0.00  0.00    -0.243 NA
ATOM     21  C   UNL     1      34.605 -20.876 -19.417  0.00  0.00    +0.017 C 
ATOM     22  C   UNL     1      33.383 -20.468 -19.940  0.00  0.00    +0.001 C 
ATOM     23  C   UNL     1      35.740 -20.184 -19.805  0.00  0.00    +0.096 C 
ATOM     24  C   UNL     1      33.334 -19.394 -20.822  0.00  0.00    +0.020 C 
ATOM     25  C   UNL     1      34.526 -18.767 -21.147  0.00  0.00    +0.099 C 
ENDBRANCH  19  21
ENDBRANCH   2  19
TORSDOF 3
ENDMDL
MODEL 3
REMARK VINA RESULT:     -11.1      1.589      4.564
REMARK  Name = 46937158
REMARK  3 active torsions:
REMARK  status: ('A' for Active; 'I' for Inactive)
REMARK    1  A    between atoms: N_2  and  C_19
REMARK    2  A    between atoms: C_7  and  C_13
REMARK    3  A    between atoms: C_19  and  C_21
REMARK                            x       y       z     vdW  Elec       q    Type
REMARK                         _______ _______ _______ _____ _____    ______ ____
ROOT
ATOM      1  N   UNL     1      34.470 -22.980 -14.379  0.00  0.00    -0.260 N 
ATOM      2  N   UNL     1      34.840 -21.938 -17.910  0.00  0.00    -0.302 N 
ATOM      3  N   UNL     1      32.966 -22.567 -16.666  0.00  0.00    -0.387 NA
ATOM      4  N   UNL     1      36.362 -22.412 -15.412  0.00  0.00    -0.224 NA
ATOM      5  C   UNL     1      35.066 -22.569 -15.542  0.00  0.00    +0.180 C 
ATOM      6  C   UNL     1      34.265 -22.355 -16.733  0.00  0.00    +0.212 C 
ATOM      7  C   UNL     1      32.393 -22.992 -15.467  0.00  0.00    +0.133 C 
ATOM      8  C   UNL     1      33.106 -23.194 -14.336  0.00  0.00    +0.156 C 
ATOM      9  C   UNL     1      35.454 -23.092 -13.438  0.00  0.00    +0.088 C 
ATOM     10  C   UNL     1      36.611 -22.738 -14.099  0.00  0.00    +0.117 C 
ATOM     11  H   UNL     1      35.812 -21.784 -17.938  0.00  0.00    +0.150 HD
ENDROOT
BRANCH   7  13
ATOM     12  F   UNL     1      31.152 -25.039 -13.964  0.00  0.00    -0.204 F 
ATOM     13  C   UNL     1      30.928 -23.200 -15.455  0.00  0.00    +0.055 C 
ATOM     14  C   UNL     1      30.372 -24.227 -14.693  0.00  0.00    +0.142 C 
ATOM     15  C   UNL     1      30.103 -22.365 -16.207  0.00  0.00    +0.005 C 
ATOM     16  C   UNL     1      28.990 -24.419 -14.683  0.00  0.00    +0.030 C 
ATOM     17  C   UNL     1      28.721 -22.556 -16.198  0.00  0.00    +0.000 C 
ATOM     18  C   UNL     1      28.165 -23.584 -15.435  0.00  0.00    +0.002 C 
ENDBRANCH   7  13
BRANCH   2  19
ATOM     19  C   UNL     1      34.072 -21.721 -19.094  0.00  0.00    +0.118 C 
BRANCH  19  21
ATOM     20  N   UNL     1      36.399 -18.993 -20.305  0.00  0.00    -0.243 NA
ATOM     21  C   UNL     1      34.581 -20.518 -19.838  0.00  0.00    +0.017 C 
ATOM     22  C   UNL     1      33.761 -19.822 -20.720  0.00  0.00    +0.001 C 
ATOM     23  C   UNL     1      35.880 -20.068 -19.668  0.00  0.00    +0.096 C 
ATOM     24  C   UNL     1      34.258 -18.712 -21.394  0.00  0.00    +0.020 C 
ATOM     25  C   UNL     1      35.571 -18.341 -21.154  0.00  0.00    +0.099 C 
ENDBRANCH  19  21
ENDBRANCH   2  19
TORSDOF 3
ENDMDL
MODEL 4
REMARK VINA RESULT:     -10.9      2.143      6.571
REMARK  Name = 46937158
REMARK  3 active torsions:
REMARK  status: ('A' for Active; 'I' for Inactive)
REMARK    1  A    between atoms: N_2  and  C_19
REMARK    2  A    between atoms: C_7  and  C_13
REMARK    3  A    between atoms: C_19  and  C_21
REMARK                            x       y       z     vdW  Elec       q    Type
REMARK                         _______ _______ _______ _____ _____    ______ ____
ROOT
ATOM      1  N   UNL     1      31.956 -23.136 -15.906  0.00  0.00    -0.260 N 
ATOM      2  N   UNL     1      35.457 -23.364 -14.727  0.00  0.00    -0.302 N 
ATOM      3  N   UNL     1      34.520 -22.379 -16.627  0.00  0.00    -0.387 NA
ATOM      4  N   UNL     1      32.677 -24.131 -14.045  0.00  0.00    -0.224 NA
ATOM      5  C   UNL     1      33.029 -23.459 -15.116  0.00  0.00    +0.180 C 
ATOM      6  C   UNL     1      34.367 -23.055 -15.506  0.00  0.00    +0.212 C 
ATOM      7  C   UNL     1      33.407 -22.073 -17.410  0.00  0.00    +0.133 C 
ATOM      8  C   UNL     1      32.145 -22.426 -17.075  0.00  0.00    +0.156 C 
ATOM      9  C   UNL     1      30.840 -23.634 -15.296  0.00  0.00    +0.088 C 
ATOM     10  C   UNL     1      31.310 -24.244 -14.151  0.00  0.00    +0.117 C 
ATOM     11  H   UNL     1      35.320 -23.868 -13.893  0.00  0.00    +0.150 HD
ENDROOT
BRANCH   7  13
ATOM     12  F   UNL     1      35.991 -21.657 -18.480  0.00  0.00    -0.204 F 
ATOM     13  C   UNL     1      33.645 -21.302 -18.651  0.00  0.00    +0.055 C 
ATOM     14  C   UNL     1      34.943 -21.130 -19.131  0.00  0.00    +0.142 C 
ATOM     15  C   UNL     1      32.567 -20.748 -19.340  0.00  0.00    +0.005 C 
ATOM     16  C   UNL     1      35.163 -20.403 -20.302  0.00  0.00    +0.030 C 
ATOM     17  C   UNL     1      32.786 -20.021 -20.510  0.00  0.00    +0.000 C 
ATOM     18  C   UNL     1      34.085 -19.849 -20.991  0.00  0.00    +0.002 C 
ENDBRANCH   7  13
BRANCH   2  19
ATOM     19  C   UNL     1      36.782 -22.977 -15.091  0.00  0.00    +0.118 C 
BRANCH  19  21
ATOM     20  N   UNL     1      38.312 -25.778 -13.058  0.00  0.00    -0.243 NA
ATOM     21  C   UNL     1      37.781 -23.980 -14.586  0.00  0.00    +0.017 C 
ATOM     22  C   UNL     1      39.056 -24.061 -15.135  0.00  0.00    +0.001 C 
ATOM     23  C   UNL     1      37.461 -24.853 -13.559  0.00  0.00    +0.096 C 
ATOM     24  C   UNL     1      39.959 -24.998 -14.647  0.00  0.00    +0.020 C 
ATOM     25  C   UNL     1      39.543 -25.826 -13.617  0.00  0.00    +0.099 C 
ENDBRANCH  19  21
ENDBRANCH   2  19
TORSDOF 3
ENDMDL
MODEL 5
REMARK VINA RESULT:     -10.8      2.292      6.266
REMARK  Name = 46937158
REMARK  3 active torsions:
REMARK  status: ('A' for Active; 'I' for Inactive)
REMARK    1  A    between atoms: N_2  and  C_19
REMARK    2  A    between atoms: C_7  and  C_13
REMARK    3  A    between atoms: C_19  and  C_21
REMARK                            x       y       z     vdW  Elec       q    Type
REMARK                         _______ _______ _______ _____ _____    ______ ____
ROOT
ATOM      1  N   UNL     1      31.385 -23.687 -15.108  0.00  0.00    -0.260 N 
ATOM      2  N   UNL     1      34.423 -23.348 -13.023  0.00  0.00    -0.302 N 
ATOM      3  N   UNL     1      33.972 -22.709 -15.224  0.00  0.00    -0.387 NA
ATOM      4  N   UNL     1      31.640 -24.368 -13.000  0.00  0.00    -0.224 NA
ATOM      5  C   UNL     1      32.218 -23.785 -14.025  0.00  0.00    +0.180 C 
ATOM      6  C   UNL     1      33.571 -23.266 -14.099  0.00  0.00    +0.212 C 
ATOM      7  C   UNL     1      33.100 -22.634 -16.310  0.00  0.00    +0.133 C 
ATOM      8  C   UNL     1      31.830 -23.098 -16.275  0.00  0.00    +0.156 C 
ATOM      9  C   UNL     1      30.190 -24.246 -14.752  0.00  0.00    +0.088 C 
ATOM     10  C   UNL     1      30.373 -24.659 -13.449  0.00  0.00    +0.117 C 
ATOM     11  H   UNL     1      34.103 -23.767 -12.192  0.00  0.00    +0.150 HD
ENDROOT
BRANCH   7  13
ATOM     12  F   UNL     1      35.851 -22.180 -16.777  0.00  0.00    -0.204 F 
ATOM     13  C   UNL     1      33.607 -21.985 -17.540  0.00  0.00    +0.055 C 
ATOM     14  C   UNL     1      34.976 -21.788 -17.715  0.00  0.00    +0.142 C 
ATOM     15  C   UNL     1      32.711 -21.572 -18.526  0.00  0.00    +0.005 C 
ATOM     16  C   UNL     1      35.450 -21.178 -18.877  0.00  0.00    +0.030 C 
ATOM     17  C   UNL     1      33.184 -20.962 -19.687  0.00  0.00    +0.000 C 
ATOM     18  C   UNL     1      34.554 -20.765 -19.863  0.00  0.00    +0.002 C 
ENDBRANCH   7  13
BRANCH   2  19
ATOM     19  C   UNL     1      35.758 -22.845 -13.074  0.00  0.00    +0.118 C 
BRANCH  19  21
ATOM     20  N   UNL     1      37.422 -26.240 -13.234  0.00  0.00    -0.243 NA
ATOM     21  C   UNL     1      36.718 -23.937 -13.455  0.00  0.00    +0.017 C 
ATOM     22  C   UNL     1      37.760 -23.696 -14.344  0.00  0.00    +0.001 C 
ATOM     23  C   UNL     1      36.593 -25.214 -12.933  0.00  0.00    +0.096 C 
ATOM     24  C   UNL     1      38.634 -24.725 -14.678  0.00  0.00    +0.020 C 
ATOM     25  C   UNL     1      38.424 -25.968 -14.101  0.00  0.00    +0.099 C 
ENDBRANCH  19  21
ENDBRANCH   2  19
TORSDOF 3
ENDMDL
MODEL 6
REMARK VINA RESULT:     -10.5      2.126      6.336
REMARK  Name = 46937158
REMARK  3 active torsions:
REMARK  status: ('A' for Active; 'I' for Inactive)
REMARK    1  A    between atoms: N_2  and  C_19
REMARK    2  A    between atoms: C_7  and  C_13
REMARK    3  A    between atoms: C_19  and  C_21
REMARK                            x       y       z     vdW  Elec       q    Type
REMARK                         _______ _______ _______ _____ _____    ______ ____
ROOT
ATOM      1  N   UNL     1      33.728 -21.942 -17.983  0.00  0.00    -0.260 N 
ATOM      2  N   UNL     1      36.401 -22.288 -15.447  0.00  0.00    -0.302 N 
ATOM      3  N   UNL     1      34.125 -22.808 -15.383  0.00  0.00    -0.387 NA
ATOM      4  N   UNL     1      35.874 -21.382 -18.219  0.00  0.00    -0.224 NA
ATOM      5  C   UNL     1      34.970 -21.878 -17.407  0.00  0.00    +0.180 C 
ATOM      6  C   UNL     1      35.164 -22.337 -16.044  0.00  0.00    +0.212 C 
ATOM      7  C   UNL     1      32.874 -22.852 -15.998  0.00  0.00    +0.133 C 
ATOM      8  C   UNL     1      32.657 -22.441 -17.268  0.00  0.00    +0.156 C 
ATOM      9  C   UNL     1      33.846 -21.455 -19.253  0.00  0.00    +0.088 C 
ATOM     10  C   UNL     1      35.177 -21.115 -19.375  0.00  0.00    +0.117 C 
ATOM     11  H   UNL     1      37.164 -21.933 -15.959  0.00  0.00    +0.150 HD
ENDROOT
BRANCH   7  13
ATOM     12  F   UNL     1      33.259 -24.316 -13.610  0.00  0.00    -0.204 F 
ATOM     13  C   UNL     1      31.751 -23.403 -15.206  0.00  0.00    +0.055 C 
ATOM     14  C   UNL     1      32.003 -24.117 -14.035  0.00  0.00    +0.142 C 
ATOM     15  C   UNL     1      30.439 -23.205 -15.634  0.00  0.00    +0.005 C 
ATOM     16  C   UNL     1      30.941 -24.634 -13.292  0.00  0.00    +0.030 C 
ATOM     17  C   UNL     1      29.377 -23.722 -14.891  0.00  0.00    +0.000 C 
ATOM     18  C   UNL     1      29.629 -24.436 -13.719  0.00  0.00    +0.002 C 
ENDBRANCH   7  13
BRANCH   2  19
ATOM     19  C   UNL     1      36.616 -22.733 -14.108  0.00  0.00    +0.118 C 
BRANCH  19  21
ATOM     20  N   UNL     1      38.685 -25.685 -12.958  0.00  0.00    -0.243 NA
ATOM     21  C   UNL     1      37.698 -23.776 -14.066  0.00  0.00    +0.017 C 
ATOM     22  C   UNL     1      38.687 -23.821 -15.042  0.00  0.00    +0.001 C 
ATOM     23  C   UNL     1      37.741 -24.721 -13.055  0.00  0.00    +0.096 C 
ATOM     24  C   UNL     1      39.676 -24.796 -14.977  0.00  0.00    +0.020 C 
ATOM     25  C   UNL     1      39.632 -25.696 -13.925  0.00  0.00    +0.099 C 
ENDBRANCH  19  21
ENDBRANCH   2  19
TORSDOF 3
ENDMDL
MODEL 7
REMARK VINA RESULT:     -10.5      2.504      6.710
REMARK  Name = 46937158
REMARK  3 active torsions:
REMARK  status: ('A' for Active; 'I' for Inactive)
REMARK    1  A    between atoms: N_2  and  C_19
REMARK    2  A    between atoms: C_7  and  C_13
REMARK    3  A    between atoms: C_19  and  C_21
REMARK                            x       y       z     vdW  Elec       q    Type
REMARK                         _______ _______ _______ _____ _____    ______ ____
ROOT
ATOM      1  N   UNL     1      36.067 -23.882 -14.106  0.00  0.00    -0.260 N 
ATOM      2  N   UNL     1      32.676 -22.951 -12.953  0.00  0.00    -0.302 N 
ATOM      3  N   UNL     1      33.797 -22.547 -14.962  0.00  0.00    -0.387 NA
ATOM      4  N   UNL     1      35.152 -24.355 -12.128  0.00  0.00    -0.224 NA
ATOM      5  C   UNL     1      34.972 -23.772 -13.290  0.00  0.00    +0.180 C 
ATOM      6  C   UNL     1      33.788 -23.070 -13.752  0.00  0.00    +0.212 C 
ATOM      7  C   UNL     1      34.932 -22.672 -15.763  0.00  0.00    +0.133 C 
ATOM      8  C   UNL     1      36.049 -23.325 -15.369  0.00  0.00    +0.156 C 
ATOM      9  C   UNL     1      37.014 -24.588 -13.419  0.00  0.00    +0.088 C 
ATOM     10  C   UNL     1      36.427 -24.867 -12.203  0.00  0.00    +0.117 C 
ATOM     11  H   UNL     1      32.690 -23.351 -12.054  0.00  0.00    +0.150 HD
ENDROOT
BRANCH   7  13
ATOM     12  F   UNL     1      32.618 -22.776 -17.384  0.00  0.00    -0.204 F 
ATOM     13  C   UNL     1      34.874 -22.072 -17.115  0.00  0.00    +0.055 C 
ATOM     14  C   UNL     1      33.704 -22.155 -17.869  0.00  0.00    +0.142 C 
ATOM     15  C   UNL     1      35.994 -21.423 -17.634  0.00  0.00    +0.005 C 
ATOM     16  C   UNL     1      33.653 -21.588 -19.143  0.00  0.00    +0.030 C 
ATOM     17  C   UNL     1      35.944 -20.856 -18.907  0.00  0.00    +0.000 C 
ATOM     18  C   UNL     1      34.773 -20.938 -19.662  0.00  0.00    +0.002 C 
ENDBRANCH   7  13
BRANCH   2  19
ATOM     19  C   UNL     1      31.501 -22.266 -13.387  0.00  0.00    +0.118 C 
BRANCH  19  21
ATOM     20  N   UNL     1      29.692 -25.463 -14.298  0.00  0.00    -0.243 NA
ATOM     21  C   UNL     1      30.559 -23.216 -14.072  0.00  0.00    +0.017 C 
ATOM     22  C   UNL     1      29.707 -22.778 -15.079  0.00  0.00    +0.001 C 
ATOM     23  C   UNL     1      30.514 -24.556 -13.721  0.00  0.00    +0.096 C 
ATOM     24  C   UNL     1      28.847 -23.680 -15.696  0.00  0.00    +0.020 C 
ATOM     25  C   UNL     1      28.878 -24.999 -15.274  0.00  0.00    +0.099 C 
ENDBRANCH  19  21
ENDBRANCH   2  19
TORSDOF 3
ENDMDL
MODEL 8
REMARK VINA RESULT:     -10.2     10.977     15.519
REMARK  Name = 46937158
REMARK  3 active torsions:
REMARK  status: ('A' for Active; 'I' for Inactive)
REMARK    1  A    between atoms: N_2  and  C_19
REMARK    2  A    between atoms: C_7  and  C_13
REMARK    3  A    between atoms: C_19  and  C_21
REMARK                            x       y       z     vdW  Elec       q    Type
REMARK                         _______ _______ _______ _____ _____    ______ ____
ROOT
ATOM      1  N   UNL     1      31.563  -8.562 -20.775  0.00  0.00    -0.260 N 
ATOM      2  N   UNL     1      32.231 -11.620 -22.751  0.00  0.00    -0.302 N 
ATOM      3  N   UNL     1      32.329  -9.355 -23.315  0.00  0.00    -0.387 NA
ATOM      4  N   UNL     1      31.413 -10.671 -20.065  0.00  0.00    -0.224 NA
ATOM      5  C   UNL     1      31.689  -9.892 -21.084  0.00  0.00    +0.180 C 
ATOM      6  C   UNL     1      32.093 -10.293 -22.419  0.00  0.00    +0.212 C 
ATOM      7  C   UNL     1      32.183  -8.012 -22.968  0.00  0.00    +0.133 C 
ATOM      8  C   UNL     1      31.817  -7.601 -21.733  0.00  0.00    +0.156 C 
ATOM      9  C   UNL     1      31.181  -8.486 -19.466  0.00  0.00    +0.088 C 
ATOM     10  C   UNL     1      31.094  -9.798 -19.050  0.00  0.00    +0.117 C 
ATOM     11  H   UNL     1      32.052 -12.304 -22.066  0.00  0.00    +0.150 HD
ENDROOT
BRANCH   7  13
ATOM     12  F   UNL     1      30.188  -6.953 -24.669  0.00  0.00    -0.204 F 
ATOM     13  C   UNL     1      32.475  -7.008 -24.016  0.00  0.00    +0.055 C 
ATOM     14  C   UNL     1      31.449  -6.521 -24.825  0.00  0.00    +0.142 C 
ATOM     15  C   UNL     1      33.780  -6.549 -24.192  0.00  0.00    +0.005 C 
ATOM     16  C   UNL     1      31.728  -5.574 -25.811  0.00  0.00    +0.030 C 
ATOM     17  C   UNL     1      34.059  -5.602 -25.177  0.00  0.00    +0.000 C 
ATOM     18  C   UNL     1      33.033  -5.115 -25.987  0.00  0.00    +0.002 C 
ENDBRANCH   7  13
BRANCH   2  19
ATOM     19  C   UNL     1      32.627 -12.037 -24.057  0.00  0.00    +0.118 C 
BRANCH  19  21
ATOM     20  N   UNL     1      33.464 -15.565 -25.141  0.00  0.00    -0.243 NA
ATOM     21  C   UNL     1      33.159 -13.443 -24.022  0.00  0.00    +0.017 C 
ATOM     22  C   UNL     1      33.817 -13.932 -22.899  0.00  0.00    +0.001 C 
ATOM     23  C   UNL     1      33.010 -14.291 -25.107  0.00  0.00    +0.096 C 
ATOM     24  C   UNL     1      34.297 -15.237 -22.895  0.00  0.00    +0.020 C 
ATOM     25  C   UNL     1      34.097 -16.006 -24.030  0.00  0.00    +0.099 C 
ENDBRANCH  19  21
ENDBRANCH   2  19
TORSDOF 3
ENDMDL
MODEL 9
REMARK VINA RESULT:     -10.2      2.295      6.473
REMARK  Name = 46937158
REMARK  3 active torsions:
REMARK  status: ('A' for Active; 'I' for Inactive)
REMARK    1  A    between atoms: N_2  and  C_19
REMARK    2  A    between atoms: C_7  and  C_13
REMARK    3  A    between atoms: C_19  and  C_21
REMARK                            x       y       z     vdW  Elec       q    Type
REMARK                         _______ _______ _______ _____ _____    ______ ____
ROOT
ATOM      1  N   UNL     1      31.195 -22.872 -15.892  0.00  0.00    -0.260 N 
ATOM      2  N   UNL     1      34.184 -24.671 -14.658  0.00  0.00    -0.302 N 
ATOM      3  N   UNL     1      33.893 -23.178 -16.430  0.00  0.00    -0.387 NA
ATOM      4  N   UNL     1      31.287 -24.280 -14.165  0.00  0.00    -0.224 NA
ATOM      5  C   UNL     1      31.971 -23.700 -15.124  0.00  0.00    +0.180 C 
ATOM      6  C   UNL     1      33.384 -23.850 -15.417  0.00  0.00    +0.212 C 
ATOM      7  C   UNL     1      33.072 -22.349 -17.195  0.00  0.00    +0.133 C 
ATOM      8  C   UNL     1      31.753 -22.179 -16.947  0.00  0.00    +0.156 C 
ATOM      9  C   UNL     1      29.926 -22.924 -15.387  0.00  0.00    +0.088 C 
ATOM     10  C   UNL     1      30.008 -23.799 -14.324  0.00  0.00    +0.117 C 
ATOM     11  H   UNL     1      33.784 -25.163 -13.904  0.00  0.00    +0.150 HD
ENDROOT
BRANCH   7  13
ATOM     12  F   UNL     1      31.591 -20.824 -19.059  0.00  0.00    -0.204 F 
ATOM     13  C   UNL     1      33.707 -21.613 -18.311  0.00  0.00    +0.055 C 
ATOM     14  C   UNL     1      32.924 -20.877 -19.200  0.00  0.00    +0.142 C 
ATOM     15  C   UNL     1      35.091 -21.657 -18.472  0.00  0.00    +0.005 C 
ATOM     16  C   UNL     1      33.527 -20.183 -20.250  0.00  0.00    +0.030 C 
ATOM     17  C   UNL     1      35.694 -20.964 -19.522  0.00  0.00    +0.000 C 
ATOM     18  C   UNL     1      34.911 -20.227 -20.411  0.00  0.00    +0.002 C 
ENDBRANCH   7  13
BRANCH   2  19
ATOM     19  C   UNL     1      35.576 -24.834 -14.928  0.00  0.00    +0.118 C 
BRANCH  19  21
ATOM     20  N   UNL     1      37.478 -22.612 -12.527  0.00  0.00    -0.243 NA
ATOM     21  C   UNL     1      36.396 -24.399 -13.745  0.00  0.00    +0.017 C 
ATOM     22  C   UNL     1      36.831 -25.318 -12.797  0.00  0.00    +0.001 C 
ATOM     23  C   UNL     1      36.743 -23.069 -13.566  0.00  0.00    +0.096 C 
ATOM     24  C   UNL     1      37.589 -24.887 -11.715  0.00  0.00    +0.020 C 
ATOM     25  C   UNL     1      37.883 -23.536 -11.625  0.00  0.00    +0.099 C 
ENDBRANCH  19  21
ENDBRANCH   2  19
TORSDOF 3
ENDMDL
