MODEL 1
REMARK VINA RESULT:     -13.1      0.000      0.000
REMARK  Name = 11538455
REMARK  6 active torsions:
REMARK  status: ('A' for Active; 'I' for Inactive)
REMARK    1  A    between atoms: C_4  and  C_19
REMARK    2  A    between atoms: C_12  and  C_15
REMARK    3  A    between atoms: N_14  and  O_17
REMARK    4  A    between atoms: C_19  and  N_20
REMARK    5  A    between atoms: N_20  and  C_23
REMARK    6  A    between atoms: C_23  and  C_25
REMARK                            x       y       z     vdW  Elec       q    Type
REMARK                         _______ _______ _______ _____ _____    ______ ____
ROOT
ATOM      1  N   UNL     1      34.530 -21.549 -18.031  0.00  0.00    -0.253 N 
ATOM      2  N   UNL     1      35.863 -22.509 -16.336  0.00  0.00    -0.203 NA
ATOM      3  N   UNL     1      33.462 -22.474 -16.140  0.00  0.00    -0.180 NA
ATOM      4  C   UNL     1      34.315 -20.333 -20.650  0.00  0.00    -0.018 C 
ATOM      5  C   UNL     1      35.515 -20.069 -19.735  0.00  0.00    +0.020 C 
ATOM      6  C   UNL     1      33.078 -20.631 -19.797  0.00  0.00    +0.020 C 
ATOM      7  C   UNL     1      35.756 -21.231 -18.771  0.00  0.00    +0.101 C 
ATOM      8  C   UNL     1      33.327 -21.794 -18.837  0.00  0.00    +0.101 C 
ATOM      9  C   UNL     1      34.621 -22.199 -16.794  0.00  0.00    +0.090 C 
ATOM     10  C   UNL     1      35.915 -23.132 -15.141  0.00  0.00    +0.170 C 
ATOM     11  C   UNL     1      33.586 -23.098 -14.951  0.00  0.00    +0.113 C 
ATOM     12  C   UNL     1      34.799 -23.456 -14.396  0.00  0.00    +0.078 C 
ENDROOT
BRANCH  12  15
ATOM     13  O   UNL     1      34.030 -23.948 -12.233  0.00  0.00    -0.268 OA
ATOM     14  N   UNL     1      35.984 -24.964 -12.913  0.00  0.00    -0.194 N 
ATOM     15  C   UNL     1      34.893 -24.128 -13.115  0.00  0.00    +0.267 C 
ATOM     16  H   UNL     1      36.662 -25.103 -13.613  0.00  0.00    +0.183 HD
BRANCH  14  17
ATOM     17  O   UNL     1      36.075 -25.600 -11.666  0.00  0.00    -0.295 OA
ATOM     18  H   UNL     1      36.274 -26.541 -11.797  0.00  0.00    +0.241 HD
ENDBRANCH  14  17
ENDBRANCH  12  15
BRANCH   4  19
ATOM     19  C   UNL     1      34.065 -19.146 -21.576  0.00  0.00    -0.081 C 
BRANCH  19  20
ATOM     20  N   UNL     1      34.548 -17.911 -20.978  0.00  0.00    +0.386 N 
ATOM     21  H   UNL     1      35.103 -18.135 -20.151  0.00  0.00    -0.084 HD
ATOM     22  H   UNL     1      33.744 -17.336 -20.722  0.00  0.00    -0.084 HD
BRANCH  20  23
ATOM     23  C   UNL     1      35.373 -17.162 -21.917  0.00  0.00    -0.053 C 
BRANCH  23  25
ATOM     24  N   UNL     1      33.536 -14.922 -24.140  0.00  0.00    -0.284 N 
ATOM     25  C   UNL     1      34.564 -16.090 -22.593  0.00  0.00    -0.028 C 
ATOM     26  C   UNL     1      33.972 -14.985 -21.954  0.00  0.00    +0.009 C 
ATOM     27  C   UNL     1      34.293 -16.043 -23.925  0.00  0.00    +0.059 C 
ATOM     28  C   UNL     1      33.325 -14.257 -22.954  0.00  0.00    +0.051 C 
ATOM     29  C   UNL     1      33.911 -14.517 -20.627  0.00  0.00    +0.001 C 
ATOM     30  C   UNL     1      32.617 -13.078 -22.693  0.00  0.00    +0.015 C 
ATOM     31  C   UNL     1      33.037 -14.512 -25.436  0.00  0.00    +0.117 C 
ATOM     32  C   UNL     1      33.206 -13.338 -20.349  0.00  0.00    +0.000 C 
ATOM     33  C   UNL     1      32.570 -12.632 -21.369  0.00  0.00    +0.001 C 
ENDBRANCH  23  25
ENDBRANCH  20  23
ENDBRANCH  19  20
ENDBRANCH   4  19
TORSDOF 6
ENDMDL
MODEL 2
REMARK VINA RESULT:     -12.9      0.789      1.942
REMARK  Name = 11538455
REMARK  6 active torsions:
REMARK  status: ('A' for Active; 'I' for Inactive)
REMARK    1  A    between atoms: C_4  and  C_19
REMARK    2  A    between atoms: C_12  and  C_15
REMARK    3  A    between atoms: N_14  and  O_17
REMARK    4  A    between atoms: C_19  and  N_20
REMARK    5  A    between atoms: N_20  and  C_23
REMARK    6  A    between atoms: C_23  and  C_25
REMARK                            x       y       z     vdW  Elec       q    Type
REMARK                         _______ _______ _______ _____ _____    ______ ____
ROOT
ATOM      1  N   UNL     1      34.743 -21.723 -17.694  0.00  0.00    -0.253 N 
ATOM      2  N   UNL     1      36.122 -22.644 -16.013  0.00  0.00    -0.203 NA
ATOM      3  N   UNL     1      33.722 -22.691 -15.798  0.00  0.00    -0.180 NA
ATOM      4  C   UNL     1      34.466 -20.506 -20.306  0.00  0.00    -0.018 C 
ATOM      5  C   UNL     1      35.664 -20.205 -19.400  0.00  0.00    +0.020 C 
ATOM      6  C   UNL     1      33.247 -20.848 -19.444  0.00  0.00    +0.020 C 
ATOM      7  C   UNL     1      35.951 -21.362 -18.443  0.00  0.00    +0.101 C 
ATOM      8  C   UNL     1      33.542 -22.006 -18.492  0.00  0.00    +0.101 C 
ATOM      9  C   UNL     1      34.866 -22.375 -16.461  0.00  0.00    +0.090 C 
ATOM     10  C   UNL     1      36.204 -23.270 -14.821  0.00  0.00    +0.170 C 
ATOM     11  C   UNL     1      33.877 -23.316 -14.613  0.00  0.00    +0.113 C 
ATOM     12  C   UNL     1      35.106 -23.634 -14.069  0.00  0.00    +0.078 C 
ENDROOT
BRANCH  12  15
ATOM     13  O   UNL     1      34.487 -24.014 -11.836  0.00  0.00    -0.268 OA
ATOM     14  N   UNL     1      36.222 -25.276 -12.678  0.00  0.00    -0.194 N 
ATOM     15  C   UNL     1      35.233 -24.307 -12.792  0.00  0.00    +0.267 C 
ATOM     16  H   UNL     1      36.808 -25.505 -13.436  0.00  0.00    +0.183 HD
BRANCH  14  17
ATOM     17  O   UNL     1      36.348 -25.914 -11.435  0.00  0.00    -0.295 OA
ATOM     18  H   UNL     1      36.917 -25.385 -10.855  0.00  0.00    +0.241 HD
ENDBRANCH  14  17
ENDBRANCH  12  15
BRANCH   4  19
ATOM     19  C   UNL     1      34.168 -19.324 -21.225  0.00  0.00    -0.081 C 
BRANCH  19  20
ATOM     20  N   UNL     1      34.874 -18.132 -20.782  0.00  0.00    +0.386 N 
ATOM     21  H   UNL     1      35.703 -18.410 -20.257  0.00  0.00    -0.084 HD
ATOM     22  H   UNL     1      34.247 -17.582 -20.194  0.00  0.00    -0.084 HD
BRANCH  20  23
ATOM     23  C   UNL     1      35.281 -17.313 -21.917  0.00  0.00    -0.053 C 
BRANCH  23  25
ATOM     24  N   UNL     1      33.456 -14.212 -21.295  0.00  0.00    -0.284 N 
ATOM     25  C   UNL     1      34.503 -16.027 -21.947  0.00  0.00    -0.028 C 
ATOM     26  C   UNL     1      34.028 -15.383 -23.105  0.00  0.00    +0.009 C 
ATOM     27  C   UNL     1      34.149 -15.305 -20.849  0.00  0.00    +0.059 C 
ATOM     28  C   UNL     1      33.367 -14.234 -22.668  0.00  0.00    +0.051 C 
ATOM     29  C   UNL     1      34.087 -15.649 -24.487  0.00  0.00    +0.001 C 
ATOM     30  C   UNL     1      32.757 -13.332 -23.549  0.00  0.00    +0.015 C 
ATOM     31  C   UNL     1      32.904 -13.189 -20.432  0.00  0.00    +0.117 C 
ATOM     32  C   UNL     1      33.481 -14.756 -25.381  0.00  0.00    +0.000 C 
ATOM     33  C   UNL     1      32.828 -13.616 -24.916  0.00  0.00    +0.001 C 
ENDBRANCH  23  25
ENDBRANCH  20  23
ENDBRANCH  19  20
ENDBRANCH   4  19
TORSDOF 6
ENDMDL
MODEL 3
REMARK VINA RESULT:     -12.7      2.054      2.679
REMARK  Name = 11538455
REMARK  6 active torsions:
REMARK  status: ('A' for Active; 'I' for Inactive)
REMARK    1  A    between atoms: C_4  and  C_19
REMARK    2  A    between atoms: C_12  and  C_15
REMARK    3  A    between atoms: N_14  and  O_17
REMARK    4  A    between atoms: C_19  and  N_20
REMARK    5  A    between atoms: N_20  and  C_23
REMARK    6  A    between atoms: C_23  and  C_25
REMARK                            x       y       z     vdW  Elec       q    Type
REMARK                         _______ _______ _______ _____ _____    ______ ____
ROOT
ATOM      1  N   UNL     1      33.447 -21.393 -18.623  0.00  0.00    -0.253 N 
ATOM      2  N   UNL     1      33.442 -22.966 -16.862  0.00  0.00    -0.203 NA
ATOM      3  N   UNL     1      31.415 -21.830 -17.503  0.00  0.00    -0.180 NA
ATOM      4  C   UNL     1      34.852 -20.058 -20.773  0.00  0.00    -0.018 C 
ATOM      5  C   UNL     1      35.554 -20.439 -19.466  0.00  0.00    +0.020 C 
ATOM      6  C   UNL     1      33.367 -19.798 -20.498  0.00  0.00    +0.020 C 
ATOM      7  C   UNL     1      34.883 -21.636 -18.794  0.00  0.00    +0.101 C 
ATOM      8  C   UNL     1      32.704 -21.000 -19.828  0.00  0.00    +0.101 C 
ATOM      9  C   UNL     1      32.743 -22.086 -17.630  0.00  0.00    +0.090 C 
ATOM     10  C   UNL     1      32.735 -23.614 -15.914  0.00  0.00    +0.170 C 
ATOM     11  C   UNL     1      30.770 -22.513 -16.535  0.00  0.00    +0.113 C 
ATOM     12  C   UNL     1      31.384 -23.427 -15.703  0.00  0.00    +0.078 C 
ENDROOT
BRANCH  12  15
ATOM     13  O   UNL     1      31.209 -24.460 -13.601  0.00  0.00    -0.268 OA
ATOM     14  N   UNL     1      29.332 -24.470 -14.939  0.00  0.00    -0.194 N 
ATOM     15  C   UNL     1      30.657 -24.143 -14.674  0.00  0.00    +0.267 C 
ATOM     16  H   UNL     1      28.900 -24.217 -15.787  0.00  0.00    +0.183 HD
BRANCH  14  17
ATOM     17  O   UNL     1      28.639 -25.174 -13.944  0.00  0.00    -0.295 OA
ATOM     18  H   UNL     1      28.155 -25.912 -14.347  0.00  0.00    +0.241 HD
ENDBRANCH  14  17
ENDBRANCH  12  15
BRANCH   4  19
ATOM     19  C   UNL     1      35.510 -18.835 -21.408  0.00  0.00    -0.081 C 
BRANCH  19  20
ATOM     20  N   UNL     1      34.508 -17.878 -21.850  0.00  0.00    +0.386 N 
ATOM     21  H   UNL     1      33.606 -18.127 -21.443  0.00  0.00    -0.084 HD
ATOM     22  H   UNL     1      34.459 -17.904 -22.869  0.00  0.00    -0.084 HD
BRANCH  20  23
ATOM     23  C   UNL     1      34.859 -16.525 -21.438  0.00  0.00    -0.053 C 
BRANCH  23  25
ATOM     24  N   UNL     1      33.402 -14.445 -24.062  0.00  0.00    -0.284 N 
ATOM     25  C   UNL     1      34.159 -15.511 -22.299  0.00  0.00    -0.028 C 
ATOM     26  C   UNL     1      33.425 -14.405 -21.832  0.00  0.00    +0.009 C 
ATOM     27  C   UNL     1      34.139 -15.527 -23.660  0.00  0.00    +0.059 C 
ATOM     28  C   UNL     1      32.954 -13.742 -22.967  0.00  0.00    +0.051 C 
ATOM     29  C   UNL     1      33.104 -13.888 -20.562  0.00  0.00    +0.001 C 
ATOM     30  C   UNL     1      32.175 -12.581 -22.895  0.00  0.00    +0.015 C 
ATOM     31  C   UNL     1      33.141 -14.105 -25.444  0.00  0.00    +0.117 C 
ATOM     32  C   UNL     1      32.325 -12.727 -20.473  0.00  0.00    +0.000 C 
ATOM     33  C   UNL     1      31.869 -12.085 -21.624  0.00  0.00    +0.001 C 
ENDBRANCH  23  25
ENDBRANCH  20  23
ENDBRANCH  19  20
ENDBRANCH   4  19
TORSDOF 6
ENDMDL
MODEL 4
REMARK VINA RESULT:     -12.4      2.220      3.152
REMARK  Name = 11538455
REMARK  6 active torsions:
REMARK  status: ('A' for Active; 'I' for Inactive)
REMARK    1  A    between atoms: C_4  and  C_19
REMARK    2  A    between atoms: C_12  and  C_15
REMARK    3  A    between atoms: N_14  and  O_17
REMARK    4  A    between atoms: C_19  and  N_20
REMARK    5  A    between atoms: N_20  and  C_23
REMARK    6  A    between atoms: C_23  and  C_25
REMARK                            x       y       z     vdW  Elec       q    Type
REMARK                         _______ _______ _______ _____ _____    ______ ____
ROOT
ATOM      1  N   UNL     1      33.612 -21.488 -18.369  0.00  0.00    -0.253 N 
ATOM      2  N   UNL     1      33.418 -23.032 -16.594  0.00  0.00    -0.203 NA
ATOM      3  N   UNL     1      31.478 -21.879 -17.440  0.00  0.00    -0.180 NA
ATOM      4  C   UNL     1      35.234 -20.206 -20.396  0.00  0.00    -0.018 C 
ATOM      5  C   UNL     1      35.804 -20.576 -19.023  0.00  0.00    +0.020 C 
ATOM      6  C   UNL     1      33.734 -19.921 -20.266  0.00  0.00    +0.020 C 
ATOM      7  C   UNL     1      35.054 -21.754 -18.400  0.00  0.00    +0.101 C 
ATOM      8  C   UNL     1      32.992 -21.103 -19.644  0.00  0.00    +0.101 C 
ATOM      9  C   UNL     1      32.808 -22.156 -17.437  0.00  0.00    +0.090 C 
ATOM     10  C   UNL     1      32.614 -23.656 -15.708  0.00  0.00    +0.170 C 
ATOM     11  C   UNL     1      30.734 -22.538 -16.527  0.00  0.00    +0.113 C 
ATOM     12  C   UNL     1      31.253 -23.447 -15.628  0.00  0.00    +0.078 C 
ENDROOT
BRANCH  12  15
ATOM     13  O   UNL     1      29.450 -24.828 -15.030  0.00  0.00    -0.268 OA
ATOM     14  N   UNL     1      30.744 -23.986 -13.319  0.00  0.00    -0.194 N 
ATOM     15  C   UNL     1      30.421 -24.138 -14.662  0.00  0.00    +0.267 C 
ATOM     16  H   UNL     1      31.512 -23.441 -13.033  0.00  0.00    +0.183 HD
BRANCH  14  17
ATOM     17  O   UNL     1      29.927 -24.647 -12.390  0.00  0.00    -0.295 OA
ATOM     18  H   UNL     1      29.382 -23.997 -11.918  0.00  0.00    +0.241 HD
ENDBRANCH  14  17
ENDBRANCH  12  15
BRANCH   4  19
ATOM     19  C   UNL     1      35.967 -19.002 -20.983  0.00  0.00    -0.081 C 
BRANCH  19  20
ATOM     20  N   UNL     1      35.120 -17.820 -20.967  0.00  0.00    +0.386 N 
ATOM     21  H   UNL     1      35.480 -17.160 -20.278  0.00  0.00    -0.084 HD
ATOM     22  H   UNL     1      34.170 -18.104 -20.727  0.00  0.00    -0.084 HD
BRANCH  20  23
ATOM     23  C   UNL     1      35.095 -17.178 -22.275  0.00  0.00    -0.053 C 
BRANCH  23  25
ATOM     24  N   UNL     1      33.436 -14.041 -21.413  0.00  0.00    -0.284 N 
ATOM     25  C   UNL     1      34.371 -15.862 -22.204  0.00  0.00    -0.028 C 
ATOM     26  C   UNL     1      33.868 -15.142 -23.303  0.00  0.00    +0.009 C 
ATOM     27  C   UNL     1      34.104 -15.182 -21.056  0.00  0.00    +0.059 C 
ATOM     28  C   UNL     1      33.279 -13.990 -22.779  0.00  0.00    +0.051 C 
ATOM     29  C   UNL     1      33.847 -15.340 -24.698  0.00  0.00    +0.001 C 
ATOM     30  C   UNL     1      32.665 -13.022 -23.583  0.00  0.00    +0.015 C 
ATOM     31  C   UNL     1      32.972 -13.041 -20.474  0.00  0.00    +0.117 C 
ATOM     32  C   UNL     1      33.236 -14.380 -25.515  0.00  0.00    +0.000 C 
ATOM     33  C   UNL     1      32.656 -13.240 -24.963  0.00  0.00    +0.001 C 
ENDBRANCH  23  25
ENDBRANCH  20  23
ENDBRANCH  19  20
ENDBRANCH   4  19
TORSDOF 6
ENDMDL
MODEL 5
REMARK VINA RESULT:     -12.2      5.364     11.274
REMARK  Name = 11538455
REMARK  6 active torsions:
REMARK  status: ('A' for Active; 'I' for Inactive)
REMARK    1  A    between atoms: C_4  and  C_19
REMARK    2  A    between atoms: C_12  and  C_15
REMARK    3  A    between atoms: N_14  and  O_17
REMARK    4  A    between atoms: C_19  and  N_20
REMARK    5  A    between atoms: N_20  and  C_23
REMARK    6  A    between atoms: C_23  and  C_25
REMARK                            x       y       z     vdW  Elec       q    Type
REMARK                         _______ _______ _______ _____ _____    ______ ____
ROOT
ATOM      1  N   UNL     1      33.748 -14.678 -22.209  0.00  0.00    -0.253 N 
ATOM      2  N   UNL     1      33.301 -12.711 -23.435  0.00  0.00    -0.203 NA
ATOM      3  N   UNL     1      32.439 -12.991 -21.202  0.00  0.00    -0.180 NA
ATOM      4  C   UNL     1      35.111 -17.222 -21.982  0.00  0.00    -0.018 C 
ATOM      5  C   UNL     1      34.587 -16.706 -23.326  0.00  0.00    +0.020 C 
ATOM      6  C   UNL     1      34.240 -16.672 -20.849  0.00  0.00    +0.020 C 
ATOM      7  C   UNL     1      34.515 -15.179 -23.354  0.00  0.00    +0.101 C 
ATOM      8  C   UNL     1      34.175 -15.146 -20.884  0.00  0.00    +0.101 C 
ATOM      9  C   UNL     1      33.143 -13.417 -22.284  0.00  0.00    +0.090 C 
ATOM     10  C   UNL     1      32.702 -11.502 -23.475  0.00  0.00    +0.170 C 
ATOM     11  C   UNL     1      31.868 -11.774 -21.310  0.00  0.00    +0.113 C 
ATOM     12  C   UNL     1      31.967 -10.977 -22.432  0.00  0.00    +0.078 C 
ENDROOT
BRANCH  12  15
ATOM     13  O   UNL     1      30.203  -9.479 -22.033  0.00  0.00    -0.268 OA
ATOM     14  N   UNL     1      32.047  -8.661 -23.147  0.00  0.00    -0.194 N 
ATOM     15  C   UNL     1      31.339  -9.673 -22.510  0.00  0.00    +0.267 C 
ATOM     16  H   UNL     1      32.945  -8.818 -23.521  0.00  0.00    +0.183 HD
BRANCH  14  17
ATOM     17  O   UNL     1      31.428  -7.405 -23.229  0.00  0.00    -0.295 OA
ATOM     18  H   UNL     1      31.215  -7.090 -22.337  0.00  0.00    +0.241 HD
ENDBRANCH  14  17
ENDBRANCH  12  15
BRANCH   4  19
ATOM     19  C   UNL     1      35.135 -18.748 -21.957  0.00  0.00    -0.081 C 
BRANCH  19  20
ATOM     20  N   UNL     1      35.349 -19.242 -20.606  0.00  0.00    +0.386 N 
ATOM     21  H   UNL     1      35.084 -18.516 -19.940  0.00  0.00    -0.084 HD
ATOM     22  H   UNL     1      36.335 -19.482 -20.499  0.00  0.00    -0.084 HD
BRANCH  20  23
ATOM     23  C   UNL     1      34.551 -20.435 -20.353  0.00  0.00    -0.053 C 
BRANCH  23  25
ATOM     24  N   UNL     1      36.021 -21.641 -17.235  0.00  0.00    -0.284 N 
ATOM     25  C   UNL     1      34.890 -21.022 -19.011  0.00  0.00    -0.028 C 
ATOM     26  C   UNL     1      33.983 -21.657 -18.142  0.00  0.00    +0.009 C 
ATOM     27  C   UNL     1      36.129 -21.017 -18.449  0.00  0.00    +0.059 C 
ATOM     28  C   UNL     1      34.722 -22.042 -17.021  0.00  0.00    +0.051 C 
ATOM     29  C   UNL     1      32.606 -21.950 -18.180  0.00  0.00    +0.001 C 
ATOM     30  C   UNL     1      34.149 -22.710 -15.932  0.00  0.00    +0.015 C 
ATOM     31  C   UNL     1      37.124 -21.841 -16.320  0.00  0.00    +0.117 C 
ATOM     32  C   UNL     1      32.019 -22.618 -17.098  0.00  0.00    +0.000 C 
ATOM     33  C   UNL     1      32.781 -22.991 -15.992  0.00  0.00    +0.001 C 
ENDBRANCH  23  25
ENDBRANCH  20  23
ENDBRANCH  19  20
ENDBRANCH   4  19
TORSDOF 6
ENDMDL
MODEL 6
REMARK VINA RESULT:     -12.0      5.331     11.225
REMARK  Name = 11538455
REMARK  6 active torsions:
REMARK  status: ('A' for Active; 'I' for Inactive)
REMARK    1  A    between atoms: C_4  and  C_19
REMARK    2  A    between atoms: C_12  and  C_15
REMARK    3  A    between atoms: N_14  and  O_17
REMARK    4  A    between atoms: C_19  and  N_20
REMARK    5  A    between atoms: N_20  and  C_23
REMARK    6  A    between atoms: C_23  and  C_25
REMARK                            x       y       z     vdW  Elec       q    Type
REMARK                         _______ _______ _______ _____ _____    ______ ____
ROOT
ATOM      1  N   UNL     1      33.772 -14.801 -22.157  0.00  0.00    -0.253 N 
ATOM      2  N   UNL     1      33.343 -12.844 -23.405  0.00  0.00    -0.203 NA
ATOM      3  N   UNL     1      32.456 -13.103 -21.179  0.00  0.00    -0.180 NA
ATOM      4  C   UNL     1      35.126 -17.346 -21.893  0.00  0.00    -0.018 C 
ATOM      5  C   UNL     1      34.618 -16.841 -23.247  0.00  0.00    +0.020 C 
ATOM      6  C   UNL     1      34.244 -16.784 -20.774  0.00  0.00    +0.020 C 
ATOM      7  C   UNL     1      34.551 -15.314 -23.289  0.00  0.00    +0.101 C 
ATOM      8  C   UNL     1      34.183 -15.259 -20.823  0.00  0.00    +0.101 C 
ATOM      9  C   UNL     1      33.170 -13.540 -22.249  0.00  0.00    +0.090 C 
ATOM     10  C   UNL     1      32.748 -11.634 -23.461  0.00  0.00    +0.170 C 
ATOM     11  C   UNL     1      31.888 -11.886 -21.303  0.00  0.00    +0.113 C 
ATOM     12  C   UNL     1      32.002 -11.099 -22.431  0.00  0.00    +0.078 C 
ENDROOT
BRANCH  12  15
ATOM     13  O   UNL     1      30.250  -9.585 -22.036  0.00  0.00    -0.268 OA
ATOM     14  N   UNL     1      32.079  -8.799 -23.197  0.00  0.00    -0.194 N 
ATOM     15  C   UNL     1      31.377  -9.794 -22.528  0.00  0.00    +0.267 C 
ATOM     16  H   UNL     1      32.970  -8.968 -23.583  0.00  0.00    +0.183 HD
BRANCH  14  17
ATOM     17  O   UNL     1      31.464  -7.543 -23.297  0.00  0.00    -0.295 OA
ATOM     18  H   UNL     1      31.901  -6.919 -22.696  0.00  0.00    +0.241 HD
ENDBRANCH  14  17
ENDBRANCH  12  15
BRANCH   4  19
ATOM     19  C   UNL     1      35.147 -18.872 -21.855  0.00  0.00    -0.081 C 
BRANCH  19  20
ATOM     20  N   UNL     1      34.683 -19.366 -20.568  0.00  0.00    +0.386 N 
ATOM     21  H   UNL     1      33.740 -19.741 -20.674  0.00  0.00    -0.084 HD
ATOM     22  H   UNL     1      34.686 -18.593 -19.902  0.00  0.00    -0.084 HD
BRANCH  20  23
ATOM     23  C   UNL     1      35.560 -20.416 -20.063  0.00  0.00    -0.053 C 
BRANCH  23  25
ATOM     24  N   UNL     1      33.420 -22.179 -17.687  0.00  0.00    -0.284 N 
ATOM     25  C   UNL     1      34.911 -21.139 -18.916  0.00  0.00    -0.028 C 
ATOM     26  C   UNL     1      35.535 -21.470 -17.699  0.00  0.00    +0.009 C 
ATOM     27  C   UNL     1      33.622 -21.575 -18.899  0.00  0.00    +0.059 C 
ATOM     28  C   UNL     1      34.570 -22.129 -16.934  0.00  0.00    +0.051 C 
ATOM     29  C   UNL     1      36.821 -21.284 -17.155  0.00  0.00    +0.001 C 
ATOM     30  C   UNL     1      34.829 -22.613 -15.646  0.00  0.00    +0.015 C 
ATOM     31  C   UNL     1      32.169 -22.779 -17.274  0.00  0.00    +0.117 C 
ATOM     32  C   UNL     1      37.095 -21.762 -15.868  0.00  0.00    +0.000 C 
ATOM     33  C   UNL     1      36.112 -22.417 -15.127  0.00  0.00    +0.001 C 
ENDBRANCH  23  25
ENDBRANCH  20  23
ENDBRANCH  19  20
ENDBRANCH   4  19
TORSDOF 6
ENDMDL
MODEL 7
REMARK VINA RESULT:     -12.0      6.330     10.523
REMARK  Name = 11538455
REMARK  6 active torsions:
REMARK  status: ('A' for Active; 'I' for Inactive)
REMARK    1  A    between atoms: C_4  and  C_19
REMARK    2  A    between atoms: C_12  and  C_15
REMARK    3  A    between atoms: N_14  and  O_17
REMARK    4  A    between atoms: C_19  and  N_20
REMARK    5  A    between atoms: N_20  and  C_23
REMARK    6  A    between atoms: C_23  and  C_25
REMARK                            x       y       z     vdW  Elec       q    Type
REMARK                         _______ _______ _______ _____ _____    ______ ____
ROOT
ATOM      1  N   UNL     1      32.699 -12.413 -22.011  0.00  0.00    -0.253 N 
ATOM      2  N   UNL     1      33.841 -14.148 -23.131  0.00  0.00    -0.203 NA
ATOM      3  N   UNL     1      33.445 -14.269 -20.757  0.00  0.00    -0.180 NA
ATOM      4  C   UNL     1      31.225  -9.923 -22.111  0.00  0.00    -0.018 C 
ATOM      5  C   UNL     1      32.388 -10.210 -23.066  0.00  0.00    +0.020 C 
ATOM      6  C   UNL     1      31.448 -10.674 -20.794  0.00  0.00    +0.020 C 
ATOM      7  C   UNL     1      32.574 -11.710 -23.292  0.00  0.00    +0.101 C 
ATOM      8  C   UNL     1      31.632 -12.172 -21.029  0.00  0.00    +0.101 C 
ATOM      9  C   UNL     1      33.350 -13.652 -21.964  0.00  0.00    +0.090 C 
ATOM     10  C   UNL     1      34.465 -15.342 -23.050  0.00  0.00    +0.170 C 
ATOM     11  C   UNL     1      34.080 -15.459 -20.749  0.00  0.00    +0.113 C 
ATOM     12  C   UNL     1      34.615 -16.050 -21.876  0.00  0.00    +0.078 C 
ENDROOT
BRANCH  12  15
ATOM     13  O   UNL     1      35.535 -17.967 -22.873  0.00  0.00    -0.268 OA
ATOM     14  N   UNL     1      35.638 -17.823 -20.575  0.00  0.00    -0.194 N 
ATOM     15  C   UNL     1      35.290 -17.332 -21.827  0.00  0.00    +0.267 C 
ATOM     16  H   UNL     1      35.443 -17.317 -19.752  0.00  0.00    +0.183 HD
BRANCH  14  17
ATOM     17  O   UNL     1      36.279 -19.069 -20.535  0.00  0.00    -0.295 OA
ATOM     18  H   UNL     1      35.629 -19.762 -20.343  0.00  0.00    +0.241 HD
ENDBRANCH  14  17
ENDBRANCH  12  15
BRANCH   4  19
ATOM     19  C   UNL     1      31.081  -8.423 -21.864  0.00  0.00    -0.081 C 
BRANCH  19  20
ATOM     20  N   UNL     1      31.319  -8.102 -20.466  0.00  0.00    +0.386 N 
ATOM     21  H   UNL     1      31.631  -8.943 -19.979  0.00  0.00    -0.084 HD
ATOM     22  H   UNL     1      30.451  -7.755 -20.059  0.00  0.00    -0.084 HD
BRANCH  20  23
ATOM     23  C   UNL     1      32.340  -7.070 -20.333  0.00  0.00    -0.053 C 
BRANCH  23  25
ATOM     24  N   UNL     1      31.033  -4.059 -21.934  0.00  0.00    -0.284 N 
ATOM     25  C   UNL     1      32.003  -5.882 -21.190  0.00  0.00    -0.028 C 
ATOM     26  C   UNL     1      32.652  -5.525 -22.387  0.00  0.00    +0.009 C 
ATOM     27  C   UNL     1      31.018  -4.982 -20.923  0.00  0.00    +0.059 C 
ATOM     28  C   UNL     1      32.020  -4.366 -22.842  0.00  0.00    +0.051 C 
ATOM     29  C   UNL     1      33.714  -6.060 -23.142  0.00  0.00    +0.001 C 
ATOM     30  C   UNL     1      32.399  -3.712 -24.021  0.00  0.00    +0.015 C 
ATOM     31  C   UNL     1      30.133  -2.929 -22.019  0.00  0.00    +0.117 C 
ATOM     32  C   UNL     1      34.104  -5.417 -24.324  0.00  0.00    +0.000 C 
ATOM     33  C   UNL     1      33.455  -4.261 -24.754  0.00  0.00    +0.001 C 
ENDBRANCH  23  25
ENDBRANCH  20  23
ENDBRANCH  19  20
ENDBRANCH   4  19
TORSDOF 6
ENDMDL
MODEL 8
REMARK VINA RESULT:     -11.7      1.174      1.840
REMARK  Name = 11538455
REMARK  6 active torsions:
REMARK  status: ('A' for Active; 'I' for Inactive)
REMARK    1  A    between atoms: C_4  and  C_19
REMARK    2  A    between atoms: C_12  and  C_15
REMARK    3  A    between atoms: N_14  and  O_17
REMARK    4  A    between atoms: C_19  and  N_20
REMARK    5  A    between atoms: N_20  and  C_23
REMARK    6  A    between atoms: C_23  and  C_25
REMARK                            x       y       z     vdW  Elec       q    Type
REMARK                         _______ _______ _______ _____ _____    ______ ____
ROOT
ATOM      1  N   UNL     1      35.451 -21.727 -17.637  0.00  0.00    -0.253 N 
ATOM      2  N   UNL     1      34.903 -23.079 -15.782  0.00  0.00    -0.203 NA
ATOM      3  N   UNL     1      37.171 -22.351 -16.147  0.00  0.00    -0.180 NA
ATOM      4  C   UNL     1      34.607 -20.194 -19.944  0.00  0.00    -0.018 C 
ATOM      5  C   UNL     1      33.902 -21.492 -19.537  0.00  0.00    +0.020 C 
ATOM      6  C   UNL     1      36.075 -20.253 -19.510  0.00  0.00    +0.020 C 
ATOM      7  C   UNL     1      34.041 -21.762 -18.039  0.00  0.00    +0.101 C 
ATOM      8  C   UNL     1      36.204 -20.522 -18.012  0.00  0.00    +0.101 C 
ATOM      9  C   UNL     1      35.856 -22.408 -16.483  0.00  0.00    +0.090 C 
ATOM     10  C   UNL     1      35.329 -23.727 -14.677  0.00  0.00    +0.170 C 
ATOM     11  C   UNL     1      37.527 -23.021 -15.031  0.00  0.00    +0.113 C 
ATOM     12  C   UNL     1      36.640 -23.732 -14.249  0.00  0.00    +0.078 C 
ENDROOT
BRANCH  12  15
ATOM     13  O   UNL     1      38.154 -24.185 -12.512  0.00  0.00    -0.268 OA
ATOM     14  N   UNL     1      36.203 -25.412 -12.556  0.00  0.00    -0.194 N 
ATOM     15  C   UNL     1      37.060 -24.439 -13.055  0.00  0.00    +0.267 C 
ATOM     16  H   UNL     1      35.340 -25.608 -12.988  0.00  0.00    +0.183 HD
BRANCH  14  17
ATOM     17  O   UNL     1      36.622 -26.101 -11.408  0.00  0.00    -0.295 OA
ATOM     18  H   UNL     1      37.580 -26.242 -11.447  0.00  0.00    +0.241 HD
ENDBRANCH  14  17
ENDBRANCH  12  15
BRANCH   4  19
ATOM     19  C   UNL     1      34.494 -19.963 -21.449  0.00  0.00    -0.081 C 
BRANCH  19  20
ATOM     20  N   UNL     1      34.064 -18.603 -21.734  0.00  0.00    +0.386 N 
ATOM     21  H   UNL     1      34.091 -18.057 -20.872  0.00  0.00    -0.084 HD
ATOM     22  H   UNL     1      33.116 -18.632 -22.108  0.00  0.00    -0.084 HD
BRANCH  20  23
ATOM     23  C   UNL     1      34.933 -17.976 -22.722  0.00  0.00    -0.053 C 
BRANCH  23  25
ATOM     24  N   UNL     1      33.575 -15.037 -24.412  0.00  0.00    -0.284 N 
ATOM     25  C   UNL     1      34.371 -16.650 -23.155  0.00  0.00    -0.028 C 
ATOM     26  C   UNL     1      34.091 -15.563 -22.307  0.00  0.00    +0.009 C 
ATOM     27  C   UNL     1      34.052 -16.320 -24.436  0.00  0.00    +0.059 C 
ATOM     28  C   UNL     1      33.587 -14.550 -23.125  0.00  0.00    +0.051 C 
ATOM     29  C   UNL     1      34.209 -15.322 -20.924  0.00  0.00    +0.001 C 
ATOM     30  C   UNL     1      33.195 -13.301 -22.628  0.00  0.00    +0.015 C 
ATOM     31  C   UNL     1      33.125 -14.313 -25.582  0.00  0.00    +0.117 C 
ATOM     32  C   UNL     1      33.821 -14.077 -20.411  0.00  0.00    +0.000 C 
ATOM     33  C   UNL     1      33.321 -13.085 -21.253  0.00  0.00    +0.001 C 
ENDBRANCH  23  25
ENDBRANCH  20  23
ENDBRANCH  19  20
ENDBRANCH   4  19
TORSDOF 6
ENDMDL
MODEL 9
REMARK VINA RESULT:     -11.6      6.243     10.371
REMARK  Name = 11538455
REMARK  6 active torsions:
REMARK  status: ('A' for Active; 'I' for Inactive)
REMARK    1  A    between atoms: C_4  and  C_19
REMARK    2  A    between atoms: C_12  and  C_15
REMARK    3  A    between atoms: N_14  and  O_17
REMARK    4  A    between atoms: C_19  and  N_20
REMARK    5  A    between atoms: N_20  and  C_23
REMARK    6  A    between atoms: C_23  and  C_25
REMARK                            x       y       z     vdW  Elec       q    Type
REMARK                         _______ _______ _______ _____ _____    ______ ____
ROOT
ATOM      1  N   UNL     1      32.747 -12.471 -22.026  0.00  0.00    -0.253 N 
ATOM      2  N   UNL     1      33.875 -14.227 -23.131  0.00  0.00    -0.203 NA
ATOM      3  N   UNL     1      33.467 -14.328 -20.758  0.00  0.00    -0.180 NA
ATOM      4  C   UNL     1      31.301  -9.966 -22.149  0.00  0.00    -0.018 C 
ATOM      5  C   UNL     1      32.465 -10.272 -23.097  0.00  0.00    +0.020 C 
ATOM      6  C   UNL     1      31.511 -10.710 -20.826  0.00  0.00    +0.020 C 
ATOM      7  C   UNL     1      32.636 -11.776 -23.312  0.00  0.00    +0.101 C 
ATOM      8  C   UNL     1      31.679 -12.212 -21.051  0.00  0.00    +0.101 C 
ATOM      9  C   UNL     1      33.384 -13.717 -21.969  0.00  0.00    +0.090 C 
ATOM     10  C   UNL     1      34.484 -15.427 -23.039  0.00  0.00    +0.170 C 
ATOM     11  C   UNL     1      34.089 -15.524 -20.739  0.00  0.00    +0.113 C 
ATOM     12  C   UNL     1      34.622 -16.129 -21.859  0.00  0.00    +0.078 C 
ENDROOT
BRANCH  12  15
ATOM     13  O   UNL     1      35.439 -18.105 -22.829  0.00  0.00    -0.268 OA
ATOM     14  N   UNL     1      35.718 -17.854 -20.555  0.00  0.00    -0.194 N 
ATOM     15  C   UNL     1      35.283 -17.418 -21.800  0.00  0.00    +0.267 C 
ATOM     16  H   UNL     1      35.594 -17.307 -19.745  0.00  0.00    +0.183 HD
BRANCH  14  17
ATOM     17  O   UNL     1      36.345 -19.107 -20.503  0.00  0.00    -0.295 OA
ATOM     18  H   UNL     1      35.783 -19.769 -20.936  0.00  0.00    +0.241 HD
ENDBRANCH  14  17
ENDBRANCH  12  15
BRANCH   4  19
ATOM     19  C   UNL     1      31.173  -8.463 -21.912  0.00  0.00    -0.081 C 
BRANCH  19  20
ATOM     20  N   UNL     1      31.286  -8.149 -20.497  0.00  0.00    +0.386 N 
ATOM     21  H   UNL     1      31.443  -9.012 -19.975  0.00  0.00    -0.084 HD
ATOM     22  H   UNL     1      30.421  -7.701 -20.193  0.00  0.00    -0.084 HD
BRANCH  20  23
ATOM     23  C   UNL     1      32.393  -7.234 -20.250  0.00  0.00    -0.053 C 
BRANCH  23  25
ATOM     24  N   UNL     1      33.350  -5.310 -23.203  0.00  0.00    -0.284 N 
ATOM     25  C   UNL     1      32.557  -6.281 -21.402  0.00  0.00    -0.028 C 
ATOM     26  C   UNL     1      31.716  -5.191 -21.689  0.00  0.00    +0.009 C 
ATOM     27  C   UNL     1      33.550  -6.346 -22.330  0.00  0.00    +0.059 C 
ATOM     28  C   UNL     1      32.237  -4.588 -22.835  0.00  0.00    +0.051 C 
ATOM     29  C   UNL     1      30.560  -4.642 -21.100  0.00  0.00    +0.001 C 
ATOM     30  C   UNL     1      31.658  -3.458 -23.425  0.00  0.00    +0.015 C 
ATOM     31  C   UNL     1      34.195  -5.030 -24.343  0.00  0.00    +0.117 C 
ATOM     32  C   UNL     1      29.969  -3.511 -21.678  0.00  0.00    +0.000 C 
ATOM     33  C   UNL     1      30.511  -2.931 -22.823  0.00  0.00    +0.001 C 
ENDBRANCH  23  25
ENDBRANCH  20  23
ENDBRANCH  19  20
ENDBRANCH   4  19
TORSDOF 6
ENDMDL
