MODEL 1
REMARK VINA RESULT:     -13.9      0.000      0.000
REMARK  Name = 11610553
REMARK  5 active torsions:
REMARK  status: ('A' for Active; 'I' for Inactive)
REMARK    1  A    between atoms: C_1  and  C_9
REMARK    2  A    between atoms: C_4  and  O_19
REMARK    3  A    between atoms: C_10  and  C_14
REMARK    4  A    between atoms: O_19  and  C_20
REMARK    5  A    between atoms: C_20  and  C_22
REMARK                            x       y       z     vdW  Elec       q    Type
REMARK                         _______ _______ _______ _____ _____    ______ ____
ROOT
ATOM      1  C   UNL     1      32.805 -21.812 -17.979  0.00  0.00    +0.015 C 
ATOM      2  C   UNL     1      34.168 -22.056 -18.149  0.00  0.00    +0.004 C 
ATOM      3  C   UNL     1      32.135 -20.956 -18.854  0.00  0.00    +0.004 C 
ATOM      4  C   UNL     1      34.186 -20.591 -20.060  0.00  0.00    +0.139 C 
ATOM      5  C   UNL     1      34.860 -21.443 -19.193  0.00  0.00    +0.037 C 
ATOM      6  C   UNL     1      32.827 -20.344 -19.897  0.00  0.00    +0.037 C 
ENDROOT
BRANCH   1   9
ATOM      7  N   UNL     1      30.726 -22.525 -16.880  0.00  0.00    -0.236 N 
ATOM      8  N   UNL     1      30.234 -23.149 -15.796  0.00  0.00    -0.180 NA
ATOM      9  C   UNL     1      32.088 -22.445 -16.899  0.00  0.00    +0.067 C 
ATOM     10  C   UNL     1      32.517 -23.061 -15.748  0.00  0.00    +0.036 C 
ATOM     11  C   UNL     1      31.332 -23.474 -15.109  0.00  0.00    +0.119 C 
ATOM     12  H   UNL     1      30.157 -22.159 -17.594  0.00  0.00    +0.174 HD
BRANCH  10  14
ATOM     13  N   UNL     1      36.562 -23.500 -14.587  0.00  0.00    -0.242 NA
ATOM     14  C   UNL     1      33.885 -23.209 -15.354  0.00  0.00    +0.006 C 
ATOM     15  C   UNL     1      34.461 -24.475 -15.280  0.00  0.00    +0.021 C 
ATOM     16  C   UNL     1      34.653 -22.089 -15.045  0.00  0.00    +0.021 C 
ATOM     17  C   UNL     1      35.788 -24.566 -14.895  0.00  0.00    +0.099 C 
ATOM     18  C   UNL     1      35.972 -22.287 -14.670  0.00  0.00    +0.099 C 
ENDBRANCH  10  14
ENDBRANCH   1   9
BRANCH   4  19
ATOM     19  O   UNL     1      34.867 -19.989 -21.086  0.00  0.00    -0.468 OA
BRANCH  19  20
ATOM     20  C   UNL     1      35.655 -18.854 -20.753  0.00  0.00    +0.264 C 
BRANCH  20  22
ATOM     21  N   UNL     1      34.757 -16.607 -20.694  0.00  0.00    -0.406 NA
ATOM     22  C   UNL     1      35.124 -17.655 -21.466  0.00  0.00    +0.152 C 
ATOM     23  C   UNL     1      34.139 -15.430 -22.704  0.00  0.00    +0.026 C 
ATOM     24  C   UNL     1      34.271 -15.508 -21.302  0.00  0.00    +0.113 C 
ATOM     25  C   UNL     1      35.031 -17.672 -22.843  0.00  0.00    +0.031 C 
ATOM     26  C   UNL     1      34.530 -16.539 -23.467  0.00  0.00    +0.005 C 
ATOM     27  C   UNL     1      33.628 -14.267 -23.306  0.00  0.00    +0.002 C 
ATOM     28  C   UNL     1      33.883 -14.405 -20.546  0.00  0.00    +0.085 C 
ATOM     29  C   UNL     1      33.247 -13.179 -22.525  0.00  0.00    -0.004 C 
ATOM     30  C   UNL     1      33.375 -13.249 -21.144  0.00  0.00    -0.019 C 
ENDBRANCH  20  22
ENDBRANCH  19  20
ENDBRANCH   4  19
TORSDOF 5
ENDMDL
MODEL 2
REMARK VINA RESULT:     -13.6      1.685      2.639
REMARK  Name = 11610553
REMARK  5 active torsions:
REMARK  status: ('A' for Active; 'I' for Inactive)
REMARK    1  A    between atoms: C_1  and  C_9
REMARK    2  A    between atoms: C_4  and  O_19
REMARK    3  A    between atoms: C_10  and  C_14
REMARK    4  A    between atoms: O_19  and  C_20
REMARK    5  A    between atoms: C_20  and  C_22
REMARK                            x       y       z     vdW  Elec       q    Type
REMARK                         _______ _______ _______ _____ _____    ______ ____
ROOT
ATOM      1  C   UNL     1      34.306 -22.399 -16.294  0.00  0.00    +0.015 C 
ATOM      2  C   UNL     1      33.473 -22.419 -17.412  0.00  0.00    +0.004 C 
ATOM      3  C   UNL     1      35.591 -21.865 -16.390  0.00  0.00    +0.004 C 
ATOM      4  C   UNL     1      35.207 -21.374 -18.716  0.00  0.00    +0.139 C 
ATOM      5  C   UNL     1      33.926 -21.904 -18.627  0.00  0.00    +0.037 C 
ATOM      6  C   UNL     1      36.043 -21.350 -17.604  0.00  0.00    +0.037 C 
ENDROOT
BRANCH   1   9
ATOM      7  N   UNL     1      32.653 -22.547 -14.482  0.00  0.00    -0.236 N 
ATOM      8  N   UNL     1      32.382 -23.148 -13.311  0.00  0.00    -0.180 NA
ATOM      9  C   UNL     1      33.839 -22.932 -15.037  0.00  0.00    +0.067 C 
ATOM     10  C   UNL     1      34.380 -23.848 -14.168  0.00  0.00    +0.036 C 
ATOM     11  C   UNL     1      33.440 -23.941 -13.124  0.00  0.00    +0.119 C 
ATOM     12  H   UNL     1      32.052 -21.890 -14.901  0.00  0.00    +0.174 HD
BRANCH  10  14
ATOM     13  N   UNL     1      38.078 -25.830 -14.714  0.00  0.00    -0.242 NA
ATOM     14  C   UNL     1      35.632 -24.519 -14.354  0.00  0.00    +0.006 C 
ATOM     15  C   UNL     1      36.820 -23.905 -13.968  0.00  0.00    +0.021 C 
ATOM     16  C   UNL     1      35.670 -25.790 -14.919  0.00  0.00    +0.021 C 
ATOM     17  C   UNL     1      38.005 -24.595 -14.167  0.00  0.00    +0.099 C 
ATOM     18  C   UNL     1      36.906 -26.396 -15.077  0.00  0.00    +0.099 C 
ENDBRANCH  10  14
ENDBRANCH   1   9
BRANCH   4  19
ATOM     19  O   UNL     1      35.652 -20.868 -19.909  0.00  0.00    -0.468 OA
BRANCH  19  20
ATOM     20  C   UNL     1      35.991 -19.488 -19.934  0.00  0.00    +0.264 C 
BRANCH  20  22
ATOM     21  N   UNL     1      35.264 -17.495 -21.099  0.00  0.00    -0.406 NA
ATOM     22  C   UNL     1      35.359 -18.844 -21.123  0.00  0.00    +0.152 C 
ATOM     23  C   UNL     1      34.210 -17.598 -23.263  0.00  0.00    +0.026 C 
ATOM     24  C   UNL     1      34.697 -16.877 -22.153  0.00  0.00    +0.113 C 
ATOM     25  C   UNL     1      34.912 -19.632 -22.163  0.00  0.00    +0.031 C 
ATOM     26  C   UNL     1      34.329 -18.994 -23.248  0.00  0.00    +0.005 C 
ATOM     27  C   UNL     1      33.625 -16.921 -24.347  0.00  0.00    +0.002 C 
ATOM     28  C   UNL     1      34.580 -15.490 -22.170  0.00  0.00    +0.085 C 
ATOM     29  C   UNL     1      33.520 -15.533 -24.338  0.00  0.00    -0.004 C 
ATOM     30  C   UNL     1      33.997 -14.817 -23.247  0.00  0.00    -0.019 C 
ENDBRANCH  20  22
ENDBRANCH  19  20
ENDBRANCH   4  19
TORSDOF 5
ENDMDL
MODEL 3
REMARK VINA RESULT:     -13.1      2.087      3.188
REMARK  Name = 11610553
REMARK  5 active torsions:
REMARK  status: ('A' for Active; 'I' for Inactive)
REMARK    1  A    between atoms: C_1  and  C_9
REMARK    2  A    between atoms: C_4  and  O_19
REMARK    3  A    between atoms: C_10  and  C_14
REMARK    4  A    between atoms: O_19  and  C_20
REMARK    5  A    between atoms: C_20  and  C_22
REMARK                            x       y       z     vdW  Elec       q    Type
REMARK                         _______ _______ _______ _____ _____    ______ ____
ROOT
ATOM      1  C   UNL     1      34.610 -22.470 -15.862  0.00  0.00    +0.015 C 
ATOM      2  C   UNL     1      35.882 -21.912 -15.991  0.00  0.00    +0.004 C 
ATOM      3  C   UNL     1      33.743 -22.491 -16.955  0.00  0.00    +0.004 C 
ATOM      4  C   UNL     1      35.415 -21.397 -18.298  0.00  0.00    +0.139 C 
ATOM      5  C   UNL     1      36.285 -21.374 -17.214  0.00  0.00    +0.037 C 
ATOM      6  C   UNL     1      34.146 -21.953 -18.176  0.00  0.00    +0.037 C 
ENDROOT
BRANCH   1   9
ATOM      7  N   UNL     1      33.044 -22.633 -13.976  0.00  0.00    -0.236 N 
ATOM      8  N   UNL     1      32.816 -23.259 -12.809  0.00  0.00    -0.180 NA
ATOM      9  C   UNL     1      34.192 -23.027 -14.599  0.00  0.00    +0.067 C 
ATOM     10  C   UNL     1      34.755 -23.977 -13.781  0.00  0.00    +0.036 C 
ATOM     11  C   UNL     1      33.864 -24.079 -12.695  0.00  0.00    +0.119 C 
ATOM     12  H   UNL     1      32.438 -21.953 -14.348  0.00  0.00    +0.174 HD
BRANCH  10  14
ATOM     13  N   UNL     1      38.378 -26.020 -14.559  0.00  0.00    -0.242 NA
ATOM     14  C   UNL     1      35.981 -24.668 -14.045  0.00  0.00    +0.006 C 
ATOM     15  C   UNL     1      37.192 -24.139 -13.608  0.00  0.00    +0.021 C 
ATOM     16  C   UNL     1      35.971 -25.875 -14.739  0.00  0.00    +0.021 C 
ATOM     17  C   UNL     1      38.351 -24.846 -13.888  0.00  0.00    +0.099 C 
ATOM     18  C   UNL     1      37.184 -26.504 -14.969  0.00  0.00    +0.099 C 
ENDBRANCH  10  14
ENDBRANCH   1   9
BRANCH   4  19
ATOM     19  O   UNL     1      35.812 -20.868 -19.498  0.00  0.00    -0.468 OA
BRANCH  19  20
ATOM     20  C   UNL     1      34.858 -20.883 -20.551  0.00  0.00    +0.264 C 
BRANCH  20  22
ATOM     21  N   UNL     1      34.153 -19.458 -22.376  0.00  0.00    -0.406 NA
ATOM     22  C   UNL     1      34.813 -19.540 -21.199  0.00  0.00    +0.152 C 
ATOM     23  C   UNL     1      34.695 -17.111 -22.441  0.00  0.00    +0.026 C 
ATOM     24  C   UNL     1      34.092 -18.262 -22.992  0.00  0.00    +0.113 C 
ATOM     25  C   UNL     1      35.433 -18.471 -20.584  0.00  0.00    +0.031 C 
ATOM     26  C   UNL     1      35.369 -17.239 -21.220  0.00  0.00    +0.005 C 
ATOM     27  C   UNL     1      34.612 -15.878 -23.110  0.00  0.00    +0.002 C 
ATOM     28  C   UNL     1      33.422 -18.133 -24.205  0.00  0.00    +0.085 C 
ATOM     29  C   UNL     1      33.936 -15.778 -24.323  0.00  0.00    -0.004 C 
ATOM     30  C   UNL     1      33.341 -16.908 -24.870  0.00  0.00    -0.019 C 
ENDBRANCH  20  22
ENDBRANCH  19  20
ENDBRANCH   4  19
TORSDOF 5
ENDMDL
MODEL 4
REMARK VINA RESULT:     -12.9      2.912      5.036
REMARK  Name = 11610553
REMARK  5 active torsions:
REMARK  status: ('A' for Active; 'I' for Inactive)
REMARK    1  A    between atoms: C_1  and  C_9
REMARK    2  A    between atoms: C_4  and  O_19
REMARK    3  A    between atoms: C_10  and  C_14
REMARK    4  A    between atoms: O_19  and  C_20
REMARK    5  A    between atoms: C_20  and  C_22
REMARK                            x       y       z     vdW  Elec       q    Type
REMARK                         _______ _______ _______ _____ _____    ______ ____
ROOT
ATOM      1  C   UNL     1      34.439 -23.285 -13.588  0.00  0.00    +0.015 C 
ATOM      2  C   UNL     1      33.095 -23.554 -13.842  0.00  0.00    +0.004 C 
ATOM      3  C   UNL     1      35.238 -22.721 -14.583  0.00  0.00    +0.004 C 
ATOM      4  C   UNL     1      33.352 -22.699 -16.079  0.00  0.00    +0.139 C 
ATOM      5  C   UNL     1      32.550 -23.260 -15.093  0.00  0.00    +0.037 C 
ATOM      6  C   UNL     1      34.694 -22.427 -15.832  0.00  0.00    +0.037 C 
ENDROOT
BRANCH   1   9
ATOM      7  N   UNL     1      34.440 -23.145 -11.135  0.00  0.00    -0.236 N 
ATOM      8  N   UNL     1      35.102 -23.527 -10.029  0.00  0.00    -0.180 NA
ATOM      9  C   UNL     1      35.003 -23.589 -12.296  0.00  0.00    +0.067 C 
ATOM     10  C   UNL     1      36.111 -24.311 -11.922  0.00  0.00    +0.036 C 
ATOM     11  C   UNL     1      36.121 -24.238 -10.517  0.00  0.00    +0.119 C 
ATOM     12  H   UNL     1      33.623 -22.597 -11.110  0.00  0.00    +0.174 HD
BRANCH  10  14
ATOM     13  N   UNL     1      38.765 -26.242 -14.593  0.00  0.00    -0.242 NA
ATOM     14  C   UNL     1      37.009 -24.965 -12.825  0.00  0.00    +0.006 C 
ATOM     15  C   UNL     1      36.570 -26.035 -13.601  0.00  0.00    +0.021 C 
ATOM     16  C   UNL     1      38.329 -24.536 -12.937  0.00  0.00    +0.021 C 
ATOM     17  C   UNL     1      37.477 -26.633 -14.460  0.00  0.00    +0.099 C 
ATOM     18  C   UNL     1      39.158 -25.202 -13.825  0.00  0.00    +0.099 C 
ENDBRANCH  10  14
ENDBRANCH   1   9
BRANCH   4  19
ATOM     19  O   UNL     1      32.817 -22.410 -17.307  0.00  0.00    -0.468 OA
BRANCH  19  20
ATOM     20  C   UNL     1      33.623 -22.697 -18.441  0.00  0.00    +0.264 C 
BRANCH  20  22
ATOM     21  N   UNL     1      34.982 -21.009 -19.520  0.00  0.00    -0.406 NA
ATOM     22  C   UNL     1      33.733 -21.477 -19.293  0.00  0.00    +0.152 C 
ATOM     23  C   UNL     1      34.009 -19.244 -20.841  0.00  0.00    +0.026 C 
ATOM     24  C   UNL     1      35.121 -19.908 -20.283  0.00  0.00    +0.113 C 
ATOM     25  C   UNL     1      32.587 -20.896 -19.795  0.00  0.00    +0.031 C 
ATOM     26  C   UNL     1      32.733 -19.762 -20.581  0.00  0.00    +0.005 C 
ATOM     27  C   UNL     1      34.190 -18.098 -21.632  0.00  0.00    +0.002 C 
ATOM     28  C   UNL     1      36.388 -19.394 -20.543  0.00  0.00    +0.085 C 
ATOM     29  C   UNL     1      35.469 -17.604 -21.875  0.00  0.00    -0.004 C 
ATOM     30  C   UNL     1      36.569 -18.253 -21.330  0.00  0.00    -0.019 C 
ENDBRANCH  20  22
ENDBRANCH  19  20
ENDBRANCH   4  19
TORSDOF 5
ENDMDL
MODEL 5
REMARK VINA RESULT:     -12.8      1.068      3.010
REMARK  Name = 11610553
REMARK  5 active torsions:
REMARK  status: ('A' for Active; 'I' for Inactive)
REMARK    1  A    between atoms: C_1  and  C_9
REMARK    2  A    between atoms: C_4  and  O_19
REMARK    3  A    between atoms: C_10  and  C_14
REMARK    4  A    between atoms: O_19  and  C_20
REMARK    5  A    between atoms: C_20  and  C_22
REMARK                            x       y       z     vdW  Elec       q    Type
REMARK                         _______ _______ _______ _____ _____    ______ ____
ROOT
ATOM      1  C   UNL     1      34.683 -22.379 -16.833  0.00  0.00    +0.015 C 
ATOM      2  C   UNL     1      35.814 -21.649 -17.199  0.00  0.00    +0.004 C 
ATOM      3  C   UNL     1      33.557 -22.382 -17.655  0.00  0.00    +0.004 C 
ATOM      4  C   UNL     1      34.690 -20.926 -19.203  0.00  0.00    +0.139 C 
ATOM      5  C   UNL     1      35.816 -20.920 -18.389  0.00  0.00    +0.037 C 
ATOM      6  C   UNL     1      33.560 -21.653 -18.844  0.00  0.00    +0.037 C 
ENDROOT
BRANCH   1   9
ATOM      7  N   UNL     1      35.818 -23.678 -15.082  0.00  0.00    -0.236 N 
ATOM      8  N   UNL     1      35.624 -24.344 -13.931  0.00  0.00    -0.180 NA
ATOM      9  C   UNL     1      34.680 -23.132 -15.603  0.00  0.00    +0.067 C 
ATOM     10  C   UNL     1      33.672 -23.466 -14.731  0.00  0.00    +0.036 C 
ATOM     11  C   UNL     1      34.311 -24.211 -13.722  0.00  0.00    +0.119 C 
ATOM     12  H   UNL     1      36.699 -23.590 -15.510  0.00  0.00    +0.174 HD
BRANCH  10  14
ATOM     13  N   UNL     1      29.608 -22.378 -15.186  0.00  0.00    -0.242 NA
ATOM     14  C   UNL     1      32.297 -23.099 -14.884  0.00  0.00    +0.006 C 
ATOM     15  C   UNL     1      31.658 -22.343 -13.904  0.00  0.00    +0.021 C 
ATOM     16  C   UNL     1      31.587 -23.492 -16.016  0.00  0.00    +0.021 C 
ATOM     17  C   UNL     1      30.327 -22.013 -14.100  0.00  0.00    +0.099 C 
ATOM     18  C   UNL     1      30.258 -23.110 -16.117  0.00  0.00    +0.099 C 
ENDBRANCH  10  14
ENDBRANCH   1   9
BRANCH   4  19
ATOM     19  O   UNL     1      34.693 -20.211 -20.372  0.00  0.00    -0.468 OA
BRANCH  19  20
ATOM     20  C   UNL     1      35.726 -19.248 -20.531  0.00  0.00    +0.264 C 
BRANCH  20  22
ATOM     21  N   UNL     1      34.896 -16.976 -20.612  0.00  0.00    -0.406 NA
ATOM     22  C   UNL     1      35.208 -18.089 -21.315  0.00  0.00    +0.152 C 
ATOM     23  C   UNL     1      34.249 -15.930 -22.685  0.00  0.00    +0.026 C 
ATOM     24  C   UNL     1      34.423 -15.910 -21.285  0.00  0.00    +0.113 C 
ATOM     25  C   UNL     1      35.071 -18.203 -22.683  0.00  0.00    +0.031 C 
ATOM     26  C   UNL     1      34.583 -17.104 -23.374  0.00  0.00    +0.005 C 
ATOM     27  C   UNL     1      33.752 -14.799 -23.355  0.00  0.00    +0.002 C 
ATOM     28  C   UNL     1      34.091 -14.743 -20.602  0.00  0.00    +0.085 C 
ATOM     29  C   UNL     1      33.428 -13.646 -22.646  0.00  0.00    -0.004 C 
ATOM     30  C   UNL     1      33.597 -13.619 -21.268  0.00  0.00    -0.019 C 
ENDBRANCH  20  22
ENDBRANCH  19  20
ENDBRANCH   4  19
TORSDOF 5
ENDMDL
MODEL 6
REMARK VINA RESULT:     -12.5      1.800      3.668
REMARK  Name = 11610553
REMARK  5 active torsions:
REMARK  status: ('A' for Active; 'I' for Inactive)
REMARK    1  A    between atoms: C_1  and  C_9
REMARK    2  A    between atoms: C_4  and  O_19
REMARK    3  A    between atoms: C_10  and  C_14
REMARK    4  A    between atoms: O_19  and  C_20
REMARK    5  A    between atoms: C_20  and  C_22
REMARK                            x       y       z     vdW  Elec       q    Type
REMARK                         _______ _______ _______ _____ _____    ______ ____
ROOT
ATOM      1  C   UNL     1      32.795 -22.564 -16.339  0.00  0.00    +0.015 C 
ATOM      2  C   UNL     1      31.747 -22.108 -17.138  0.00  0.00    +0.004 C 
ATOM      3  C   UNL     1      34.112 -22.458 -16.787  0.00  0.00    +0.004 C 
ATOM      4  C   UNL     1      33.332 -21.444 -18.827  0.00  0.00    +0.139 C 
ATOM      5  C   UNL     1      32.017 -21.546 -18.387  0.00  0.00    +0.037 C 
ATOM      6  C   UNL     1      34.381 -21.897 -18.034  0.00  0.00    +0.037 C 
ENDROOT
BRANCH   1   9
ATOM      7  N   UNL     1      33.507 -23.465 -14.167  0.00  0.00    -0.236 N 
ATOM      8  N   UNL     1      33.060 -23.996 -13.016  0.00  0.00    -0.180 NA
ATOM      9  C   UNL     1      32.516 -23.146 -15.049  0.00  0.00    +0.067 C 
ATOM     10  C   UNL     1      31.339 -23.493 -14.431  0.00  0.00    +0.036 C 
ATOM     11  C   UNL     1      31.735 -24.011 -13.184  0.00  0.00    +0.119 C 
ATOM     12  H   UNL     1      34.462 -23.319 -14.356  0.00  0.00    +0.174 HD
BRANCH  10  14
ATOM     13  N   UNL     1      27.482 -23.018 -16.104  0.00  0.00    -0.242 NA
ATOM     14  C   UNL     1      30.034 -23.332 -14.998  0.00  0.00    +0.006 C 
ATOM     15  C   UNL     1      29.437 -24.380 -15.693  0.00  0.00    +0.021 C 
ATOM     16  C   UNL     1      29.351 -22.127 -14.857  0.00  0.00    +0.021 C 
ATOM     17  C   UNL     1      28.173 -24.175 -16.222  0.00  0.00    +0.099 C 
ATOM     18  C   UNL     1      28.091 -22.022 -15.424  0.00  0.00    +0.099 C 
ENDBRANCH  10  14
ENDBRANCH   1   9
BRANCH   4  19
ATOM     19  O   UNL     1      33.596 -20.892 -20.052  0.00  0.00    -0.468 OA
BRANCH  19  20
ATOM     20  C   UNL     1      34.835 -20.209 -20.194  0.00  0.00    +0.264 C 
BRANCH  20  22
ATOM     21  N   UNL     1      34.543 -17.839 -20.593  0.00  0.00    -0.406 NA
ATOM     22  C   UNL     1      34.667 -19.069 -21.142  0.00  0.00    +0.152 C 
ATOM     23  C   UNL     1      34.352 -16.938 -22.820  0.00  0.00    +0.026 C 
ATOM     24  C   UNL     1      34.388 -16.786 -21.418  0.00  0.00    +0.113 C 
ATOM     25  C   UNL     1      34.643 -19.316 -22.500  0.00  0.00    +0.031 C 
ATOM     26  C   UNL     1      34.483 -18.230 -23.347  0.00  0.00    +0.005 C 
ATOM     27  C   UNL     1      34.189 -15.817 -23.652  0.00  0.00    +0.002 C 
ATOM     28  C   UNL     1      34.259 -15.503 -20.895  0.00  0.00    +0.085 C 
ATOM     29  C   UNL     1      34.061 -14.545 -23.102  0.00  0.00    -0.004 C 
ATOM     30  C   UNL     1      34.096 -14.388 -21.722  0.00  0.00    -0.019 C 
ENDBRANCH  20  22
ENDBRANCH  19  20
ENDBRANCH   4  19
TORSDOF 5
ENDMDL
MODEL 7
REMARK VINA RESULT:     -12.5      5.922     12.827
REMARK  Name = 11610553
REMARK  5 active torsions:
REMARK  status: ('A' for Active; 'I' for Inactive)
REMARK    1  A    between atoms: C_1  and  C_9
REMARK    2  A    between atoms: C_4  and  O_19
REMARK    3  A    between atoms: C_10  and  C_14
REMARK    4  A    between atoms: O_19  and  C_20
REMARK    5  A    between atoms: C_20  and  C_22
REMARK                            x       y       z     vdW  Elec       q    Type
REMARK                         _______ _______ _______ _____ _____    ______ ____
ROOT
ATOM      1  C   UNL     1      31.831  -9.305 -21.423  0.00  0.00    +0.015 C 
ATOM      2  C   UNL     1      31.321 -10.419 -20.756  0.00  0.00    +0.004 C 
ATOM      3  C   UNL     1      32.456  -9.459 -22.660  0.00  0.00    +0.004 C 
ATOM      4  C   UNL     1      32.062 -11.832 -22.559  0.00  0.00    +0.139 C 
ATOM      5  C   UNL     1      31.437 -11.687 -21.326  0.00  0.00    +0.037 C 
ATOM      6  C   UNL     1      32.573 -10.726 -23.230  0.00  0.00    +0.037 C 
ENDROOT
BRANCH   1   9
ATOM      7  N   UNL     1      31.672  -7.807 -19.482  0.00  0.00    -0.236 N 
ATOM      8  N   UNL     1      31.559  -6.519 -19.115  0.00  0.00    -0.180 NA
ATOM      9  C   UNL     1      31.711  -7.994 -20.833  0.00  0.00    +0.067 C 
ATOM     10  C   UNL     1      31.616  -6.741 -21.389  0.00  0.00    +0.036 C 
ATOM     11  C   UNL     1      31.525  -5.873 -20.284  0.00  0.00    +0.119 C 
ATOM     12  H   UNL     1      31.724  -8.547 -18.836  0.00  0.00    +0.174 HD
BRANCH  10  14
ATOM     13  N   UNL     1      31.618  -5.916 -25.538  0.00  0.00    -0.242 NA
ATOM     14  C   UNL     1      31.616  -6.461 -22.792  0.00  0.00    +0.006 C 
ATOM     15  C   UNL     1      32.755  -5.945 -23.405  0.00  0.00    +0.021 C 
ATOM     16  C   UNL     1      30.478  -6.704 -23.557  0.00  0.00    +0.021 C 
ATOM     17  C   UNL     1      32.706  -5.692 -24.766  0.00  0.00    +0.099 C 
ATOM     18  C   UNL     1      30.530  -6.417 -24.912  0.00  0.00    +0.099 C 
ENDBRANCH  10  14
ENDBRANCH   1   9
BRANCH   4  19
ATOM     19  O   UNL     1      32.176 -13.078 -23.119  0.00  0.00    -0.468 OA
BRANCH  19  20
ATOM     20  C   UNL     1      33.419 -13.393 -23.734  0.00  0.00    +0.264 C 
BRANCH  20  22
ATOM     21  N   UNL     1      34.228 -15.290 -22.467  0.00  0.00    -0.406 NA
ATOM     22  C   UNL     1      33.670 -14.859 -23.621  0.00  0.00    +0.152 C 
ATOM     23  C   UNL     1      34.161 -17.531 -23.349  0.00  0.00    +0.026 C 
ATOM     24  C   UNL     1      34.471 -16.607 -22.330  0.00  0.00    +0.113 C 
ATOM     25  C   UNL     1      33.332 -15.687 -24.673  0.00  0.00    +0.031 C 
ATOM     26  C   UNL     1      33.584 -17.043 -24.529  0.00  0.00    +0.005 C 
ATOM     27  C   UNL     1      34.428 -18.899 -23.173  0.00  0.00    +0.002 C 
ATOM     28  C   UNL     1      35.043 -17.093 -21.158  0.00  0.00    +0.085 C 
ATOM     29  C   UNL     1      35.002 -19.358 -21.990  0.00  0.00    -0.004 C 
ATOM     30  C   UNL     1      35.310 -18.454 -20.982  0.00  0.00    -0.019 C 
ENDBRANCH  20  22
ENDBRANCH  19  20
ENDBRANCH   4  19
TORSDOF 5
ENDMDL
MODEL 8
REMARK VINA RESULT:     -12.4      2.920      5.495
REMARK  Name = 11610553
REMARK  5 active torsions:
REMARK  status: ('A' for Active; 'I' for Inactive)
REMARK    1  A    between atoms: C_1  and  C_9
REMARK    2  A    between atoms: C_4  and  O_19
REMARK    3  A    between atoms: C_10  and  C_14
REMARK    4  A    between atoms: O_19  and  C_20
REMARK    5  A    between atoms: C_20  and  C_22
REMARK                            x       y       z     vdW  Elec       q    Type
REMARK                         _______ _______ _______ _____ _____    ______ ____
ROOT
ATOM      1  C   UNL     1      36.823 -23.426 -15.146  0.00  0.00    +0.015 C 
ATOM      2  C   UNL     1      35.588 -24.060 -15.006  0.00  0.00    +0.004 C 
ATOM      3  C   UNL     1      36.940 -22.295 -15.953  0.00  0.00    +0.004 C 
ATOM      4  C   UNL     1      34.594 -22.434 -16.480  0.00  0.00    +0.139 C 
ATOM      5  C   UNL     1      34.470 -23.561 -15.676  0.00  0.00    +0.037 C 
ATOM      6  C   UNL     1      35.823 -21.797 -16.623  0.00  0.00    +0.037 C 
ENDROOT
BRANCH   1   9
ATOM      7  N   UNL     1      39.142 -24.238 -15.103  0.00  0.00    -0.236 N 
ATOM      8  N   UNL     1      40.110 -24.706 -14.297  0.00  0.00    -0.180 NA
ATOM      9  C   UNL     1      37.979 -23.941 -14.453  0.00  0.00    +0.067 C 
ATOM     10  C   UNL     1      38.203 -24.236 -13.130  0.00  0.00    +0.036 C 
ATOM     11  C   UNL     1      39.531 -24.703 -13.093  0.00  0.00    +0.119 C 
ATOM     12  H   UNL     1      39.260 -24.119 -16.072  0.00  0.00    +0.174 HD
BRANCH  10  14
ATOM     13  N   UNL     1      35.370 -23.766 -10.023  0.00  0.00    -0.242 NA
ATOM     14  C   UNL     1      37.245 -24.077 -12.078  0.00  0.00    +0.006 C 
ATOM     15  C   UNL     1      37.039 -22.828 -11.500  0.00  0.00    +0.021 C 
ATOM     16  C   UNL     1      36.510 -25.170 -11.626  0.00  0.00    +0.021 C 
ATOM     17  C   UNL     1      36.100 -22.725 -10.486  0.00  0.00    +0.099 C 
ATOM     18  C   UNL     1      35.595 -24.964 -10.606  0.00  0.00    +0.099 C 
ENDBRANCH  10  14
ENDBRANCH   1   9
BRANCH   4  19
ATOM     19  O   UNL     1      33.497 -21.945 -17.138  0.00  0.00    -0.468 OA
BRANCH  19  20
ATOM     20  C   UNL     1      33.313 -22.369 -18.482  0.00  0.00    +0.264 C 
BRANCH  20  22
ATOM     21  N   UNL     1      34.812 -20.816 -19.577  0.00  0.00    -0.406 NA
ATOM     22  C   UNL     1      33.531 -21.214 -19.401  0.00  0.00    +0.152 C 
ATOM     23  C   UNL     1      34.004 -19.102 -21.066  0.00  0.00    +0.026 C 
ATOM     24  C   UNL     1      35.048 -19.775 -20.398  0.00  0.00    +0.113 C 
ATOM     25  C   UNL     1      32.446 -20.619 -20.010  0.00  0.00    +0.031 C 
ATOM     26  C   UNL     1      32.692 -19.546 -20.855  0.00  0.00    +0.005 C 
ATOM     27  C   UNL     1      34.286 -18.019 -21.916  0.00  0.00    +0.002 C 
ATOM     28  C   UNL     1      36.351 -19.333 -20.609  0.00  0.00    +0.085 C 
ATOM     29  C   UNL     1      35.599 -17.598 -22.108  0.00  0.00    -0.004 C 
ATOM     30  C   UNL     1      36.633 -18.256 -21.453  0.00  0.00    -0.019 C 
ENDBRANCH  20  22
ENDBRANCH  19  20
ENDBRANCH   4  19
TORSDOF 5
ENDMDL
MODEL 9
REMARK VINA RESULT:     -12.3      7.770     15.035
REMARK  Name = 11610553
REMARK  5 active torsions:
REMARK  status: ('A' for Active; 'I' for Inactive)
REMARK    1  A    between atoms: C_1  and  C_9
REMARK    2  A    between atoms: C_4  and  O_19
REMARK    3  A    between atoms: C_10  and  C_14
REMARK    4  A    between atoms: O_19  and  C_20
REMARK    5  A    between atoms: C_20  and  C_22
REMARK                            x       y       z     vdW  Elec       q    Type
REMARK                         _______ _______ _______ _____ _____    ______ ____
ROOT
ATOM      1  C   UNL     1      30.923  -5.956 -22.306  0.00  0.00    +0.015 C 
ATOM      2  C   UNL     1      31.541  -6.198 -21.079  0.00  0.00    +0.004 C 
ATOM      3  C   UNL     1      30.468  -7.023 -23.080  0.00  0.00    +0.004 C 
ATOM      4  C   UNL     1      31.247  -8.566 -21.404  0.00  0.00    +0.139 C 
ATOM      5  C   UNL     1      31.703  -7.508 -20.627  0.00  0.00    +0.037 C 
ATOM      6  C   UNL     1      30.630  -8.332 -22.629  0.00  0.00    +0.037 C 
ENDROOT
BRANCH   1   9
ATOM      7  N   UNL     1      29.917  -3.719 -22.156  0.00  0.00    -0.236 N 
ATOM      8  N   UNL     1      29.890  -2.504 -22.730  0.00  0.00    -0.180 NA
ATOM      9  C   UNL     1      30.756  -4.602 -22.773  0.00  0.00    +0.067 C 
ATOM     10  C   UNL     1      31.315  -3.915 -23.824  0.00  0.00    +0.036 C 
ATOM     11  C   UNL     1      30.745  -2.630 -23.748  0.00  0.00    +0.119 C 
ATOM     12  H   UNL     1      29.383  -3.951 -21.363  0.00  0.00    +0.174 HD
BRANCH  10  14
ATOM     13  N   UNL     1      34.115  -5.517 -26.561  0.00  0.00    -0.242 NA
ATOM     14  C   UNL     1      32.262  -4.458 -24.750  0.00  0.00    +0.006 C 
ATOM     15  C   UNL     1      31.830  -5.017 -25.950  0.00  0.00    +0.021 C 
ATOM     16  C   UNL     1      33.624  -4.430 -24.459  0.00  0.00    +0.021 C 
ATOM     17  C   UNL     1      32.786  -5.528 -26.812  0.00  0.00    +0.099 C 
ATOM     18  C   UNL     1      34.500  -4.968 -25.388  0.00  0.00    +0.099 C 
ENDBRANCH  10  14
ENDBRANCH   1   9
BRANCH   4  19
ATOM     19  O   UNL     1      31.407  -9.853 -20.961  0.00  0.00    -0.468 OA
BRANCH  19  20
ATOM     20  C   UNL     1      30.898 -10.886 -21.794  0.00  0.00    +0.264 C 
BRANCH  20  22
ATOM     21  N   UNL     1      32.176 -12.642 -22.863  0.00  0.00    -0.406 NA
ATOM     22  C   UNL     1      31.783 -12.084 -21.695  0.00  0.00    +0.152 C 
ATOM     23  C   UNL     1      33.399 -14.281 -21.589  0.00  0.00    +0.026 C 
ATOM     24  C   UNL     1      32.973 -13.726 -22.814  0.00  0.00    +0.113 C 
ATOM     25  C   UNL     1      32.147 -12.556 -20.451  0.00  0.00    +0.031 C 
ATOM     26  C   UNL     1      32.968 -13.672 -20.403  0.00  0.00    +0.005 C 
ATOM     27  C   UNL     1      34.232 -15.413 -21.575  0.00  0.00    +0.002 C 
ATOM     28  C   UNL     1      33.403 -14.331 -23.991  0.00  0.00    +0.085 C 
ATOM     29  C   UNL     1      34.645 -15.999 -22.768  0.00  0.00    -0.004 C 
ATOM     30  C   UNL     1      34.230 -15.457 -23.977  0.00  0.00    -0.019 C 
ENDBRANCH  20  22
ENDBRANCH  19  20
ENDBRANCH   4  19
TORSDOF 5
ENDMDL
