MODEL 1
REMARK VINA RESULT:     -12.5      0.000      0.000
REMARK  Name = 5359405
REMARK  0 active torsions:
REMARK  status: ('A' for Active; 'I' for Inactive)
REMARK                            x       y       z     vdW  Elec       q    Type
REMARK                         _______ _______ _______ _____ _____    ______ ____
ROOT
ATOM      1  O   UNL     1      32.449 -20.955 -19.935  0.00  0.00    -0.285 OA
ATOM      2  O   UNL     1      32.094 -22.247 -18.284  0.00  0.00    -0.270 OA
ATOM      3  N   UNL     1      35.803 -20.233 -19.268  0.00  0.00    -0.310 N 
ATOM      4  N   UNL     1      33.299 -23.115 -16.448  0.00  0.00    -0.280 N 
ATOM      5  C   UNL     1      34.431 -21.714 -17.862  0.00  0.00    +0.071 C 
ATOM      6  C   UNL     1      34.666 -20.902 -18.894  0.00  0.00    +0.092 C 
ATOM      7  C   UNL     1      35.347 -22.133 -16.807  0.00  0.00    +0.019 C 
ATOM      8  C   UNL     1      34.610 -22.981 -15.977  0.00  0.00    +0.051 C 
ATOM      9  C   UNL     1      34.251 -19.661 -20.860  0.00  0.00    +0.054 C 
ATOM     10  C   UNL     1      35.572 -19.498 -20.424  0.00  0.00    +0.051 C 
ATOM     11  C   UNL     1      33.597 -20.570 -19.902  0.00  0.00    +0.210 C 
ATOM     12  C   UNL     1      33.100 -22.364 -17.611  0.00  0.00    +0.251 C 
ATOM     13  C   UNL     1      36.673 -21.853 -16.533  0.00  0.00    +0.001 C 
ATOM     14  C   UNL     1      35.156 -23.577 -14.856  0.00  0.00    +0.015 C 
ATOM     15  C   UNL     1      33.745 -19.044 -21.986  0.00  0.00    +0.004 C 
ATOM     16  C   UNL     1      36.439 -18.689 -21.129  0.00  0.00    +0.015 C 
ATOM     17  C   UNL     1      37.246 -22.448 -15.403  0.00  0.00    +0.000 C 
ATOM     18  C   UNL     1      36.494 -23.301 -14.572  0.00  0.00    +0.001 C 
ATOM     19  C   UNL     1      34.621 -18.226 -22.700  0.00  0.00    +0.000 C 
ATOM     20  C   UNL     1      35.953 -18.051 -22.277  0.00  0.00    +0.001 C 
ATOM     21  H   UNL     1      36.660 -20.267 -18.785  0.00  0.00    +0.152 HD
ATOM     22  H   UNL     1      32.607 -23.666 -16.018  0.00  0.00    +0.155 HD
ENDROOT
TORSDOF 0
ENDMDL
MODEL 2
REMARK VINA RESULT:     -12.2      1.147      5.958
REMARK  Name = 5359405
REMARK  0 active torsions:
REMARK  status: ('A' for Active; 'I' for Inactive)
REMARK                            x       y       z     vdW  Elec       q    Type
REMARK                         _______ _______ _______ _____ _____    ______ ____
ROOT
ATOM      1  O   UNL     1      32.942 -22.425 -17.542  0.00  0.00    -0.285 OA
ATOM      2  O   UNL     1      32.092 -21.466 -19.238  0.00  0.00    -0.270 OA
ATOM      3  N   UNL     1      36.184 -21.157 -17.845  0.00  0.00    -0.310 N 
ATOM      4  N   UNL     1      32.789 -19.995 -20.950  0.00  0.00    -0.280 N 
ATOM      5  C   UNL     1      34.364 -20.608 -19.407  0.00  0.00    +0.071 C 
ATOM      6  C   UNL     1      34.909 -21.205 -18.345  0.00  0.00    +0.092 C 
ATOM      7  C   UNL     1      34.994 -19.707 -20.366  0.00  0.00    +0.019 C 
ATOM      8  C   UNL     1      33.994 -19.366 -21.280  0.00  0.00    +0.051 C 
ATOM      9  C   UNL     1      35.061 -22.559 -16.416  0.00  0.00    +0.054 C 
ATOM     10  C   UNL     1      36.288 -21.950 -16.709  0.00  0.00    +0.051 C 
ATOM     11  C   UNL     1      34.110 -22.115 -17.449  0.00  0.00    +0.210 C 
ATOM     12  C   UNL     1      32.927 -20.784 -19.804  0.00  0.00    +0.251 C 
ATOM     13  C   UNL     1      36.273 -19.200 -20.496  0.00  0.00    +0.001 C 
ATOM     14  C   UNL     1      34.225 -18.517 -22.345  0.00  0.00    +0.015 C 
ATOM     15  C   UNL     1      34.874 -23.403 -15.341  0.00  0.00    +0.004 C 
ATOM     16  C   UNL     1      37.385 -22.181 -15.906  0.00  0.00    +0.015 C 
ATOM     17  C   UNL     1      36.529 -18.338 -21.568  0.00  0.00    +0.000 C 
ATOM     18  C   UNL     1      35.514 -18.000 -22.484  0.00  0.00    +0.001 C 
ATOM     19  C   UNL     1      35.983 -23.638 -14.528  0.00  0.00    +0.000 C 
ATOM     20  C   UNL     1      37.225 -23.034 -14.807  0.00  0.00    +0.001 C 
ATOM     21  H   UNL     1      36.923 -20.635 -18.235  0.00  0.00    +0.152 HD
ATOM     22  H   UNL     1      31.952 -19.896 -21.458  0.00  0.00    +0.155 HD
ENDROOT
TORSDOF 0
ENDMDL
MODEL 3
REMARK VINA RESULT:     -11.8      3.214      4.818
REMARK  Name = 5359405
REMARK  0 active torsions:
REMARK  status: ('A' for Active; 'I' for Inactive)
REMARK                            x       y       z     vdW  Elec       q    Type
REMARK                         _______ _______ _______ _____ _____    ______ ____
ROOT
ATOM      1  O   UNL     1      35.045 -22.712 -16.510  0.00  0.00    -0.285 OA
ATOM      2  O   UNL     1      34.374 -23.825 -14.828  0.00  0.00    -0.270 OA
ATOM      3  N   UNL     1      31.912 -21.928 -17.848  0.00  0.00    -0.310 N 
ATOM      4  N   UNL     1      32.319 -24.499 -13.880  0.00  0.00    -0.280 N 
ATOM      5  C   UNL     1      32.216 -23.253 -15.797  0.00  0.00    +0.071 C 
ATOM      6  C   UNL     1      32.625 -22.553 -16.857  0.00  0.00    +0.092 C 
ATOM      7  C   UNL     1      30.852 -23.561 -15.381  0.00  0.00    +0.019 C 
ATOM      8  C   UNL     1      30.972 -24.318 -14.214  0.00  0.00    +0.051 C 
ATOM      9  C   UNL     1      34.109 -21.522 -18.378  0.00  0.00    +0.054 C 
ATOM     10  C   UNL     1      32.775 -21.317 -18.750  0.00  0.00    +0.051 C 
ATOM     11  C   UNL     1      34.086 -22.326 -17.143  0.00  0.00    +0.210 C 
ATOM     12  C   UNL     1      33.159 -23.873 -14.806  0.00  0.00    +0.251 C 
ATOM     13  C   UNL     1      29.608 -23.258 -15.902  0.00  0.00    +0.001 C 
ATOM     14  C   UNL     1      29.873 -24.797 -13.527  0.00  0.00    +0.015 C 
ATOM     15  C   UNL     1      35.179 -21.028 -19.095  0.00  0.00    +0.004 C 
ATOM     16  C   UNL     1      32.476 -20.589 -19.883  0.00  0.00    +0.015 C 
ATOM     17  C   UNL     1      28.481 -23.732 -15.221  0.00  0.00    +0.000 C 
ATOM     18  C   UNL     1      28.613 -24.495 -14.045  0.00  0.00    +0.001 C 
ATOM     19  C   UNL     1      34.878 -20.292 -20.241  0.00  0.00    +0.000 C 
ATOM     20  C   UNL     1      33.542 -20.075 -20.631  0.00  0.00    +0.001 C 
ATOM     21  H   UNL     1      30.930 -21.914 -17.912  0.00  0.00    +0.152 HD
ATOM     22  H   UNL     1      32.635 -25.001 -13.094  0.00  0.00    +0.155 HD
ENDROOT
TORSDOF 0
ENDMDL
MODEL 4
REMARK VINA RESULT:     -11.4      2.237      6.532
REMARK  Name = 5359405
REMARK  0 active torsions:
REMARK  status: ('A' for Active; 'I' for Inactive)
REMARK                            x       y       z     vdW  Elec       q    Type
REMARK                         _______ _______ _______ _____ _____    ______ ____
ROOT
ATOM      1  O   UNL     1      33.142 -24.015 -14.440  0.00  0.00    -0.285 OA
ATOM      2  O   UNL     1      31.760 -23.223 -15.848  0.00  0.00    -0.270 OA
ATOM      3  N   UNL     1      36.080 -22.890 -15.963  0.00  0.00    -0.310 N 
ATOM      4  N   UNL     1      31.823 -21.974 -17.851  0.00  0.00    -0.280 N 
ATOM      5  C   UNL     1      33.833 -22.461 -16.870  0.00  0.00    +0.071 C 
ATOM      6  C   UNL     1      34.710 -22.953 -15.994  0.00  0.00    +0.092 C 
ATOM      7  C   UNL     1      34.093 -21.692 -18.082  0.00  0.00    +0.019 C 
ATOM      8  C   UNL     1      32.841 -21.423 -18.639  0.00  0.00    +0.051 C 
ATOM      9  C   UNL     1      35.519 -24.090 -14.087  0.00  0.00    +0.054 C 
ATOM     10  C   UNL     1      36.568 -23.555 -14.845  0.00  0.00    +0.051 C 
ATOM     11  C   UNL     1      34.270 -23.733 -14.783  0.00  0.00    +0.210 C 
ATOM     12  C   UNL     1      32.348 -22.636 -16.736  0.00  0.00    +0.251 C 
ATOM     13  C   UNL     1      35.249 -21.243 -18.694  0.00  0.00    +0.001 C 
ATOM     14  C   UNL     1      32.690 -20.706 -19.809  0.00  0.00    +0.015 C 
ATOM     15  C   UNL     1      35.714 -24.803 -12.923  0.00  0.00    +0.004 C 
ATOM     16  C   UNL     1      37.875 -23.730 -14.438  0.00  0.00    +0.015 C 
ATOM     17  C   UNL     1      35.119 -20.513 -19.881  0.00  0.00    +0.000 C 
ATOM     18  C   UNL     1      33.851 -20.248 -20.433  0.00  0.00    +0.001 C 
ATOM     19  C   UNL     1      37.035 -24.981 -12.510  0.00  0.00    +0.000 C 
ATOM     20  C   UNL     1      38.104 -24.450 -13.260  0.00  0.00    +0.001 C 
ATOM     21  H   UNL     1      36.638 -22.438 -16.637  0.00  0.00    +0.152 HD
ATOM     22  H   UNL     1      30.863 -21.905 -18.055  0.00  0.00    +0.155 HD
ENDROOT
TORSDOF 0
ENDMDL
MODEL 5
REMARK VINA RESULT:     -11.1      2.778      6.849
REMARK  Name = 5359405
REMARK  0 active torsions:
REMARK  status: ('A' for Active; 'I' for Inactive)
REMARK                            x       y       z     vdW  Elec       q    Type
REMARK                         _______ _______ _______ _____ _____    ______ ____
ROOT
ATOM      1  O   UNL     1      34.337 -23.466 -14.923  0.00  0.00    -0.285 OA
ATOM      2  O   UNL     1      35.854 -22.631 -16.157  0.00  0.00    -0.270 OA
ATOM      3  N   UNL     1      31.574 -22.486 -16.827  0.00  0.00    -0.310 N 
ATOM      4  N   UNL     1      35.996 -21.408 -18.172  0.00  0.00    -0.280 N 
ATOM      5  C   UNL     1      33.899 -21.972 -17.449  0.00  0.00    +0.071 C 
ATOM      6  C   UNL     1      32.938 -22.491 -16.683  0.00  0.00    +0.092 C 
ATOM      7  C   UNL     1      33.765 -21.228 -18.696  0.00  0.00    +0.019 C 
ATOM      8  C   UNL     1      35.066 -20.910 -19.092  0.00  0.00    +0.051 C 
ATOM      9  C   UNL     1      31.940 -23.640 -14.876  0.00  0.00    +0.054 C 
ATOM     10  C   UNL     1      30.975 -23.160 -15.770  0.00  0.00    +0.051 C 
ATOM     11  C   UNL     1      33.252 -23.238 -15.413  0.00  0.00    +0.210 C 
ATOM     12  C   UNL     1      35.361 -22.079 -17.123  0.00  0.00    +0.251 C 
ATOM     13  C   UNL     1      32.679 -20.834 -19.456  0.00  0.00    +0.001 C 
ATOM     14  C   UNL     1      35.336 -20.198 -20.245  0.00  0.00    +0.015 C 
ATOM     15  C   UNL     1      31.627 -24.347 -13.733  0.00  0.00    +0.004 C 
ATOM     16  C   UNL     1      29.635 -23.384 -15.529  0.00  0.00    +0.015 C 
ATOM     17  C   UNL     1      32.930 -20.112 -20.629  0.00  0.00    +0.000 C 
ATOM     18  C   UNL     1      34.246 -19.797 -21.019  0.00  0.00    +0.001 C 
ATOM     19  C   UNL     1      30.273 -24.575 -13.488  0.00  0.00    +0.000 C 
ATOM     20  C   UNL     1      29.287 -24.099 -14.376  0.00  0.00    +0.001 C 
ATOM     21  H   UNL     1      31.089 -22.065 -17.573  0.00  0.00    +0.152 HD
ATOM     22  H   UNL     1      36.971 -21.301 -18.254  0.00  0.00    +0.155 HD
ENDROOT
TORSDOF 0
ENDMDL
MODEL 6
REMARK VINA RESULT:     -11.0      2.522      3.766
REMARK  Name = 5359405
REMARK  0 active torsions:
REMARK  status: ('A' for Active; 'I' for Inactive)
REMARK                            x       y       z     vdW  Elec       q    Type
REMARK                         _______ _______ _______ _____ _____    ______ ____
ROOT
ATOM      1  O   UNL     1      36.152 -21.961 -17.620  0.00  0.00    -0.285 OA
ATOM      2  O   UNL     1      35.942 -23.087 -15.829  0.00  0.00    -0.270 OA
ATOM      3  N   UNL     1      32.755 -21.471 -18.281  0.00  0.00    -0.310 N 
ATOM      4  N   UNL     1      34.192 -23.907 -14.471  0.00  0.00    -0.280 N 
ATOM      5  C   UNL     1      33.589 -22.719 -16.331  0.00  0.00    +0.071 C 
ATOM      6  C   UNL     1      33.708 -22.011 -17.457  0.00  0.00    +0.092 C 
ATOM      7  C   UNL     1      32.372 -23.129 -15.640  0.00  0.00    +0.019 C 
ATOM      8  C   UNL     1      32.794 -23.847 -14.519  0.00  0.00    +0.051 C 
ATOM      9  C   UNL     1      34.752 -20.897 -19.258  0.00  0.00    +0.054 C 
ATOM     10  C   UNL     1      33.357 -20.811 -19.346  0.00  0.00    +0.051 C 
ATOM     11  C   UNL     1      35.053 -21.671 -18.041  0.00  0.00    +0.210 C 
ATOM     12  C   UNL     1      34.766 -23.235 -15.555  0.00  0.00    +0.251 C 
ATOM     13  C   UNL     1      31.025 -22.942 -15.893  0.00  0.00    +0.001 C 
ATOM     14  C   UNL     1      31.907 -24.399 -13.616  0.00  0.00    +0.015 C 
ATOM     15  C   UNL     1      35.604 -20.331 -20.185  0.00  0.00    +0.004 C 
ATOM     16  C   UNL     1      32.769 -20.137 -20.397  0.00  0.00    +0.015 C 
ATOM     17  C   UNL     1      30.108 -23.492 -14.990  0.00  0.00    +0.000 C 
ATOM     18  C   UNL     1      30.546 -24.214 -13.862  0.00  0.00    +0.001 C 
ATOM     19  C   UNL     1      35.010 -19.649 -21.247  0.00  0.00    +0.000 C 
ATOM     20  C   UNL     1      33.609 -19.553 -21.352  0.00  0.00    +0.001 C 
ATOM     21  H   UNL     1      31.783 -21.540 -18.140  0.00  0.00    +0.152 HD
ATOM     22  H   UNL     1      34.705 -24.363 -13.765  0.00  0.00    +0.155 HD
ENDROOT
TORSDOF 0
ENDMDL
MODEL 7
REMARK VINA RESULT:     -11.0      6.225      8.949
REMARK  Name = 5359405
REMARK  0 active torsions:
REMARK  status: ('A' for Active; 'I' for Inactive)
REMARK                            x       y       z     vdW  Elec       q    Type
REMARK                         _______ _______ _______ _____ _____    ______ ____
ROOT
ATOM      1  O   UNL     1      32.319 -12.627 -24.475  0.00  0.00    -0.285 OA
ATOM      2  O   UNL     1      33.177 -14.371 -25.336  0.00  0.00    -0.270 OA
ATOM      3  N   UNL     1      32.897 -13.413 -21.119  0.00  0.00    -0.310 N 
ATOM      4  N   UNL     1      34.236 -16.349 -24.599  0.00  0.00    -0.280 N 
ATOM      5  C   UNL     1      33.557 -14.874 -22.985  0.00  0.00    +0.071 C 
ATOM      6  C   UNL     1      33.022 -13.784 -22.433  0.00  0.00    +0.092 C 
ATOM      7  C   UNL     1      34.181 -16.015 -22.325  0.00  0.00    +0.019 C 
ATOM      8  C   UNL     1      34.574 -16.880 -23.349  0.00  0.00    +0.051 C 
ATOM      9  C   UNL     1      31.945 -11.686 -22.295  0.00  0.00    +0.054 C 
ATOM     10  C   UNL     1      32.265 -12.179 -21.024  0.00  0.00    +0.051 C 
ATOM     11  C   UNL     1      32.413 -12.688 -23.269  0.00  0.00    +0.210 C 
ATOM     12  C   UNL     1      33.602 -15.109 -24.468  0.00  0.00    +0.251 C 
ATOM     13  C   UNL     1      34.414 -16.337 -21.000  0.00  0.00    +0.001 C 
ATOM     14  C   UNL     1      35.207 -18.082 -23.100  0.00  0.00    +0.015 C 
ATOM     15  C   UNL     1      31.309 -10.479 -22.500  0.00  0.00    +0.004 C 
ATOM     16  C   UNL     1      31.944 -11.450 -19.898  0.00  0.00    +0.015 C 
ATOM     17  C   UNL     1      35.055 -17.550 -20.725  0.00  0.00    +0.000 C 
ATOM     18  C   UNL     1      35.447 -18.414 -21.766  0.00  0.00    +0.001 C 
ATOM     19  C   UNL     1      30.985  -9.740 -21.362  0.00  0.00    +0.000 C 
ATOM     20  C   UNL     1      31.298 -10.221 -20.075  0.00  0.00    +0.001 C 
ATOM     21  H   UNL     1      33.210 -13.945 -20.352  0.00  0.00    +0.152 HD
ATOM     22  H   UNL     1      34.421 -16.790 -25.459  0.00  0.00    +0.155 HD
ENDROOT
TORSDOF 0
ENDMDL
MODEL 8
REMARK VINA RESULT:     -10.8      2.217      3.673
REMARK  Name = 5359405
REMARK  0 active torsions:
REMARK  status: ('A' for Active; 'I' for Inactive)
REMARK                            x       y       z     vdW  Elec       q    Type
REMARK                         _______ _______ _______ _____ _____    ______ ____
ROOT
ATOM      1  O   UNL     1      32.292 -23.034 -16.564  0.00  0.00    -0.285 OA
ATOM      2  O   UNL     1      32.120 -23.910 -14.635  0.00  0.00    -0.270 OA
ATOM      3  N   UNL     1      35.644 -22.065 -16.356  0.00  0.00    -0.310 N 
ATOM      4  N   UNL     1      33.495 -24.279 -12.750  0.00  0.00    -0.280 N 
ATOM      5  C   UNL     1      34.451 -23.216 -14.537  0.00  0.00    +0.071 C 
ATOM      6  C   UNL     1      34.572 -22.664 -15.746  0.00  0.00    +0.092 C 
ATOM      7  C   UNL     1      35.460 -23.343 -13.491  0.00  0.00    +0.019 C 
ATOM      8  C   UNL     1      34.827 -23.994 -12.429  0.00  0.00    +0.051 C 
ATOM      9  C   UNL     1      33.957 -21.937 -17.908  0.00  0.00    +0.054 C 
ATOM     10  C   UNL     1      35.295 -21.633 -17.629  0.00  0.00    +0.051 C 
ATOM     11  C   UNL     1      33.420 -22.615 -16.714  0.00  0.00    +0.210 C 
ATOM     12  C   UNL     1      33.177 -23.832 -14.036  0.00  0.00    +0.251 C 
ATOM     13  C   UNL     1      36.786 -22.963 -13.397  0.00  0.00    +0.001 C 
ATOM     14  C   UNL     1      35.480 -24.290 -11.248  0.00  0.00    +0.015 C 
ATOM     15  C   UNL     1      33.342 -21.622 -19.102  0.00  0.00    +0.004 C 
ATOM     16  C   UNL     1      36.069 -20.986 -18.571  0.00  0.00    +0.015 C 
ATOM     17  C   UNL     1      37.466 -23.254 -12.209  0.00  0.00    +0.000 C 
ATOM     18  C   UNL     1      36.819 -23.910 -11.145  0.00  0.00    +0.001 C 
ATOM     19  C   UNL     1      34.123 -20.968 -20.055  0.00  0.00    +0.000 C 
ATOM     20  C   UNL     1      35.471 -20.653 -19.793  0.00  0.00    +0.001 C 
ATOM     21  H   UNL     1      36.534 -21.956 -15.949  0.00  0.00    +0.152 HD
ATOM     22  H   UNL     1      32.863 -24.735 -12.148  0.00  0.00    +0.155 HD
ENDROOT
TORSDOF 0
ENDMDL
MODEL 9
REMARK VINA RESULT:     -10.5      4.359      7.334
REMARK  Name = 5359405
REMARK  0 active torsions:
REMARK  status: ('A' for Active; 'I' for Inactive)
REMARK                            x       y       z     vdW  Elec       q    Type
REMARK                         _______ _______ _______ _____ _____    ______ ____
ROOT
ATOM      1  O   UNL     1      35.959 -22.901 -16.187  0.00  0.00    -0.285 OA
ATOM      2  O   UNL     1      34.130 -22.336 -17.110  0.00  0.00    -0.270 OA
ATOM      3  N   UNL     1      34.609 -24.567 -13.426  0.00  0.00    -0.310 N 
ATOM      4  N   UNL     1      31.816 -22.573 -16.704  0.00  0.00    -0.280 N 
ATOM      5  C   UNL     1      33.237 -23.506 -15.172  0.00  0.00    +0.071 C 
ATOM      6  C   UNL     1      34.379 -23.867 -14.582  0.00  0.00    +0.092 C 
ATOM      7  C   UNL     1      31.869 -23.763 -14.738  0.00  0.00    +0.019 C 
ATOM      8  C   UNL     1      31.046 -23.176 -15.702  0.00  0.00    +0.051 C 
ATOM      9  C   UNL     1      36.704 -24.087 -14.233  0.00  0.00    +0.054 C 
ATOM     10  C   UNL     1      35.974 -24.704 -13.209  0.00  0.00    +0.051 C 
ATOM     11  C   UNL     1      35.720 -23.516 -15.170  0.00  0.00    +0.210 C 
ATOM     12  C   UNL     1      33.183 -22.728 -16.455  0.00  0.00    +0.251 C 
ATOM     13  C   UNL     1      31.324 -24.418 -13.649  0.00  0.00    +0.001 C 
ATOM     14  C   UNL     1      29.668 -23.217 -15.623  0.00  0.00    +0.015 C 
ATOM     15  C   UNL     1      38.083 -24.067 -14.272  0.00  0.00    +0.004 C 
ATOM     16  C   UNL     1      36.632 -25.332 -12.172  0.00  0.00    +0.015 C 
ATOM     17  C   UNL     1      29.929 -24.473 -13.550  0.00  0.00    +0.000 C 
ATOM     18  C   UNL     1      29.109 -23.877 -14.528  0.00  0.00    +0.001 C 
ATOM     19  C   UNL     1      38.749 -24.703 -13.224  0.00  0.00    +0.000 C 
ATOM     20  C   UNL     1      38.032 -25.328 -12.185  0.00  0.00    +0.001 C 
ATOM     21  H   UNL     1      33.907 -24.922 -12.834  0.00  0.00    +0.152 HD
ATOM     22  H   UNL     1      31.443 -22.100 -17.483  0.00  0.00    +0.155 HD
ENDROOT
TORSDOF 0
ENDMDL
