MODEL 1
REMARK VINA RESULT:     -11.1      0.000      0.000
REMARK  Name = 53630042
REMARK  11 active torsions:
REMARK  status: ('A' for Active; 'I' for Inactive)
REMARK    1  A    between atoms: N_1  and  C_4
REMARK    2  A    between atoms: N_1  and  C_19
REMARK    3  A    between atoms: C_4  and  C_5
REMARK    4  A    between atoms: C_4  and  C_12
REMARK    5  A    between atoms: C_12  and  O_13
REMARK    6  A    between atoms: O_13  and  C_14
REMARK    7  A    between atoms: C_19  and  C_21
REMARK    8  A    between atoms: C_25  and  C_26
REMARK    9  A    between atoms: C_26  and  C_27
REMARK   10  A    between atoms: C_27  and  C_30
REMARK   11  A    between atoms: N_29  and  O_32
REMARK                            x       y       z     vdW  Elec       q    Type
REMARK                         _______ _______ _______ _____ _____    ______ ____
ROOT
ATOM      1  N   UNL     1      34.029 -22.692 -15.762  0.00  0.00    +0.395 N 
ATOM      2  H   UNL     1      34.946 -22.388 -16.088  0.00  0.00    -0.083 HD
ATOM      3  H   UNL     1      33.606 -21.976 -15.170  0.00  0.00    -0.083 HD
ENDROOT
BRANCH   1   4
ATOM      4  C   UNL     1      34.180 -23.915 -14.980  0.00  0.00    +0.040 C 
BRANCH   4   5
ATOM      5  C   UNL     1      35.615 -24.018 -14.465  0.00  0.00    -0.009 C 
ATOM      6  C   UNL     1      36.550 -23.118 -15.284  0.00  0.00    -0.002 C 
ATOM      7  C   UNL     1      36.097 -25.476 -14.492  0.00  0.00    -0.002 C 
ATOM      8  C   UNL     1      37.547 -25.599 -14.032  0.00  0.00    -0.000 C 
ATOM      9  C   UNL     1      38.001 -23.245 -14.823  0.00  0.00    -0.000 C 
ATOM     10  C   UNL     1      38.473 -24.696 -14.842  0.00  0.00    -0.000 C 
ENDBRANCH   4   5
BRANCH   4  12
ATOM     11  O   UNL     1      33.472 -23.503 -12.684  0.00  0.00    -0.252 OA
ATOM     12  C   UNL     1      33.203 -23.865 -13.823  0.00  0.00    +0.297 C 
BRANCH  12  13
ATOM     13  O   UNL     1      31.974 -24.280 -14.253  0.00  0.00    -0.454 OA
BRANCH  13  14
ATOM     14  C   UNL     1      30.860 -23.671 -13.611  0.00  0.00    +0.169 C 
ATOM     15  C   UNL     1      30.441 -22.414 -14.359  0.00  0.00    +0.044 C 
ATOM     16  C   UNL     1      29.642 -24.572 -13.748  0.00  0.00    +0.044 C 
ATOM     17  C   UNL     1      29.127 -24.308 -15.162  0.00  0.00    +0.004 C 
ATOM     18  C   UNL     1      29.665 -22.935 -15.565  0.00  0.00    +0.004 C 
ENDBRANCH  13  14
ENDBRANCH  12  13
ENDBRANCH   4  12
ENDBRANCH   1   4
BRANCH   1  19
ATOM     19  C   UNL     1      33.164 -22.916 -16.911  0.00  0.00    -0.052 C 
BRANCH  19  21
ATOM     20  N   UNL     1      32.720 -20.532 -19.819  0.00  0.00    -0.249 NA
ATOM     21  C   UNL     1      33.494 -21.989 -18.050  0.00  0.00    -0.025 C 
ATOM     22  C   UNL     1      34.813 -21.724 -18.400  0.00  0.00    -0.004 C 
ATOM     23  C   UNL     1      32.493 -21.373 -18.785  0.00  0.00    +0.092 C 
ATOM     24  C   UNL     1      35.088 -20.864 -19.457  0.00  0.00    +0.014 C 
ATOM     25  C   UNL     1      34.014 -20.299 -20.129  0.00  0.00    +0.059 C 
BRANCH  25  26
ATOM     26  C   UNL     1      34.271 -19.371 -21.269  0.00  0.00    +0.055 C 
BRANCH  26  27
ATOM     27  C   UNL     1      35.387 -18.367 -20.959  0.00  0.00    +0.093 C 
BRANCH  27  30
ATOM     28  O   UNL     1      34.538 -16.147 -20.501  0.00  0.00    -0.273 OA
ATOM     29  N   UNL     1      35.263 -16.660 -22.633  0.00  0.00    -0.197 N 
ATOM     30  C   UNL     1      35.012 -16.939 -21.311  0.00  0.00    +0.245 C 
ATOM     31  H   UNL     1      35.645 -17.330 -23.245  0.00  0.00    +0.182 HD
BRANCH  29  32
ATOM     32  O   UNL     1      34.944 -15.363 -23.054  0.00  0.00    -0.295 OA
ATOM     33  H   UNL     1      34.032 -15.346 -23.385  0.00  0.00    +0.241 HD
ENDBRANCH  29  32
ENDBRANCH  27  30
ENDBRANCH  26  27
ENDBRANCH  25  26
ENDBRANCH  19  21
ENDBRANCH   1  19
TORSDOF 11
ENDMDL
MODEL 2
REMARK VINA RESULT:     -10.9      1.466      4.662
REMARK  Name = 53630042
REMARK  11 active torsions:
REMARK  status: ('A' for Active; 'I' for Inactive)
REMARK    1  A    between atoms: N_1  and  C_4
REMARK    2  A    between atoms: N_1  and  C_19
REMARK    3  A    between atoms: C_4  and  C_5
REMARK    4  A    between atoms: C_4  and  C_12
REMARK    5  A    between atoms: C_12  and  O_13
REMARK    6  A    between atoms: O_13  and  C_14
REMARK    7  A    between atoms: C_19  and  C_21
REMARK    8  A    between atoms: C_25  and  C_26
REMARK    9  A    between atoms: C_26  and  C_27
REMARK   10  A    between atoms: C_27  and  C_30
REMARK   11  A    between atoms: N_29  and  O_32
REMARK                            x       y       z     vdW  Elec       q    Type
REMARK                         _______ _______ _______ _____ _____    ______ ____
ROOT
ATOM      1  N   UNL     1      33.555 -22.787 -16.379  0.00  0.00    +0.395 N 
ATOM      2  H   UNL     1      32.820 -22.144 -16.673  0.00  0.00    -0.083 HD
ATOM      3  H   UNL     1      33.356 -23.731 -16.712  0.00  0.00    -0.083 HD
ENDROOT
BRANCH   1   4
ATOM      4  C   UNL     1      33.616 -22.809 -14.921  0.00  0.00    +0.040 C 
BRANCH   4   5
ATOM      5  C   UNL     1      32.205 -22.950 -14.352  0.00  0.00    -0.009 C 
ATOM      6  C   UNL     1      32.023 -24.322 -13.690  0.00  0.00    -0.002 C 
ATOM      7  C   UNL     1      31.154 -22.729 -15.450  0.00  0.00    -0.002 C 
ATOM      8  C   UNL     1      29.736 -22.918 -14.919  0.00  0.00    -0.000 C 
ATOM      9  C   UNL     1      30.602 -24.508 -13.161  0.00  0.00    -0.000 C 
ATOM     10  C   UNL     1      29.561 -24.279 -14.252  0.00  0.00    -0.000 C 
ENDBRANCH   4   5
BRANCH   4  12
ATOM     11  O   UNL     1      34.644 -25.007 -15.141  0.00  0.00    -0.252 OA
ATOM     12  C   UNL     1      34.479 -23.979 -14.497  0.00  0.00    +0.297 C 
BRANCH  12  13
ATOM     13  O   UNL     1      35.051 -23.702 -13.286  0.00  0.00    -0.454 OA
BRANCH  13  14
ATOM     14  C   UNL     1      36.185 -22.844 -13.324  0.00  0.00    +0.169 C 
ATOM     15  C   UNL     1      36.726 -22.620 -11.920  0.00  0.00    +0.044 C 
ATOM     16  C   UNL     1      37.334 -23.553 -14.024  0.00  0.00    +0.044 C 
ATOM     17  C   UNL     1      37.918 -24.480 -12.959  0.00  0.00    +0.004 C 
ATOM     18  C   UNL     1      37.502 -23.897 -11.609  0.00  0.00    +0.004 C 
ENDBRANCH  13  14
ENDBRANCH  12  13
ENDBRANCH   4  12
ENDBRANCH   1   4
BRANCH   1  19
ATOM     19  C   UNL     1      34.824 -22.353 -16.944  0.00  0.00    -0.052 C 
BRANCH  19  21
ATOM     20  N   UNL     1      35.599 -20.144 -19.920  0.00  0.00    -0.249 NA
ATOM     21  C   UNL     1      34.631 -21.522 -18.185  0.00  0.00    -0.025 C 
ATOM     22  C   UNL     1      33.369 -21.352 -18.744  0.00  0.00    -0.004 C 
ATOM     23  C   UNL     1      35.704 -20.902 -18.806  0.00  0.00    +0.092 C 
ATOM     24  C   UNL     1      33.221 -20.579 -19.890  0.00  0.00    +0.014 C 
ATOM     25  C   UNL     1      34.357 -20.001 -20.434  0.00  0.00    +0.059 C 
BRANCH  25  26
ATOM     26  C   UNL     1      34.236 -19.165 -21.664  0.00  0.00    +0.055 C 
BRANCH  26  27
ATOM     27  C   UNL     1      35.380 -18.153 -21.793  0.00  0.00    +0.093 C 
BRANCH  27  30
ATOM     28  O   UNL     1      34.569 -16.234 -20.562  0.00  0.00    -0.273 OA
ATOM     29  N   UNL     1      34.938 -16.044 -22.834  0.00  0.00    -0.197 N 
ATOM     30  C   UNL     1      34.918 -16.716 -21.636  0.00  0.00    +0.245 C 
ATOM     31  H   UNL     1      35.227 -16.475 -23.671  0.00  0.00    +0.182 HD
BRANCH  29  32
ATOM     32  O   UNL     1      34.522 -14.707 -22.790  0.00  0.00    -0.295 OA
ATOM     33  H   UNL     1      35.298 -14.125 -22.808  0.00  0.00    +0.241 HD
ENDBRANCH  29  32
ENDBRANCH  27  30
ENDBRANCH  26  27
ENDBRANCH  25  26
ENDBRANCH  19  21
ENDBRANCH   1  19
TORSDOF 11
ENDMDL
MODEL 3
REMARK VINA RESULT:     -10.4      1.734      2.901
REMARK  Name = 53630042
REMARK  11 active torsions:
REMARK  status: ('A' for Active; 'I' for Inactive)
REMARK    1  A    between atoms: N_1  and  C_4
REMARK    2  A    between atoms: N_1  and  C_19
REMARK    3  A    between atoms: C_4  and  C_5
REMARK    4  A    between atoms: C_4  and  C_12
REMARK    5  A    between atoms: C_12  and  O_13
REMARK    6  A    between atoms: O_13  and  C_14
REMARK    7  A    between atoms: C_19  and  C_21
REMARK    8  A    between atoms: C_25  and  C_26
REMARK    9  A    between atoms: C_26  and  C_27
REMARK   10  A    between atoms: C_27  and  C_30
REMARK   11  A    between atoms: N_29  and  O_32
REMARK                            x       y       z     vdW  Elec       q    Type
REMARK                         _______ _______ _______ _____ _____    ______ ____
ROOT
ATOM      1  N   UNL     1      34.425 -21.512 -17.657  0.00  0.00    +0.395 N 
ATOM      2  H   UNL     1      35.236 -21.191 -17.129  0.00  0.00    -0.083 HD
ATOM      3  H   UNL     1      33.699 -20.795 -17.666  0.00  0.00    -0.083 HD
ENDROOT
BRANCH   1   4
ATOM      4  C   UNL     1      33.887 -22.713 -17.024  0.00  0.00    +0.040 C 
BRANCH   4   5
ATOM      5  C   UNL     1      34.444 -22.836 -15.606  0.00  0.00    -0.009 C 
ATOM      6  C   UNL     1      35.854 -22.238 -15.525  0.00  0.00    -0.002 C 
ATOM      7  C   UNL     1      34.444 -24.302 -15.150  0.00  0.00    -0.002 C 
ATOM      8  C   UNL     1      35.046 -24.459 -13.756  0.00  0.00    -0.000 C 
ATOM      9  C   UNL     1      36.455 -22.398 -14.129  0.00  0.00    -0.000 C 
ATOM     10  C   UNL     1      36.445 -23.854 -13.676  0.00  0.00    -0.000 C 
ENDBRANCH   4   5
BRANCH   4  12
ATOM     11  O   UNL     1      31.693 -22.005 -17.816  0.00  0.00    -0.252 OA
ATOM     12  C   UNL     1      32.376 -22.599 -16.992  0.00  0.00    +0.297 C 
BRANCH  12  13
ATOM     13  O   UNL     1      31.897 -23.273 -15.904  0.00  0.00    -0.454 OA
BRANCH  13  14
ATOM     14  C   UNL     1      30.554 -22.977 -15.540  0.00  0.00    +0.169 C 
ATOM     15  C   UNL     1      29.766 -24.262 -15.332  0.00  0.00    +0.044 C 
ATOM     16  C   UNL     1      30.532 -22.336 -14.161  0.00  0.00    +0.044 C 
ATOM     17  C   UNL     1      30.666 -23.509 -13.191  0.00  0.00    +0.004 C 
ATOM     18  C   UNL     1      30.202 -24.750 -13.953  0.00  0.00    +0.004 C 
ENDBRANCH  13  14
ENDBRANCH  12  13
ENDBRANCH   4  12
ENDBRANCH   1   4
BRANCH   1  19
ATOM     19  C   UNL     1      34.825 -21.785 -19.029  0.00  0.00    -0.052 C 
BRANCH  19  21
ATOM     20  N   UNL     1      36.187 -18.615 -20.587  0.00  0.00    -0.249 NA
ATOM     21  C   UNL     1      34.902 -20.528 -19.852  0.00  0.00    -0.025 C 
ATOM     22  C   UNL     1      33.821 -20.105 -20.617  0.00  0.00    -0.004 C 
ATOM     23  C   UNL     1      36.052 -19.754 -19.871  0.00  0.00    +0.092 C 
ATOM     24  C   UNL     1      33.921 -18.938 -21.368  0.00  0.00    +0.014 C 
ATOM     25  C   UNL     1      35.115 -18.236 -21.318  0.00  0.00    +0.059 C 
BRANCH  25  26
ATOM     26  C   UNL     1      35.259 -16.979 -22.111  0.00  0.00    +0.055 C 
BRANCH  26  27
ATOM     27  C   UNL     1      34.284 -16.925 -23.292  0.00  0.00    +0.093 C 
BRANCH  27  30
ATOM     28  O   UNL     1      34.487 -14.514 -23.229  0.00  0.00    -0.273 OA
ATOM     29  N   UNL     1      33.084 -15.488 -24.783  0.00  0.00    -0.197 N 
ATOM     30  C   UNL     1      33.983 -15.508 -23.744  0.00  0.00    +0.245 C 
ATOM     31  H   UNL     1      32.707 -16.314 -25.164  0.00  0.00    +0.182 HD
BRANCH  29  32
ATOM     32  O   UNL     1      32.739 -14.219 -25.268  0.00  0.00    -0.295 OA
ATOM     33  H   UNL     1      32.477 -13.650 -24.527  0.00  0.00    +0.241 HD
ENDBRANCH  29  32
ENDBRANCH  27  30
ENDBRANCH  26  27
ENDBRANCH  25  26
ENDBRANCH  19  21
ENDBRANCH   1  19
TORSDOF 11
ENDMDL
MODEL 4
REMARK VINA RESULT:     -10.2      8.551     15.554
REMARK  Name = 53630042
REMARK  11 active torsions:
REMARK  status: ('A' for Active; 'I' for Inactive)
REMARK    1  A    between atoms: N_1  and  C_4
REMARK    2  A    between atoms: N_1  and  C_19
REMARK    3  A    between atoms: C_4  and  C_5
REMARK    4  A    between atoms: C_4  and  C_12
REMARK    5  A    between atoms: C_12  and  O_13
REMARK    6  A    between atoms: O_13  and  C_14
REMARK    7  A    between atoms: C_19  and  C_21
REMARK    8  A    between atoms: C_25  and  C_26
REMARK    9  A    between atoms: C_26  and  C_27
REMARK   10  A    between atoms: C_27  and  C_30
REMARK   11  A    between atoms: N_29  and  O_32
REMARK                            x       y       z     vdW  Elec       q    Type
REMARK                         _______ _______ _______ _____ _____    ______ ____
ROOT
ATOM      1  N   UNL     1      31.955  -9.756 -21.533  0.00  0.00    +0.395 N 
ATOM      2  H   UNL     1      31.759  -9.497 -20.566  0.00  0.00    -0.083 HD
ATOM      3  H   UNL     1      32.951  -9.943 -21.656  0.00  0.00    -0.083 HD
ENDROOT
BRANCH   1   4
ATOM      4  C   UNL     1      31.576  -8.652 -22.411  0.00  0.00    +0.040 C 
BRANCH   4   5
ATOM      5  C   UNL     1      31.144  -7.454 -21.566  0.00  0.00    -0.009 C 
ATOM      6  C   UNL     1      30.480  -6.385 -22.444  0.00  0.00    -0.002 C 
ATOM      7  C   UNL     1      32.340  -6.870 -20.803  0.00  0.00    -0.002 C 
ATOM      8  C   UNL     1      31.945  -5.638 -19.993  0.00  0.00    -0.000 C 
ATOM      9  C   UNL     1      30.087  -5.152 -21.631  0.00  0.00    -0.000 C 
ATOM     10  C   UNL     1      31.276  -4.580 -20.866  0.00  0.00    -0.000 C 
ENDBRANCH   4   5
BRANCH   4  12
ATOM     11  O   UNL     1      33.847  -8.877 -23.265  0.00  0.00    -0.252 OA
ATOM     12  C   UNL     1      32.772  -8.293 -23.269  0.00  0.00    +0.297 C 
BRANCH  12  13
ATOM     13  O   UNL     1      32.456  -7.219 -24.054  0.00  0.00    -0.454 OA
BRANCH  13  14
ATOM     14  C   UNL     1      33.562  -6.509 -24.598  0.00  0.00    +0.169 C 
ATOM     15  C   UNL     1      33.185  -5.887 -25.935  0.00  0.00    +0.044 C 
ATOM     16  C   UNL     1      33.861  -5.297 -23.729  0.00  0.00    +0.044 C 
ATOM     17  C   UNL     1      32.826  -4.255 -24.154  0.00  0.00    +0.004 C 
ATOM     18  C   UNL     1      32.371  -4.652 -25.558  0.00  0.00    +0.004 C 
ENDBRANCH  13  14
ENDBRANCH  12  13
ENDBRANCH   4  12
ENDBRANCH   1   4
BRANCH   1  19
ATOM     19  C   UNL     1      31.210 -10.961 -21.866  0.00  0.00    -0.052 C 
BRANCH  19  21
ATOM     20  N   UNL     1      33.291 -13.379 -23.905  0.00  0.00    -0.249 NA
ATOM     21  C   UNL     1      32.123 -12.107 -22.212  0.00  0.00    -0.025 C 
ATOM     22  C   UNL     1      32.636 -12.938 -21.223  0.00  0.00    -0.004 C 
ATOM     23  C   UNL     1      32.478 -12.367 -23.526  0.00  0.00    +0.092 C 
ATOM     24  C   UNL     1      33.476 -13.990 -21.573  0.00  0.00    +0.014 C 
ATOM     25  C   UNL     1      33.770 -14.165 -22.916  0.00  0.00    +0.059 C 
BRANCH  25  26
ATOM     26  C   UNL     1      34.669 -15.283 -23.328  0.00  0.00    +0.055 C 
BRANCH  26  27
ATOM     27  C   UNL     1      34.244 -16.624 -22.721  0.00  0.00    +0.093 C 
BRANCH  27  30
ATOM     28  O   UNL     1      35.006 -16.897 -20.440  0.00  0.00    -0.273 OA
ATOM     29  N   UNL     1      36.256 -17.793 -22.163  0.00  0.00    -0.197 N 
ATOM     30  C   UNL     1      35.188 -17.108 -21.636  0.00  0.00    +0.245 C 
ATOM     31  H   UNL     1      36.359 -17.937 -23.131  0.00  0.00    +0.182 HD
BRANCH  29  32
ATOM     32  O   UNL     1      37.189 -18.277 -21.235  0.00  0.00    -0.295 OA
ATOM     33  H   UNL     1      38.054 -18.368 -21.664  0.00  0.00    +0.241 HD
ENDBRANCH  29  32
ENDBRANCH  27  30
ENDBRANCH  26  27
ENDBRANCH  25  26
ENDBRANCH  19  21
ENDBRANCH   1  19
TORSDOF 11
ENDMDL
MODEL 5
REMARK VINA RESULT:     -10.1      9.108     16.308
REMARK  Name = 53630042
REMARK  11 active torsions:
REMARK  status: ('A' for Active; 'I' for Inactive)
REMARK    1  A    between atoms: N_1  and  C_4
REMARK    2  A    between atoms: N_1  and  C_19
REMARK    3  A    between atoms: C_4  and  C_5
REMARK    4  A    between atoms: C_4  and  C_12
REMARK    5  A    between atoms: C_12  and  O_13
REMARK    6  A    between atoms: O_13  and  C_14
REMARK    7  A    between atoms: C_19  and  C_21
REMARK    8  A    between atoms: C_25  and  C_26
REMARK    9  A    between atoms: C_26  and  C_27
REMARK   10  A    between atoms: C_27  and  C_30
REMARK   11  A    between atoms: N_29  and  O_32
REMARK                            x       y       z     vdW  Elec       q    Type
REMARK                         _______ _______ _______ _____ _____    ______ ____
ROOT
ATOM      1  N   UNL     1      32.297  -8.632 -22.233  0.00  0.00    +0.395 N 
ATOM      2  H   UNL     1      31.778  -8.321 -21.411  0.00  0.00    -0.083 HD
ATOM      3  H   UNL     1      33.236  -8.931 -21.969  0.00  0.00    -0.083 HD
ENDROOT
BRANCH   1   4
ATOM      4  C   UNL     1      32.408  -7.523 -23.176  0.00  0.00    +0.040 C 
BRANCH   4   5
ATOM      5  C   UNL     1      31.975  -6.226 -22.494  0.00  0.00    -0.009 C 
ATOM      6  C   UNL     1      32.079  -6.356 -20.969  0.00  0.00    -0.002 C 
ATOM      7  C   UNL     1      30.550  -5.843 -22.915  0.00  0.00    -0.002 C 
ATOM      8  C   UNL     1      30.074  -4.578 -22.205  0.00  0.00    -0.000 C 
ATOM      9  C   UNL     1      31.600  -5.089 -20.261  0.00  0.00    -0.000 C 
ATOM     10  C   UNL     1      30.187  -4.706 -20.688  0.00  0.00    -0.000 C 
ENDBRANCH   4   5
BRANCH   4  12
ATOM     11  O   UNL     1      34.663  -8.342 -23.606  0.00  0.00    -0.252 OA
ATOM     12  C   UNL     1      33.850  -7.428 -23.632  0.00  0.00    +0.297 C 
BRANCH  12  13
ATOM     13  O   UNL     1      34.096  -6.162 -24.086  0.00  0.00    -0.454 OA
BRANCH  13  14
ATOM     14  C   UNL     1      34.192  -6.023 -25.498  0.00  0.00    +0.169 C 
ATOM     15  C   UNL     1      32.811  -5.828 -26.106  0.00  0.00    +0.044 C 
ATOM     16  C   UNL     1      34.899  -4.718 -25.831  0.00  0.00    +0.044 C 
ATOM     17  C   UNL     1      33.819  -3.647 -25.676  0.00  0.00    +0.004 C 
ATOM     18  C   UNL     1      32.478  -4.366 -25.823  0.00  0.00    +0.004 C 
ENDBRANCH  13  14
ENDBRANCH  12  13
ENDBRANCH   4  12
ENDBRANCH   1   4
BRANCH   1  19
ATOM     19  C   UNL     1      31.602  -9.759 -22.838  0.00  0.00    -0.052 C 
BRANCH  19  21
ATOM     20  N   UNL     1      33.735 -12.886 -22.770  0.00  0.00    -0.249 NA
ATOM     21  C   UNL     1      32.176 -11.077 -22.391  0.00  0.00    -0.025 C 
ATOM     22  C   UNL     1      31.718 -11.704 -21.238  0.00  0.00    -0.004 C 
ATOM     23  C   UNL     1      33.177 -11.704 -23.115  0.00  0.00    +0.092 C 
ATOM     24  C   UNL     1      32.266 -12.921 -20.850  0.00  0.00    +0.014 C 
ATOM     25  C   UNL     1      33.263 -13.466 -21.644  0.00  0.00    +0.059 C 
BRANCH  25  26
ATOM     26  C   UNL     1      33.875 -14.771 -21.258  0.00  0.00    +0.055 C 
BRANCH  26  27
ATOM     27  C   UNL     1      34.495 -15.498 -22.457  0.00  0.00    +0.093 C 
BRANCH  27  30
ATOM     28  O   UNL     1      34.636 -17.836 -23.062  0.00  0.00    -0.273 OA
ATOM     29  N   UNL     1      35.061 -17.208 -20.880  0.00  0.00    -0.197 N 
ATOM     30  C   UNL     1      34.734 -16.973 -22.194  0.00  0.00    +0.245 C 
ATOM     31  H   UNL     1      35.127 -16.480 -20.220  0.00  0.00    +0.182 HD
BRANCH  29  32
ATOM     32  O   UNL     1      35.296 -18.547 -20.540  0.00  0.00    -0.295 OA
ATOM     33  H   UNL     1      36.208 -18.783 -20.767  0.00  0.00    +0.241 HD
ENDBRANCH  29  32
ENDBRANCH  27  30
ENDBRANCH  26  27
ENDBRANCH  25  26
ENDBRANCH  19  21
ENDBRANCH   1  19
TORSDOF 11
ENDMDL
MODEL 6
REMARK VINA RESULT:     -10.0     10.017     16.358
REMARK  Name = 53630042
REMARK  11 active torsions:
REMARK  status: ('A' for Active; 'I' for Inactive)
REMARK    1  A    between atoms: N_1  and  C_4
REMARK    2  A    between atoms: N_1  and  C_19
REMARK    3  A    between atoms: C_4  and  C_5
REMARK    4  A    between atoms: C_4  and  C_12
REMARK    5  A    between atoms: C_12  and  O_13
REMARK    6  A    between atoms: O_13  and  C_14
REMARK    7  A    between atoms: C_19  and  C_21
REMARK    8  A    between atoms: C_25  and  C_26
REMARK    9  A    between atoms: C_26  and  C_27
REMARK   10  A    between atoms: C_27  and  C_30
REMARK   11  A    between atoms: N_29  and  O_32
REMARK                            x       y       z     vdW  Elec       q    Type
REMARK                         _______ _______ _______ _____ _____    ______ ____
ROOT
ATOM      1  N   UNL     1      32.343  -8.570 -22.089  0.00  0.00    +0.395 N 
ATOM      2  H   UNL     1      32.024  -8.178 -21.203  0.00  0.00    -0.083 HD
ATOM      3  H   UNL     1      33.274  -8.974 -21.986  0.00  0.00    -0.083 HD
ENDROOT
BRANCH   1   4
ATOM      4  C   UNL     1      32.402  -7.508 -23.089  0.00  0.00    +0.040 C 
BRANCH   4   5
ATOM      5  C   UNL     1      31.958  -6.188 -22.459  0.00  0.00    -0.009 C 
ATOM      6  C   UNL     1      32.131  -6.230 -20.936  0.00  0.00    -0.002 C 
ATOM      7  C   UNL     1      30.504  -5.870 -22.837  0.00  0.00    -0.002 C 
ATOM      8  C   UNL     1      30.020  -4.582 -22.176  0.00  0.00    -0.000 C 
ATOM      9  C   UNL     1      31.643  -4.941 -20.277  0.00  0.00    -0.000 C 
ATOM     10  C   UNL     1      30.201  -4.623 -20.662  0.00  0.00    -0.000 C 
ENDBRANCH   4   5
BRANCH   4  12
ATOM     11  O   UNL     1      34.639  -8.321 -23.615  0.00  0.00    -0.252 OA
ATOM     12  C   UNL     1      33.828  -7.404 -23.590  0.00  0.00    +0.297 C 
BRANCH  12  13
ATOM     13  O   UNL     1      34.062  -6.127 -24.019  0.00  0.00    -0.454 OA
BRANCH  13  14
ATOM     14  C   UNL     1      34.203  -5.967 -25.425  0.00  0.00    +0.169 C 
ATOM     15  C   UNL     1      32.836  -5.909 -26.091  0.00  0.00    +0.044 C 
ATOM     16  C   UNL     1      34.786  -4.594 -25.723  0.00  0.00    +0.044 C 
ATOM     17  C   UNL     1      33.598  -3.640 -25.610  0.00  0.00    +0.004 C 
ATOM     18  C   UNL     1      32.345  -4.491 -25.817  0.00  0.00    +0.004 C 
ENDBRANCH  13  14
ENDBRANCH  12  13
ENDBRANCH   4  12
ENDBRANCH   1   4
BRANCH   1  19
ATOM     19  C   UNL     1      31.425  -9.621 -22.504  0.00  0.00    -0.052 C 
BRANCH  19  21
ATOM     20  N   UNL     1      33.590 -12.642 -23.224  0.00  0.00    -0.249 NA
ATOM     21  C   UNL     1      32.042 -10.988 -22.377  0.00  0.00    -0.025 C 
ATOM     22  C   UNL     1      31.672 -11.849 -21.351  0.00  0.00    -0.004 C 
ATOM     23  C   UNL     1      32.997 -11.428 -23.280  0.00  0.00    +0.092 C 
ATOM     24  C   UNL     1      32.259 -13.106 -21.259  0.00  0.00    +0.014 C 
ATOM     25  C   UNL     1      33.204 -13.451 -22.213  0.00  0.00    +0.059 C 
BRANCH  25  26
ATOM     26  C   UNL     1      33.856 -14.792 -22.146  0.00  0.00    +0.055 C 
BRANCH  26  27
ATOM     27  C   UNL     1      34.621 -15.130 -23.430  0.00  0.00    +0.093 C 
BRANCH  27  30
ATOM     28  O   UNL     1      33.241 -15.513 -25.381  0.00  0.00    -0.273 OA
ATOM     29  N   UNL     1      33.796 -17.297 -24.023  0.00  0.00    -0.197 N 
ATOM     30  C   UNL     1      33.811 -15.975 -24.396  0.00  0.00    +0.245 C 
ATOM     31  H   UNL     1      34.270 -17.620 -23.222  0.00  0.00    +0.182 HD
BRANCH  29  32
ATOM     32  O   UNL     1      33.067 -18.158 -24.854  0.00  0.00    -0.295 OA
ATOM     33  H   UNL     1      32.118 -18.043 -24.686  0.00  0.00    +0.241 HD
ENDBRANCH  29  32
ENDBRANCH  27  30
ENDBRANCH  26  27
ENDBRANCH  25  26
ENDBRANCH  19  21
ENDBRANCH   1  19
TORSDOF 11
ENDMDL
MODEL 7
REMARK VINA RESULT:      -9.7      9.045     15.769
REMARK  Name = 53630042
REMARK  11 active torsions:
REMARK  status: ('A' for Active; 'I' for Inactive)
REMARK    1  A    between atoms: N_1  and  C_4
REMARK    2  A    between atoms: N_1  and  C_19
REMARK    3  A    between atoms: C_4  and  C_5
REMARK    4  A    between atoms: C_4  and  C_12
REMARK    5  A    between atoms: C_12  and  O_13
REMARK    6  A    between atoms: O_13  and  C_14
REMARK    7  A    between atoms: C_19  and  C_21
REMARK    8  A    between atoms: C_25  and  C_26
REMARK    9  A    between atoms: C_26  and  C_27
REMARK   10  A    between atoms: C_27  and  C_30
REMARK   11  A    between atoms: N_29  and  O_32
REMARK                            x       y       z     vdW  Elec       q    Type
REMARK                         _______ _______ _______ _____ _____    ______ ____
ROOT
ATOM      1  N   UNL     1      31.475  -9.055 -23.261  0.00  0.00    +0.395 N 
ATOM      2  H   UNL     1      32.038  -9.656 -23.864  0.00  0.00    -0.083 HD
ATOM      3  H   UNL     1      30.750  -8.585 -23.803  0.00  0.00    -0.083 HD
ENDROOT
BRANCH   1   4
ATOM      4  C   UNL     1      32.336  -8.043 -22.656  0.00  0.00    +0.040 C 
BRANCH   4   5
ATOM      5  C   UNL     1      32.553  -6.900 -23.646  0.00  0.00    -0.009 C 
ATOM      6  C   UNL     1      31.474  -6.914 -24.736  0.00  0.00    -0.002 C 
ATOM      7  C   UNL     1      33.957  -6.978 -24.264  0.00  0.00    -0.002 C 
ATOM      8  C   UNL     1      34.180  -5.877 -25.297  0.00  0.00    -0.000 C 
ATOM      9  C   UNL     1      31.702  -5.812 -25.770  0.00  0.00    -0.000 C 
ATOM     10  C   UNL     1      33.100  -5.888 -26.375  0.00  0.00    -0.000 C 
ENDBRANCH   4   5
BRANCH   4  12
ATOM     11  O   UNL     1      31.907  -7.916 -20.260  0.00  0.00    -0.252 OA
ATOM     12  C   UNL     1      31.662  -7.535 -21.397  0.00  0.00    +0.297 C 
BRANCH  12  13
ATOM     13  O   UNL     1      30.746  -6.578 -21.733  0.00  0.00    -0.454 OA
BRANCH  13  14
ATOM     14  C   UNL     1      30.752  -5.410 -20.921  0.00  0.00    +0.169 C 
ATOM     15  C   UNL     1      32.038  -4.625 -21.131  0.00  0.00    +0.044 C 
ATOM     16  C   UNL     1      29.681  -4.447 -21.410  0.00  0.00    +0.044 C 
ATOM     17  C   UNL     1      30.309  -3.758 -22.620  0.00  0.00    +0.004 C 
ATOM     18  C   UNL     1      31.823  -3.899 -22.455  0.00  0.00    +0.004 C 
ENDBRANCH  13  14
ENDBRANCH  12  13
ENDBRANCH   4  12
ENDBRANCH   1   4
BRANCH   1  19
ATOM     19  C   UNL     1      30.836  -9.870 -22.238  0.00  0.00    -0.052 C 
BRANCH  19  21
ATOM     20  N   UNL     1      33.378 -12.657 -22.563  0.00  0.00    -0.249 NA
ATOM     21  C   UNL     1      31.636 -11.106 -21.924  0.00  0.00    -0.025 C 
ATOM     22  C   UNL     1      31.406 -11.833 -20.762  0.00  0.00    -0.004 C 
ATOM     23  C   UNL     1      32.625 -11.556 -22.785  0.00  0.00    +0.092 C 
ATOM     24  C   UNL     1      32.160 -12.971 -20.498  0.00  0.00    +0.014 C 
ATOM     25  C   UNL     1      33.125 -13.337 -21.423  0.00  0.00    +0.059 C 
BRANCH  25  26
ATOM     26  C   UNL     1      33.955 -14.552 -21.173  0.00  0.00    +0.055 C 
BRANCH  26  27
ATOM     27  C   UNL     1      34.326 -15.278 -22.471  0.00  0.00    +0.093 C 
BRANCH  27  30
ATOM     28  O   UNL     1      34.796 -17.550 -23.161  0.00  0.00    -0.273 OA
ATOM     29  N   UNL     1      34.898 -17.007 -20.918  0.00  0.00    -0.197 N 
ATOM     30  C   UNL     1      34.697 -16.733 -22.249  0.00  0.00    +0.245 C 
ATOM     31  H   UNL     1      34.807 -16.316 -20.222  0.00  0.00    +0.182 HD
BRANCH  29  32
ATOM     32  O   UNL     1      35.242 -18.331 -20.613  0.00  0.00    -0.295 OA
ATOM     33  H   UNL     1      36.132 -18.353 -20.227  0.00  0.00    +0.241 HD
ENDBRANCH  29  32
ENDBRANCH  27  30
ENDBRANCH  26  27
ENDBRANCH  25  26
ENDBRANCH  19  21
ENDBRANCH   1  19
TORSDOF 11
ENDMDL
MODEL 8
REMARK VINA RESULT:      -9.6      1.936      3.293
REMARK  Name = 53630042
REMARK  11 active torsions:
REMARK  status: ('A' for Active; 'I' for Inactive)
REMARK    1  A    between atoms: N_1  and  C_4
REMARK    2  A    between atoms: N_1  and  C_19
REMARK    3  A    between atoms: C_4  and  C_5
REMARK    4  A    between atoms: C_4  and  C_12
REMARK    5  A    between atoms: C_12  and  O_13
REMARK    6  A    between atoms: O_13  and  C_14
REMARK    7  A    between atoms: C_19  and  C_21
REMARK    8  A    between atoms: C_25  and  C_26
REMARK    9  A    between atoms: C_26  and  C_27
REMARK   10  A    between atoms: C_27  and  C_30
REMARK   11  A    between atoms: N_29  and  O_32
REMARK                            x       y       z     vdW  Elec       q    Type
REMARK                         _______ _______ _______ _____ _____    ______ ____
ROOT
ATOM      1  N   UNL     1      34.892 -22.921 -15.878  0.00  0.00    +0.395 N 
ATOM      2  H   UNL     1      35.711 -22.890 -16.485  0.00  0.00    -0.083 HD
ATOM      3  H   UNL     1      34.844 -22.079 -15.302  0.00  0.00    -0.083 HD
ENDROOT
BRANCH   1   4
ATOM      4  C   UNL     1      34.991 -24.083 -15.000  0.00  0.00    +0.040 C 
BRANCH   4   5
ATOM      5  C   UNL     1      36.450 -24.298 -14.599  0.00  0.00    -0.009 C 
ATOM      6  C   UNL     1      37.359 -23.279 -15.298  0.00  0.00    -0.002 C 
ATOM      7  C   UNL     1      36.892 -25.734 -14.915  0.00  0.00    -0.002 C 
ATOM      8  C   UNL     1      38.363 -25.958 -14.572  0.00  0.00    -0.000 C 
ATOM      9  C   UNL     1      38.830 -23.508 -14.954  0.00  0.00    -0.000 C 
ATOM     10  C   UNL     1      39.264 -24.938 -15.261  0.00  0.00    -0.000 C 
ENDBRANCH   4   5
BRANCH   4  12
ATOM     11  O   UNL     1      32.993 -24.241 -13.613  0.00  0.00    -0.252 OA
ATOM     12  C   UNL     1      34.135 -23.830 -13.776  0.00  0.00    +0.297 C 
BRANCH  12  13
ATOM     13  O   UNL     1      34.843 -23.079 -12.880  0.00  0.00    -0.454 OA
BRANCH  13  14
ATOM     14  C   UNL     1      34.898 -23.594 -11.554  0.00  0.00    +0.169 C 
ATOM     15  C   UNL     1      35.711 -24.879 -11.520  0.00  0.00    +0.044 C 
ATOM     16  C   UNL     1      35.711 -22.652 -10.679  0.00  0.00    +0.044 C 
ATOM     17  C   UNL     1      37.166 -22.988 -11.002  0.00  0.00    +0.004 C 
ATOM     18  C   UNL     1      37.161 -24.408 -11.569  0.00  0.00    +0.004 C 
ENDBRANCH  13  14
ENDBRANCH  12  13
ENDBRANCH   4  12
ENDBRANCH   1   4
BRANCH   1  19
ATOM     19  C   UNL     1      33.692 -22.991 -16.698  0.00  0.00    -0.052 C 
BRANCH  19  21
ATOM     20  N   UNL     1      35.101 -20.715 -19.375  0.00  0.00    -0.249 NA
ATOM     21  C   UNL     1      33.758 -22.051 -17.872  0.00  0.00    -0.025 C 
ATOM     22  C   UNL     1      32.603 -21.645 -18.531  0.00  0.00    -0.004 C 
ATOM     23  C   UNL     1      34.971 -21.561 -18.329  0.00  0.00    +0.092 C 
ATOM     24  C   UNL     1      32.695 -20.775 -19.612  0.00  0.00    +0.014 C 
ATOM     25  C   UNL     1      33.956 -20.343 -19.990  0.00  0.00    +0.059 C 
BRANCH  25  26
ATOM     26  C   UNL     1      34.093 -19.409 -21.147  0.00  0.00    +0.055 C 
BRANCH  26  27
ATOM     27  C   UNL     1      35.321 -18.501 -21.017  0.00  0.00    +0.093 C 
BRANCH  27  30
ATOM     28  O   UNL     1      34.578 -16.254 -20.512  0.00  0.00    -0.273 OA
ATOM     29  N   UNL     1      35.292 -16.752 -22.651  0.00  0.00    -0.197 N 
ATOM     30  C   UNL     1      35.018 -17.049 -21.337  0.00  0.00    +0.245 C 
ATOM     31  H   UNL     1      35.645 -17.426 -23.276  0.00  0.00    +0.182 HD
BRANCH  29  32
ATOM     32  O   UNL     1      35.039 -15.431 -23.044  0.00  0.00    -0.295 OA
ATOM     33  H   UNL     1      35.584 -15.214 -23.816  0.00  0.00    +0.241 HD
ENDBRANCH  29  32
ENDBRANCH  27  30
ENDBRANCH  26  27
ENDBRANCH  25  26
ENDBRANCH  19  21
ENDBRANCH   1  19
TORSDOF 11
ENDMDL
MODEL 9
REMARK VINA RESULT:      -9.4      9.079     16.155
REMARK  Name = 53630042
REMARK  11 active torsions:
REMARK  status: ('A' for Active; 'I' for Inactive)
REMARK    1  A    between atoms: N_1  and  C_4
REMARK    2  A    between atoms: N_1  and  C_19
REMARK    3  A    between atoms: C_4  and  C_5
REMARK    4  A    between atoms: C_4  and  C_12
REMARK    5  A    between atoms: C_12  and  O_13
REMARK    6  A    between atoms: O_13  and  C_14
REMARK    7  A    between atoms: C_19  and  C_21
REMARK    8  A    between atoms: C_25  and  C_26
REMARK    9  A    between atoms: C_26  and  C_27
REMARK   10  A    between atoms: C_27  and  C_30
REMARK   11  A    between atoms: N_29  and  O_32
REMARK                            x       y       z     vdW  Elec       q    Type
REMARK                         _______ _______ _______ _____ _____    ______ ____
ROOT
ATOM      1  N   UNL     1      31.697  -8.963 -23.180  0.00  0.00    +0.395 N 
ATOM      2  H   UNL     1      32.594  -8.863 -22.705  0.00  0.00    -0.083 HD
ATOM      3  H   UNL     1      31.836  -9.275 -24.142  0.00  0.00    -0.083 HD
ENDROOT
BRANCH   1   4
ATOM      4  C   UNL     1      31.020  -7.670 -23.201  0.00  0.00    +0.040 C 
BRANCH   4   5
ATOM      5  C   UNL     1      31.705  -6.718 -22.221  0.00  0.00    -0.009 C 
ATOM      6  C   UNL     1      32.036  -7.440 -20.908  0.00  0.00    -0.002 C 
ATOM      7  C   UNL     1      30.828  -5.485 -21.962  0.00  0.00    -0.002 C 
ATOM      8  C   UNL     1      31.467  -4.544 -20.943  0.00  0.00    -0.000 C 
ATOM      9  C   UNL     1      32.673  -6.495 -19.891  0.00  0.00    -0.000 C 
ATOM     10  C   UNL     1      31.804  -5.266 -19.642  0.00  0.00    -0.000 C 
ENDBRANCH   4   5
BRANCH   4  12
ATOM     11  O   UNL     1      30.202  -7.208 -25.450  0.00  0.00    -0.252 OA
ATOM     12  C   UNL     1      31.088  -7.119 -24.611  0.00  0.00    +0.297 C 
BRANCH  12  13
ATOM     13  O   UNL     1      32.293  -6.499 -24.794  0.00  0.00    -0.454 OA
BRANCH  13  14
ATOM     14  C   UNL     1      32.279  -5.372 -25.662  0.00  0.00    +0.169 C 
ATOM     15  C   UNL     1      32.971  -4.188 -25.004  0.00  0.00    +0.044 C 
ATOM     16  C   UNL     1      33.157  -5.653 -26.871  0.00  0.00    +0.044 C 
ATOM     17  C   UNL     1      34.582  -5.407 -26.375  0.00  0.00    +0.004 C 
ATOM     18  C   UNL     1      34.459  -4.490 -25.158  0.00  0.00    +0.004 C 
ENDBRANCH  13  14
ENDBRANCH  12  13
ENDBRANCH   4  12
ENDBRANCH   1   4
BRANCH   1  19
ATOM     19  C   UNL     1      30.894  -9.956 -22.481  0.00  0.00    -0.052 C 
BRANCH  19  21
ATOM     20  N   UNL     1      32.142 -12.955 -20.536  0.00  0.00    -0.249 NA
ATOM     21  C   UNL     1      31.703 -11.169 -22.106  0.00  0.00    -0.025 C 
ATOM     22  C   UNL     1      32.726 -11.629 -22.927  0.00  0.00    -0.004 C 
ATOM     23  C   UNL     1      31.454 -11.861 -20.932  0.00  0.00    +0.092 C 
ATOM     24  C   UNL     1      33.457 -12.752 -22.555  0.00  0.00    +0.014 C 
ATOM     25  C   UNL     1      33.129 -13.373 -21.360  0.00  0.00    +0.059 C 
BRANCH  25  26
ATOM     26  C   UNL     1      33.892 -14.581 -20.929  0.00  0.00    +0.055 C 
BRANCH  26  27
ATOM     27  C   UNL     1      34.387 -15.409 -22.119  0.00  0.00    +0.093 C 
BRANCH  27  30
ATOM     28  O   UNL     1      35.263 -17.128 -20.659  0.00  0.00    -0.273 OA
ATOM     29  N   UNL     1      34.462 -17.719 -22.743  0.00  0.00    -0.197 N 
ATOM     30  C   UNL     1      34.757 -16.830 -21.737  0.00  0.00    +0.245 C 
ATOM     31  H   UNL     1      34.055 -17.431 -23.592  0.00  0.00    +0.182 HD
BRANCH  29  32
ATOM     32  O   UNL     1      34.773 -19.060 -22.483  0.00  0.00    -0.295 OA
ATOM     33  H   UNL     1      35.334 -19.406 -23.196  0.00  0.00    +0.241 HD
ENDBRANCH  29  32
ENDBRANCH  27  30
ENDBRANCH  26  27
ENDBRANCH  25  26
ENDBRANCH  19  21
ENDBRANCH   1  19
TORSDOF 11
ENDMDL
