MODEL 1
REMARK VINA RESULT:     -11.5      0.000      0.000
REMARK  Name = 185460
REMARK  11 active torsions:
REMARK  status: ('A' for Active; 'I' for Inactive)
REMARK    1  A    between atoms: N_1  and  C_22
REMARK    2  A    between atoms: C_2  and  C_10
REMARK    3  A    between atoms: N_8  and  C_17
REMARK    4  A    between atoms: C_17  and  C_18
REMARK    5  A    between atoms: C_18  and  O_19
REMARK    6  A    between atoms: O_19  and  C_20
REMARK    7  A    between atoms: C_22  and  C_23
REMARK    8  A    between atoms: C_23  and  C_24
REMARK    9  A    between atoms: C_27  and  C_30
REMARK   10  A    between atoms: C_30  and  C_34
REMARK   11  A    between atoms: C_34  and  O_35
REMARK                            x       y       z     vdW  Elec       q    Type
REMARK                         _______ _______ _______ _____ _____    ______ ____
ROOT
ATOM      1  N   UNL     1      32.260 -10.913 -23.305  0.00  0.00    +0.387 N 
ATOM      2  C   UNL     1      32.415  -8.051 -22.699  0.00  0.00    +0.063 C 
ATOM      3  C   UNL     1      33.457  -8.763 -23.575  0.00  0.00    -0.014 C 
ATOM      4  C   UNL     1      31.080  -8.810 -22.747  0.00  0.00    -0.014 C 
ATOM      5  C   UNL     1      33.565 -10.245 -23.207  0.00  0.00    -0.077 C 
ATOM      6  C   UNL     1      31.275 -10.291 -22.410  0.00  0.00    -0.077 C 
ATOM      7  H   UNL     1      31.925 -10.808 -24.264  0.00  0.00    -0.080 HD
ENDROOT
BRANCH   2  10
ATOM      8  N   UNL     1      31.672  -5.682 -22.226  0.00  0.00    -0.262 N 
ATOM      9  N   UNL     1      32.647  -6.027 -24.193  0.00  0.00    -0.394 NA
ATOM     10  C   UNL     1      32.257  -6.585 -23.069  0.00  0.00    +0.163 C 
ATOM     11  C   UNL     1      31.685  -4.460 -22.847  0.00  0.00    +0.079 C 
ATOM     12  C   UNL     1      32.299  -4.702 -24.073  0.00  0.00    +0.128 C 
ATOM     13  C   UNL     1      31.226  -3.202 -22.455  0.00  0.00    +0.017 C 
ATOM     14  C   UNL     1      32.475  -3.637 -24.974  0.00  0.00    +0.086 C 
ATOM     15  C   UNL     1      31.409  -2.153 -23.363  0.00  0.00    -0.003 C 
ATOM     16  C   UNL     1      32.022  -2.365 -24.600  0.00  0.00    -0.019 C 
BRANCH   8  17
ATOM     17  C   UNL     1      31.134  -5.961 -20.913  0.00  0.00    +0.130 C 
BRANCH  17  18
ATOM     18  C   UNL     1      32.209  -5.987 -19.836  0.00  0.00    +0.164 C 
BRANCH  18  19
ATOM     19  O   UNL     1      32.443  -7.328 -19.425  0.00  0.00    -0.352 OA
BRANCH  19  20
ATOM     20  C   UNL     1      31.232  -8.065 -19.338  0.00  0.00    +0.142 C 
ATOM     21  C   UNL     1      31.539  -9.460 -18.833  0.00  0.00    +0.035 C 
ENDBRANCH  19  20
ENDBRANCH  18  19
ENDBRANCH  17  18
ENDBRANCH   8  17
ENDBRANCH   2  10
BRANCH   1  22
ATOM     22  C   UNL     1      32.393 -12.339 -23.007  0.00  0.00    -0.073 C 
BRANCH  22  23
ATOM     23  C   UNL     1      33.500 -12.583 -21.980  0.00  0.00    +0.004 C 
BRANCH  23  24
ATOM     24  C   UNL     1      33.883 -14.040 -21.916  0.00  0.00    -0.024 C 
ATOM     25  C   UNL     1      33.906 -14.702 -20.688  0.00  0.00    -0.005 C 
ATOM     26  C   UNL     1      34.213 -14.727 -23.084  0.00  0.00    -0.005 C 
ATOM     27  C   UNL     1      34.589 -16.737 -21.797  0.00  0.00    -0.013 C 
ATOM     28  C   UNL     1      34.259 -16.050 -20.629  0.00  0.00    -0.004 C 
ATOM     29  C   UNL     1      34.566 -16.075 -23.025  0.00  0.00    -0.004 C 
BRANCH  27  30
ATOM     30  C   UNL     1      34.968 -18.178 -21.733  0.00  0.00    +0.108 C 
ATOM     31  C   UNL     1      33.937 -18.966 -20.862  0.00  0.00    +0.016 C 
ATOM     32  C   UNL     1      35.019 -18.913 -23.115  0.00  0.00    +0.016 C 
BRANCH  30  34
ATOM     33  O   UNL     1      36.586 -18.676 -19.961  0.00  0.00    -0.250 OA
ATOM     34  C   UNL     1      36.396 -18.358 -21.130  0.00  0.00    +0.317 C 
BRANCH  34  35
ATOM     35  O   UNL     1      37.430 -18.106 -21.973  0.00  0.00    -0.480 OA
ATOM     36  H   UNL     1      37.295 -18.124 -22.900  0.00  0.00    +0.295 HD
ENDBRANCH  34  35
ENDBRANCH  30  34
ENDBRANCH  27  30
ENDBRANCH  23  24
ENDBRANCH  22  23
ENDBRANCH   1  22
TORSDOF 11
ENDMDL
MODEL 2
REMARK VINA RESULT:     -11.5      1.667      3.142
REMARK  Name = 185460
REMARK  11 active torsions:
REMARK  status: ('A' for Active; 'I' for Inactive)
REMARK    1  A    between atoms: N_1  and  C_22
REMARK    2  A    between atoms: C_2  and  C_10
REMARK    3  A    between atoms: N_8  and  C_17
REMARK    4  A    between atoms: C_17  and  C_18
REMARK    5  A    between atoms: C_18  and  O_19
REMARK    6  A    between atoms: O_19  and  C_20
REMARK    7  A    between atoms: C_22  and  C_23
REMARK    8  A    between atoms: C_23  and  C_24
REMARK    9  A    between atoms: C_27  and  C_30
REMARK   10  A    between atoms: C_30  and  C_34
REMARK   11  A    between atoms: C_34  and  O_35
REMARK                            x       y       z     vdW  Elec       q    Type
REMARK                         _______ _______ _______ _____ _____    ______ ____
ROOT
ATOM      1  N   UNL     1      32.035 -10.878 -21.955  0.00  0.00    +0.387 N 
ATOM      2  C   UNL     1      31.026  -8.344 -23.024  0.00  0.00    +0.063 C 
ATOM      3  C   UNL     1      30.370  -9.050 -21.827  0.00  0.00    -0.014 C 
ATOM      4  C   UNL     1      32.503  -8.751 -23.132  0.00  0.00    -0.014 C 
ATOM      5  C   UNL     1      30.602 -10.562 -21.885  0.00  0.00    -0.077 C 
ATOM      6  C   UNL     1      32.656 -10.275 -23.142  0.00  0.00    -0.077 C 
ATOM      7  H   UNL     1      32.484 -10.481 -21.129  0.00  0.00    -0.080 HD
ENDROOT
BRANCH   2  10
ATOM      8  N   UNL     1      30.994  -6.047 -24.079  0.00  0.00    -0.262 N 
ATOM      9  N   UNL     1      30.539  -6.132 -21.905  0.00  0.00    -0.394 NA
ATOM     10  C   UNL     1      30.847  -6.836 -22.972  0.00  0.00    +0.163 C 
ATOM     11  C   UNL     1      30.767  -4.749 -23.701  0.00  0.00    +0.079 C 
ATOM     12  C   UNL     1      30.486  -4.829 -22.340  0.00  0.00    +0.128 C 
ATOM     13  C   UNL     1      30.784  -3.548 -24.411  0.00  0.00    +0.017 C 
ATOM     14  C   UNL     1      30.201  -3.650 -21.629  0.00  0.00    +0.086 C 
ATOM     15  C   UNL     1      30.499  -2.385 -23.688  0.00  0.00    -0.003 C 
ATOM     16  C   UNL     1      30.212  -2.433 -22.322  0.00  0.00    -0.019 C 
BRANCH   8  17
ATOM     17  C   UNL     1      31.329  -6.497 -25.411  0.00  0.00    +0.130 C 
BRANCH  17  18
ATOM     18  C   UNL     1      32.625  -5.886 -25.925  0.00  0.00    +0.164 C 
BRANCH  18  19
ATOM     19  O   UNL     1      33.674  -6.140 -25.001  0.00  0.00    -0.352 OA
BRANCH  19  20
ATOM     20  C   UNL     1      34.318  -4.939 -24.599  0.00  0.00    +0.142 C 
ATOM     21  C   UNL     1      34.210  -3.924 -25.717  0.00  0.00    +0.035 C 
ENDBRANCH  19  20
ENDBRANCH  18  19
ENDBRANCH  17  18
ENDBRANCH   8  17
ENDBRANCH   2  10
BRANCH   1  22
ATOM     22  C   UNL     1      32.239 -12.327 -21.952  0.00  0.00    -0.073 C 
BRANCH  22  23
ATOM     23  C   UNL     1      33.522 -12.701 -22.696  0.00  0.00    +0.004 C 
BRANCH  23  24
ATOM     24  C   UNL     1      33.895 -14.143 -22.462  0.00  0.00    -0.024 C 
ATOM     25  C   UNL     1      34.198 -14.970 -23.544  0.00  0.00    -0.005 C 
ATOM     26  C   UNL     1      33.940 -14.650 -21.163  0.00  0.00    -0.005 C 
ATOM     27  C   UNL     1      34.588 -16.811 -22.029  0.00  0.00    -0.013 C 
ATOM     28  C   UNL     1      34.544 -16.304 -23.328  0.00  0.00    -0.004 C 
ATOM     29  C   UNL     1      34.286 -15.984 -20.947  0.00  0.00    -0.004 C 
BRANCH  27  30
ATOM     30  C   UNL     1      34.958 -18.237 -21.799  0.00  0.00    +0.108 C 
ATOM     31  C   UNL     1      33.916 -18.917 -20.852  0.00  0.00    +0.016 C 
ATOM     32  C   UNL     1      35.017 -19.125 -23.087  0.00  0.00    +0.016 C 
BRANCH  30  34
ATOM     33  O   UNL     1      36.560 -18.664 -19.994  0.00  0.00    -0.250 OA
ATOM     34  C   UNL     1      36.380 -18.354 -21.167  0.00  0.00    +0.317 C 
BRANCH  34  35
ATOM     35  O   UNL     1      37.420 -18.055 -21.989  0.00  0.00    -0.480 OA
ATOM     36  H   UNL     1      37.831 -18.732 -22.489  0.00  0.00    +0.295 HD
ENDBRANCH  34  35
ENDBRANCH  30  34
ENDBRANCH  27  30
ENDBRANCH  23  24
ENDBRANCH  22  23
ENDBRANCH   1  22
TORSDOF 11
ENDMDL
MODEL 3
REMARK VINA RESULT:     -11.0      6.432     13.876
REMARK  Name = 185460
REMARK  11 active torsions:
REMARK  status: ('A' for Active; 'I' for Inactive)
REMARK    1  A    between atoms: N_1  and  C_22
REMARK    2  A    between atoms: C_2  and  C_10
REMARK    3  A    between atoms: N_8  and  C_17
REMARK    4  A    between atoms: C_17  and  C_18
REMARK    5  A    between atoms: C_18  and  O_19
REMARK    6  A    between atoms: O_19  and  C_20
REMARK    7  A    between atoms: C_22  and  C_23
REMARK    8  A    between atoms: C_23  and  C_24
REMARK    9  A    between atoms: C_27  and  C_30
REMARK   10  A    between atoms: C_30  and  C_34
REMARK   11  A    between atoms: C_34  and  O_35
REMARK                            x       y       z     vdW  Elec       q    Type
REMARK                         _______ _______ _______ _____ _____    ______ ____
ROOT
ATOM      1  N   UNL     1      35.036 -19.659 -20.192  0.00  0.00    +0.387 N 
ATOM      2  C   UNL     1      33.429 -21.677 -18.802  0.00  0.00    +0.063 C 
ATOM      3  C   UNL     1      34.834 -21.273 -18.327  0.00  0.00    -0.014 C 
ATOM      4  C   UNL     1      32.795 -20.529 -19.602  0.00  0.00    -0.014 C 
ATOM      5  C   UNL     1      35.689 -20.775 -19.495  0.00  0.00    -0.077 C 
ATOM      6  C   UNL     1      33.724 -20.057 -20.723  0.00  0.00    -0.077 C 
ATOM      7  H   UNL     1      34.886 -18.909 -19.516  0.00  0.00    -0.080 HD
ENDROOT
BRANCH   2  10
ATOM      8  N   UNL     1      33.052 -22.762 -16.551  0.00  0.00    -0.262 N 
ATOM      9  N   UNL     1      31.239 -22.000 -17.586  0.00  0.00    -0.394 NA
ATOM     10  C   UNL     1      32.544 -22.138 -17.657  0.00  0.00    +0.163 C 
ATOM     11  C   UNL     1      32.005 -23.045 -15.712  0.00  0.00    +0.079 C 
ATOM     12  C   UNL     1      30.885 -22.560 -16.381  0.00  0.00    +0.128 C 
ATOM     13  C   UNL     1      31.943 -23.667 -14.464  0.00  0.00    +0.017 C 
ATOM     14  C   UNL     1      29.619 -22.692 -15.784  0.00  0.00    +0.086 C 
ATOM     15  C   UNL     1      30.676 -23.790 -13.885  0.00  0.00    -0.003 C 
ATOM     16  C   UNL     1      29.534 -23.313 -14.530  0.00  0.00    -0.019 C 
BRANCH   8  17
ATOM     17  C   UNL     1      34.443 -23.070 -16.306  0.00  0.00    +0.130 C 
BRANCH  17  18
ATOM     18  C   UNL     1      34.947 -22.489 -14.992  0.00  0.00    +0.164 C 
BRANCH  18  19
ATOM     19  O   UNL     1      35.820 -23.416 -14.361  0.00  0.00    -0.352 OA
BRANCH  19  20
ATOM     20  C   UNL     1      35.475 -24.757 -14.679  0.00  0.00    +0.142 C 
ATOM     21  C   UNL     1      36.725 -25.611 -14.640  0.00  0.00    +0.035 C 
ENDBRANCH  19  20
ENDBRANCH  18  19
ENDBRANCH  17  18
ENDBRANCH   8  17
ENDBRANCH   2  10
BRANCH   1  22
ATOM     22  C   UNL     1      35.892 -19.158 -21.268  0.00  0.00    -0.073 C 
BRANCH  22  23
ATOM     23  C   UNL     1      35.055 -18.673 -22.453  0.00  0.00    +0.004 C 
BRANCH  23  24
ATOM     24  C   UNL     1      34.634 -17.235 -22.280  0.00  0.00    -0.024 C 
ATOM     25  C   UNL     1      34.588 -16.671 -21.005  0.00  0.00    -0.005 C 
ATOM     26  C   UNL     1      34.292 -16.469 -23.394  0.00  0.00    -0.005 C 
ATOM     27  C   UNL     1      33.857 -14.575 -21.957  0.00  0.00    -0.013 C 
ATOM     28  C   UNL     1      34.200 -15.341 -20.843  0.00  0.00    -0.004 C 
ATOM     29  C   UNL     1      33.903 -15.139 -23.232  0.00  0.00    -0.004 C 
BRANCH  27  30
ATOM     30  C   UNL     1      33.441 -13.153 -21.785  0.00  0.00    +0.108 C 
ATOM     31  C   UNL     1      34.370 -12.443 -20.748  0.00  0.00    +0.016 C 
ATOM     32  C   UNL     1      33.497 -12.283 -23.085  0.00  0.00    +0.016 C 
BRANCH  30  34
ATOM     33  O   UNL     1      31.553 -13.629 -20.296  0.00  0.00    -0.250 OA
ATOM     34  C   UNL     1      31.960 -13.056 -21.301  0.00  0.00    +0.317 C 
BRANCH  34  35
ATOM     35  O   UNL     1      31.129 -12.320 -22.084  0.00  0.00    -0.480 OA
ATOM     36  H   UNL     1      30.924 -11.436 -21.848  0.00  0.00    +0.295 HD
ENDBRANCH  34  35
ENDBRANCH  30  34
ENDBRANCH  27  30
ENDBRANCH  23  24
ENDBRANCH  22  23
ENDBRANCH   1  22
TORSDOF 11
ENDMDL
MODEL 4
REMARK VINA RESULT:     -10.9      5.403      9.492
REMARK  Name = 185460
REMARK  11 active torsions:
REMARK  status: ('A' for Active; 'I' for Inactive)
REMARK    1  A    between atoms: N_1  and  C_22
REMARK    2  A    between atoms: C_2  and  C_10
REMARK    3  A    between atoms: N_8  and  C_17
REMARK    4  A    between atoms: C_17  and  C_18
REMARK    5  A    between atoms: C_18  and  O_19
REMARK    6  A    between atoms: O_19  and  C_20
REMARK    7  A    between atoms: C_22  and  C_23
REMARK    8  A    between atoms: C_23  and  C_24
REMARK    9  A    between atoms: C_27  and  C_30
REMARK   10  A    between atoms: C_30  and  C_34
REMARK   11  A    between atoms: C_34  and  O_35
REMARK                            x       y       z     vdW  Elec       q    Type
REMARK                         _______ _______ _______ _____ _____    ______ ____
ROOT
ATOM      1  N   UNL     1      35.455 -19.991 -20.537  0.00  0.00    +0.387 N 
ATOM      2  C   UNL     1      34.584 -17.309 -21.335  0.00  0.00    +0.063 C 
ATOM      3  C   UNL     1      36.032 -17.791 -21.516  0.00  0.00    -0.014 C 
ATOM      4  C   UNL     1      33.629 -18.512 -21.314  0.00  0.00    -0.014 C 
ATOM      5  C   UNL     1      36.391 -18.859 -20.479  0.00  0.00    -0.077 C 
ATOM      6  C   UNL     1      34.075 -19.554 -20.285  0.00  0.00    -0.077 C 
ATOM      7  H   UNL     1      35.494 -20.382 -21.479  0.00  0.00    -0.080 HD
ENDROOT
BRANCH   2  10
ATOM      8  N   UNL     1      33.873 -14.989 -22.041  0.00  0.00    -0.262 N 
ATOM      9  N   UNL     1      34.102 -16.481 -23.672  0.00  0.00    -0.394 NA
ATOM     10  C   UNL     1      34.187 -16.277 -22.377  0.00  0.00    +0.163 C 
ATOM     11  C   UNL     1      33.564 -14.319 -23.196  0.00  0.00    +0.079 C 
ATOM     12  C   UNL     1      33.714 -15.272 -24.200  0.00  0.00    +0.128 C 
ATOM     13  C   UNL     1      33.178 -13.001 -23.443  0.00  0.00    +0.017 C 
ATOM     14  C   UNL     1      33.469 -14.905 -25.535  0.00  0.00    +0.086 C 
ATOM     15  C   UNL     1      32.938 -12.654 -24.776  0.00  0.00    -0.003 C 
ATOM     16  C   UNL     1      33.080 -13.587 -25.805  0.00  0.00    -0.019 C 
BRANCH   8  17
ATOM     17  C   UNL     1      33.866 -14.430 -20.708  0.00  0.00    +0.130 C 
BRANCH  17  18
ATOM     18  C   UNL     1      32.510 -13.856 -20.323  0.00  0.00    +0.164 C 
BRANCH  18  19
ATOM     19  O   UNL     1      32.588 -12.438 -20.266  0.00  0.00    -0.352 OA
BRANCH  19  20
ATOM     20  C   UNL     1      31.387 -11.831 -20.724  0.00  0.00    +0.142 C 
ATOM     21  C   UNL     1      31.265 -10.454 -20.106  0.00  0.00    +0.035 C 
ENDBRANCH  19  20
ENDBRANCH  18  19
ENDBRANCH  17  18
ENDBRANCH   8  17
ENDBRANCH   2  10
BRANCH   1  22
ATOM     22  C   UNL     1      35.847 -21.026 -19.581  0.00  0.00    -0.073 C 
BRANCH  22  23
ATOM     23  C   UNL     1      34.761 -21.233 -18.523  0.00  0.00    +0.004 C 
BRANCH  23  24
ATOM     24  C   UNL     1      35.318 -21.879 -17.280  0.00  0.00    -0.024 C 
ATOM     25  C   UNL     1      34.503 -22.691 -16.490  0.00  0.00    -0.005 C 
ATOM     26  C   UNL     1      36.649 -21.667 -16.919  0.00  0.00    -0.005 C 
ATOM     27  C   UNL     1      36.348 -23.077 -14.979  0.00  0.00    -0.013 C 
ATOM     28  C   UNL     1      35.018 -23.290 -15.340  0.00  0.00    -0.004 C 
ATOM     29  C   UNL     1      37.163 -22.265 -15.769  0.00  0.00    -0.004 C 
BRANCH  27  30
ATOM     30  C   UNL     1      36.898 -23.716 -13.750  0.00  0.00    +0.108 C 
ATOM     31  C   UNL     1      37.129 -22.639 -12.640  0.00  0.00    +0.016 C 
ATOM     32  C   UNL     1      35.984 -24.813 -13.106  0.00  0.00    +0.016 C 
BRANCH  30  34
ATOM     33  O   UNL     1      39.309 -24.103 -13.541  0.00  0.00    -0.250 OA
ATOM     34  C   UNL     1      38.246 -24.444 -14.049  0.00  0.00    +0.317 C 
BRANCH  34  35
ATOM     35  O   UNL     1      38.181 -25.466 -14.941  0.00  0.00    -0.480 OA
ATOM     36  H   UNL     1      38.143 -25.284 -15.860  0.00  0.00    +0.295 HD
ENDBRANCH  34  35
ENDBRANCH  30  34
ENDBRANCH  27  30
ENDBRANCH  23  24
ENDBRANCH  22  23
ENDBRANCH   1  22
TORSDOF 11
ENDMDL
MODEL 5
REMARK VINA RESULT:     -10.6      6.292     13.892
REMARK  Name = 185460
REMARK  11 active torsions:
REMARK  status: ('A' for Active; 'I' for Inactive)
REMARK    1  A    between atoms: N_1  and  C_22
REMARK    2  A    between atoms: C_2  and  C_10
REMARK    3  A    between atoms: N_8  and  C_17
REMARK    4  A    between atoms: C_17  and  C_18
REMARK    5  A    between atoms: C_18  and  O_19
REMARK    6  A    between atoms: O_19  and  C_20
REMARK    7  A    between atoms: C_22  and  C_23
REMARK    8  A    between atoms: C_23  and  C_24
REMARK    9  A    between atoms: C_27  and  C_30
REMARK   10  A    between atoms: C_30  and  C_34
REMARK   11  A    between atoms: C_34  and  O_35
REMARK                            x       y       z     vdW  Elec       q    Type
REMARK                         _______ _______ _______ _____ _____    ______ ____
ROOT
ATOM      1  N   UNL     1      34.248 -19.755 -20.537  0.00  0.00    +0.387 N 
ATOM      2  C   UNL     1      34.307 -21.823 -18.462  0.00  0.00    +0.063 C 
ATOM      3  C   UNL     1      35.558 -21.028 -18.866  0.00  0.00    -0.014 C 
ATOM      4  C   UNL     1      33.042 -21.009 -18.776  0.00  0.00    -0.014 C 
ATOM      5  C   UNL     1      35.463 -20.552 -20.318  0.00  0.00    -0.077 C 
ATOM      6  C   UNL     1      33.040 -20.534 -20.232  0.00  0.00    -0.077 C 
ATOM      7  H   UNL     1      34.277 -18.957 -19.902  0.00  0.00    -0.080 HD
ENDROOT
BRANCH   2  10
ATOM      8  N   UNL     1      33.269 -22.818 -16.383  0.00  0.00    -0.262 N 
ATOM      9  N   UNL     1      35.399 -22.207 -16.217  0.00  0.00    -0.394 NA
ATOM     10  C   UNL     1      34.355 -22.275 -17.012  0.00  0.00    +0.163 C 
ATOM     11  C   UNL     1      33.637 -23.119 -15.097  0.00  0.00    +0.079 C 
ATOM     12  C   UNL     1      34.971 -22.728 -15.019  0.00  0.00    +0.128 C 
ATOM     13  C   UNL     1      32.939 -23.682 -14.028  0.00  0.00    +0.017 C 
ATOM     14  C   UNL     1      35.666 -22.903 -13.810  0.00  0.00    +0.086 C 
ATOM     15  C   UNL     1      33.646 -23.848 -12.832  0.00  0.00    -0.003 C 
ATOM     16  C   UNL     1      34.984 -23.467 -12.723  0.00  0.00    -0.019 C 
BRANCH   8  17
ATOM     17  C   UNL     1      31.964 -23.036 -16.966  0.00  0.00    +0.130 C 
BRANCH  17  18
ATOM     18  C   UNL     1      30.840 -22.468 -16.109  0.00  0.00    +0.164 C 
BRANCH  18  19
ATOM     19  O   UNL     1      29.728 -22.143 -16.932  0.00  0.00    -0.352 OA
BRANCH  19  20
ATOM     20  C   UNL     1      28.502 -22.261 -16.222  0.00  0.00    +0.142 C 
ATOM     21  C   UNL     1      28.246 -23.722 -15.920  0.00  0.00    +0.035 C 
ENDBRANCH  19  20
ENDBRANCH  18  19
ENDBRANCH  17  18
ENDBRANCH   8  17
ENDBRANCH   2  10
BRANCH   1  22
ATOM     22  C   UNL     1      34.204 -19.261 -21.913  0.00  0.00    -0.073 C 
BRANCH  22  23
ATOM     23  C   UNL     1      35.273 -18.192 -22.146  0.00  0.00    +0.004 C 
BRANCH  23  24
ATOM     24  C   UNL     1      34.667 -16.813 -22.224  0.00  0.00    -0.024 C 
ATOM     25  C   UNL     1      34.283 -16.289 -23.458  0.00  0.00    -0.005 C 
ATOM     26  C   UNL     1      34.491 -16.062 -21.062  0.00  0.00    -0.005 C 
ATOM     27  C   UNL     1      33.545 -14.263 -22.369  0.00  0.00    -0.013 C 
ATOM     28  C   UNL     1      33.722 -15.014 -23.531  0.00  0.00    -0.004 C 
ATOM     29  C   UNL     1      33.930 -14.787 -21.135  0.00  0.00    -0.004 C 
BRANCH  27  30
ATOM     30  C   UNL     1      32.947 -12.899 -22.447  0.00  0.00    +0.108 C 
ATOM     31  C   UNL     1      34.024 -11.818 -22.111  0.00  0.00    +0.016 C 
ATOM     32  C   UNL     1      32.364 -12.509 -23.847  0.00  0.00    +0.016 C 
BRANCH  30  34
ATOM     33  O   UNL     1      31.609 -13.475 -20.476  0.00  0.00    -0.250 OA
ATOM     34  C   UNL     1      31.746 -12.755 -21.460  0.00  0.00    +0.317 C 
BRANCH  34  35
ATOM     35  O   UNL     1      30.833 -11.801 -21.774  0.00  0.00    -0.480 OA
ATOM     36  H   UNL     1      30.110 -12.010 -22.332  0.00  0.00    +0.295 HD
ENDBRANCH  34  35
ENDBRANCH  30  34
ENDBRANCH  27  30
ENDBRANCH  23  24
ENDBRANCH  22  23
ENDBRANCH   1  22
TORSDOF 11
ENDMDL
MODEL 6
REMARK VINA RESULT:     -10.6      5.519      9.630
REMARK  Name = 185460
REMARK  11 active torsions:
REMARK  status: ('A' for Active; 'I' for Inactive)
REMARK    1  A    between atoms: N_1  and  C_22
REMARK    2  A    between atoms: C_2  and  C_10
REMARK    3  A    between atoms: N_8  and  C_17
REMARK    4  A    between atoms: C_17  and  C_18
REMARK    5  A    between atoms: C_18  and  O_19
REMARK    6  A    between atoms: O_19  and  C_20
REMARK    7  A    between atoms: C_22  and  C_23
REMARK    8  A    between atoms: C_23  and  C_24
REMARK    9  A    between atoms: C_27  and  C_30
REMARK   10  A    between atoms: C_30  and  C_34
REMARK   11  A    between atoms: C_34  and  O_35
REMARK                            x       y       z     vdW  Elec       q    Type
REMARK                         _______ _______ _______ _____ _____    ______ ____
ROOT
ATOM      1  N   UNL     1      35.438 -20.050 -20.517  0.00  0.00    +0.387 N 
ATOM      2  C   UNL     1      34.590 -17.358 -21.302  0.00  0.00    +0.063 C 
ATOM      3  C   UNL     1      36.029 -17.857 -21.503  0.00  0.00    -0.014 C 
ATOM      4  C   UNL     1      33.620 -18.548 -21.268  0.00  0.00    -0.014 C 
ATOM      5  C   UNL     1      36.389 -18.931 -20.471  0.00  0.00    -0.077 C 
ATOM      6  C   UNL     1      34.067 -19.596 -20.245  0.00  0.00    -0.077 C 
ATOM      7  H   UNL     1      35.459 -20.442 -21.460  0.00  0.00    -0.080 HD
ENDROOT
BRANCH   2  10
ATOM      8  N   UNL     1      33.900 -15.028 -21.998  0.00  0.00    -0.262 N 
ATOM      9  N   UNL     1      34.085 -16.523 -23.632  0.00  0.00    -0.394 NA
ATOM     10  C   UNL     1      34.191 -16.320 -22.338  0.00  0.00    +0.163 C 
ATOM     11  C   UNL     1      33.583 -14.353 -23.149  0.00  0.00    +0.079 C 
ATOM     12  C   UNL     1      33.706 -15.308 -24.154  0.00  0.00    +0.128 C 
ATOM     13  C   UNL     1      33.211 -13.030 -23.389  0.00  0.00    +0.017 C 
ATOM     14  C   UNL     1      33.446 -14.939 -25.485  0.00  0.00    +0.086 C 
ATOM     15  C   UNL     1      32.956 -12.680 -24.719  0.00  0.00    -0.003 C 
ATOM     16  C   UNL     1      33.071 -13.615 -25.750  0.00  0.00    -0.019 C 
BRANCH   8  17
ATOM     17  C   UNL     1      33.920 -14.469 -20.665  0.00  0.00    +0.130 C 
BRANCH  17  18
ATOM     18  C   UNL     1      32.551 -13.973 -20.219  0.00  0.00    +0.164 C 
BRANCH  18  19
ATOM     19  O   UNL     1      32.546 -12.553 -20.176  0.00  0.00    -0.352 OA
BRANCH  19  20
ATOM     20  C   UNL     1      31.339 -12.019 -20.702  0.00  0.00    +0.142 C 
ATOM     21  C   UNL     1      31.237 -10.558 -20.319  0.00  0.00    +0.035 C 
ENDBRANCH  19  20
ENDBRANCH  18  19
ENDBRANCH  17  18
ENDBRANCH   8  17
ENDBRANCH   2  10
BRANCH   1  22
ATOM     22  C   UNL     1      35.830 -21.091 -19.566  0.00  0.00    -0.073 C 
BRANCH  22  23
ATOM     23  C   UNL     1      34.721 -21.344 -18.544  0.00  0.00    +0.004 C 
BRANCH  23  24
ATOM     24  C   UNL     1      35.270 -21.931 -17.268  0.00  0.00    -0.024 C 
ATOM     25  C   UNL     1      36.607 -21.728 -16.926  0.00  0.00    -0.005 C 
ATOM     26  C   UNL     1      34.442 -22.678 -16.430  0.00  0.00    -0.005 C 
ATOM     27  C   UNL     1      36.287 -23.016 -14.907  0.00  0.00    -0.013 C 
ATOM     28  C   UNL     1      37.116 -22.270 -15.745  0.00  0.00    -0.004 C 
ATOM     29  C   UNL     1      34.950 -23.220 -15.250  0.00  0.00    -0.004 C 
BRANCH  27  30
ATOM     30  C   UNL     1      36.831 -23.596 -13.646  0.00  0.00    +0.108 C 
ATOM     31  C   UNL     1      38.282 -24.129 -13.881  0.00  0.00    +0.016 C 
ATOM     32  C   UNL     1      36.925 -22.599 -12.443  0.00  0.00    +0.016 C 
BRANCH  30  34
ATOM     33  O   UNL     1      35.213 -24.656 -12.142  0.00  0.00    -0.250 OA
ATOM     34  C   UNL     1      35.932 -24.763 -13.130  0.00  0.00    +0.317 C 
BRANCH  34  35
ATOM     35  O   UNL     1      36.017 -25.927 -13.823  0.00  0.00    -0.480 OA
ATOM     36  H   UNL     1      35.260 -26.471 -13.920  0.00  0.00    +0.295 HD
ENDBRANCH  34  35
ENDBRANCH  30  34
ENDBRANCH  27  30
ENDBRANCH  23  24
ENDBRANCH  22  23
ENDBRANCH   1  22
TORSDOF 11
ENDMDL
MODEL 7
REMARK VINA RESULT:     -10.4      2.678      4.793
REMARK  Name = 185460
REMARK  11 active torsions:
REMARK  status: ('A' for Active; 'I' for Inactive)
REMARK    1  A    between atoms: N_1  and  C_22
REMARK    2  A    between atoms: C_2  and  C_10
REMARK    3  A    between atoms: N_8  and  C_17
REMARK    4  A    between atoms: C_17  and  C_18
REMARK    5  A    between atoms: C_18  and  O_19
REMARK    6  A    between atoms: O_19  and  C_20
REMARK    7  A    between atoms: C_22  and  C_23
REMARK    8  A    between atoms: C_23  and  C_24
REMARK    9  A    between atoms: C_27  and  C_30
REMARK   10  A    between atoms: C_30  and  C_34
REMARK   11  A    between atoms: C_34  and  O_35
REMARK                            x       y       z     vdW  Elec       q    Type
REMARK                         _______ _______ _______ _____ _____    ______ ____
ROOT
ATOM      1  N   UNL     1      34.261 -15.268 -23.233  0.00  0.00    +0.387 N 
ATOM      2  C   UNL     1      32.996 -12.630 -23.079  0.00  0.00    +0.063 C 
ATOM      3  C   UNL     1      33.867 -13.191 -21.944  0.00  0.00    -0.014 C 
ATOM      4  C   UNL     1      33.393 -13.275 -24.416  0.00  0.00    -0.014 C 
ATOM      5  C   UNL     1      33.841 -14.723 -21.935  0.00  0.00    -0.077 C 
ATOM      6  C   UNL     1      33.384 -14.802 -24.316  0.00  0.00    -0.077 C 
ATOM      7  H   UNL     1      35.205 -14.930 -23.425  0.00  0.00    -0.080 HD
ENDROOT
BRANCH   2  10
ATOM      8  N   UNL     1      31.988 -10.341 -22.716  0.00  0.00    -0.262 N 
ATOM      9  N   UNL     1      34.036 -10.383 -23.578  0.00  0.00    -0.394 NA
ATOM     10  C   UNL     1      33.035 -11.112 -23.138  0.00  0.00    +0.163 C 
ATOM     11  C   UNL     1      32.336  -9.027 -22.897  0.00  0.00    +0.079 C 
ATOM     12  C   UNL     1      33.619  -9.080 -23.437  0.00  0.00    +0.128 C 
ATOM     13  C   UNL     1      31.660  -7.833 -22.644  0.00  0.00    +0.017 C 
ATOM     14  C   UNL     1      34.281  -7.880 -23.747  0.00  0.00    +0.086 C 
ATOM     15  C   UNL     1      32.334  -6.649 -22.960  0.00  0.00    -0.003 C 
ATOM     16  C   UNL     1      33.621  -6.669 -23.501  0.00  0.00    -0.019 C 
BRANCH   8  17
ATOM     17  C   UNL     1      30.736 -10.821 -22.175  0.00  0.00    +0.130 C 
BRANCH  17  18
ATOM     18  C   UNL     1      30.413 -10.208 -20.819  0.00  0.00    +0.164 C 
BRANCH  18  19
ATOM     19  O   UNL     1      31.373 -10.632 -19.861  0.00  0.00    -0.352 OA
BRANCH  19  20
ATOM     20  C   UNL     1      31.440  -9.737 -18.759  0.00  0.00    +0.142 C 
ATOM     21  C   UNL     1      31.489  -8.316 -19.280  0.00  0.00    +0.035 C 
ENDBRANCH  19  20
ENDBRANCH  18  19
ENDBRANCH  17  18
ENDBRANCH   8  17
ENDBRANCH   2  10
BRANCH   1  22
ATOM     22  C   UNL     1      34.285 -16.730 -23.188  0.00  0.00    -0.073 C 
BRANCH  22  23
ATOM     23  C   UNL     1      35.453 -17.233 -22.337  0.00  0.00    +0.004 C 
BRANCH  23  24
ATOM     24  C   UNL     1      35.042 -18.392 -21.465  0.00  0.00    -0.024 C 
ATOM     25  C   UNL     1      35.983 -19.015 -20.644  0.00  0.00    -0.005 C 
ATOM     26  C   UNL     1      33.722 -18.841 -21.477  0.00  0.00    -0.005 C 
ATOM     27  C   UNL     1      34.283 -20.536 -19.848  0.00  0.00    -0.013 C 
ATOM     28  C   UNL     1      35.603 -20.087 -19.836  0.00  0.00    -0.004 C 
ATOM     29  C   UNL     1      33.342 -19.913 -20.670  0.00  0.00    -0.004 C 
BRANCH  27  30
ATOM     30  C   UNL     1      33.877 -21.682 -18.985  0.00  0.00    +0.108 C 
ATOM     31  C   UNL     1      33.982 -23.021 -19.784  0.00  0.00    +0.016 C 
ATOM     32  C   UNL     1      34.741 -21.879 -17.694  0.00  0.00    +0.016 C 
BRANCH  30  34
ATOM     33  O   UNL     1      31.672 -20.618 -18.871  0.00  0.00    -0.250 OA
ATOM     34  C   UNL     1      32.416 -21.505 -18.466  0.00  0.00    +0.317 C 
BRANCH  34  35
ATOM     35  O   UNL     1      32.020 -22.377 -17.503  0.00  0.00    -0.480 OA
ATOM     36  H   UNL     1      31.762 -22.060 -16.660  0.00  0.00    +0.295 HD
ENDBRANCH  34  35
ENDBRANCH  30  34
ENDBRANCH  27  30
ENDBRANCH  23  24
ENDBRANCH  22  23
ENDBRANCH   1  22
TORSDOF 11
ENDMDL
MODEL 8
REMARK VINA RESULT:      -9.2      2.913     10.961
REMARK  Name = 185460
REMARK  11 active torsions:
REMARK  status: ('A' for Active; 'I' for Inactive)
REMARK    1  A    between atoms: N_1  and  C_22
REMARK    2  A    between atoms: C_2  and  C_10
REMARK    3  A    between atoms: N_8  and  C_17
REMARK    4  A    between atoms: C_17  and  C_18
REMARK    5  A    between atoms: C_18  and  O_19
REMARK    6  A    between atoms: O_19  and  C_20
REMARK    7  A    between atoms: C_22  and  C_23
REMARK    8  A    between atoms: C_23  and  C_24
REMARK    9  A    between atoms: C_27  and  C_30
REMARK   10  A    between atoms: C_30  and  C_34
REMARK   11  A    between atoms: C_34  and  O_35
REMARK                            x       y       z     vdW  Elec       q    Type
REMARK                         _______ _______ _______ _____ _____    ______ ____
ROOT
ATOM      1  N   UNL     1      31.026 -11.304 -21.510  0.00  0.00    +0.387 N 
ATOM      2  C   UNL     1      33.257 -13.196 -21.346  0.00  0.00    +0.063 C 
ATOM      3  C   UNL     1      32.195 -13.080 -20.242  0.00  0.00    -0.014 C 
ATOM      4  C   UNL     1      32.674 -12.726 -22.688  0.00  0.00    -0.014 C 
ATOM      5  C   UNL     1      31.590 -11.674 -20.205  0.00  0.00    -0.077 C 
ATOM      6  C   UNL     1      32.052 -11.333 -22.561  0.00  0.00    -0.077 C 
ATOM      7  H   UNL     1      30.311 -11.993 -21.749  0.00  0.00    -0.080 HD
ENDROOT
BRANCH   2  10
ATOM      8  N   UNL     1      34.206 -15.158 -22.625  0.00  0.00    -0.262 N 
ATOM      9  N   UNL     1      34.078 -15.398 -20.420  0.00  0.00    -0.394 NA
ATOM     10  C   UNL     1      33.847 -14.594 -21.433  0.00  0.00    +0.163 C 
ATOM     11  C   UNL     1      34.702 -16.410 -22.363  0.00  0.00    +0.079 C 
ATOM     12  C   UNL     1      34.610 -16.536 -20.980  0.00  0.00    +0.128 C 
ATOM     13  C   UNL     1      35.205 -17.413 -23.192  0.00  0.00    +0.017 C 
ATOM     14  C   UNL     1      35.044 -17.725 -20.370  0.00  0.00    +0.086 C 
ATOM     15  C   UNL     1      35.632 -18.590 -22.568  0.00  0.00    -0.003 C 
ATOM     16  C   UNL     1      35.553 -18.746 -21.183  0.00  0.00    -0.019 C 
BRANCH   8  17
ATOM     17  C   UNL     1      34.088 -14.549 -23.931  0.00  0.00    +0.130 C 
BRANCH  17  18
ATOM     18  C   UNL     1      33.131 -15.305 -24.843  0.00  0.00    +0.164 C 
BRANCH  18  19
ATOM     19  O   UNL     1      32.985 -14.605 -26.071  0.00  0.00    -0.352 OA
BRANCH  19  20
ATOM     20  C   UNL     1      33.063 -13.199 -25.882  0.00  0.00    +0.142 C 
ATOM     21  C   UNL     1      31.939 -12.536 -26.650  0.00  0.00    +0.035 C 
ENDBRANCH  19  20
ENDBRANCH  18  19
ENDBRANCH  17  18
ENDBRANCH   8  17
ENDBRANCH   2  10
BRANCH   1  22
ATOM     22  C   UNL     1      30.402  -9.983 -21.440  0.00  0.00    -0.073 C 
BRANCH  22  23
ATOM     23  C   UNL     1      31.382  -8.942 -20.896  0.00  0.00    +0.004 C 
BRANCH  23  24
ATOM     24  C   UNL     1      31.719  -7.904 -21.936  0.00  0.00    -0.024 C 
ATOM     25  C   UNL     1      32.727  -6.971 -21.690  0.00  0.00    -0.005 C 
ATOM     26  C   UNL     1      31.023  -7.876 -23.145  0.00  0.00    -0.005 C 
ATOM     27  C   UNL     1      32.344  -5.982 -23.861  0.00  0.00    -0.013 C 
ATOM     28  C   UNL     1      33.039  -6.010 -22.652  0.00  0.00    -0.004 C 
ATOM     29  C   UNL     1      31.336  -6.915 -24.107  0.00  0.00    -0.004 C 
BRANCH  27  30
ATOM     30  C   UNL     1      32.677  -4.955 -24.889  0.00  0.00    +0.108 C 
ATOM     31  C   UNL     1      34.204  -4.622 -24.841  0.00  0.00    +0.016 C 
ATOM     32  C   UNL     1      32.370  -5.371 -26.367  0.00  0.00    +0.016 C 
BRANCH  30  34
ATOM     33  O   UNL     1      30.708  -3.651 -24.233  0.00  0.00    -0.250 OA
ATOM     34  C   UNL     1      31.858  -3.647 -24.663  0.00  0.00    +0.317 C 
BRANCH  34  35
ATOM     35  O   UNL     1      32.482  -2.490 -25.005  0.00  0.00    -0.480 OA
ATOM     36  H   UNL     1      32.231  -2.036 -25.786  0.00  0.00    +0.295 HD
ENDBRANCH  34  35
ENDBRANCH  30  34
ENDBRANCH  27  30
ENDBRANCH  23  24
ENDBRANCH  22  23
ENDBRANCH   1  22
TORSDOF 11
ENDMDL
MODEL 9
REMARK VINA RESULT:      -8.7      7.586     15.235
REMARK  Name = 185460
REMARK  11 active torsions:
REMARK  status: ('A' for Active; 'I' for Inactive)
REMARK    1  A    between atoms: N_1  and  C_22
REMARK    2  A    between atoms: C_2  and  C_10
REMARK    3  A    between atoms: N_8  and  C_17
REMARK    4  A    between atoms: C_17  and  C_18
REMARK    5  A    between atoms: C_18  and  O_19
REMARK    6  A    between atoms: O_19  and  C_20
REMARK    7  A    between atoms: C_22  and  C_23
REMARK    8  A    between atoms: C_23  and  C_24
REMARK    9  A    between atoms: C_27  and  C_30
REMARK   10  A    between atoms: C_30  and  C_34
REMARK   11  A    between atoms: C_34  and  O_35
REMARK                            x       y       z     vdW  Elec       q    Type
REMARK                         _______ _______ _______ _____ _____    ______ ____
ROOT
ATOM      1  N   UNL     1      34.763 -21.339 -19.122  0.00  0.00    +0.387 N 
ATOM      2  C   UNL     1      35.512 -21.981 -16.363  0.00  0.00    +0.063 C 
ATOM      3  C   UNL     1      34.304 -22.628 -17.059  0.00  0.00    -0.014 C 
ATOM      4  C   UNL     1      36.540 -21.526 -17.409  0.00  0.00    -0.014 C 
ATOM      5  C   UNL     1      33.734 -21.707 -18.141  0.00  0.00    -0.077 C 
ATOM      6  C   UNL     1      35.888 -20.645 -18.478  0.00  0.00    -0.077 C 
ATOM      7  H   UNL     1      35.122 -22.198 -19.539  0.00  0.00    -0.080 HD
ENDROOT
BRANCH   2  10
ATOM      8  N   UNL     1      35.363 -23.713 -14.527  0.00  0.00    -0.262 N 
ATOM      9  N   UNL     1      37.405 -22.997 -15.035  0.00  0.00    -0.394 NA
ATOM     10  C   UNL     1      36.124 -22.890 -15.310  0.00  0.00    +0.163 C 
ATOM     11  C   UNL     1      36.208 -24.395 -13.691  0.00  0.00    +0.079 C 
ATOM     12  C   UNL     1      37.477 -23.930 -14.027  0.00  0.00    +0.128 C 
ATOM     13  C   UNL     1      35.980 -25.349 -12.699  0.00  0.00    +0.017 C 
ATOM     14  C   UNL     1      38.596 -24.438 -13.344  0.00  0.00    +0.086 C 
ATOM     15  C   UNL     1      37.104 -25.842 -12.029  0.00  0.00    -0.003 C 
ATOM     16  C   UNL     1      38.389 -25.397 -12.344  0.00  0.00    -0.019 C 
BRANCH   8  17
ATOM     17  C   UNL     1      33.924 -23.842 -14.570  0.00  0.00    +0.130 C 
BRANCH  17  18
ATOM     18  C   UNL     1      33.251 -23.296 -13.318  0.00  0.00    +0.164 C 
BRANCH  18  19
ATOM     19  O   UNL     1      32.502 -24.326 -12.687  0.00  0.00    -0.352 OA
BRANCH  19  20
ATOM     20  C   UNL     1      31.287 -24.583 -13.377  0.00  0.00    +0.142 C 
ATOM     21  C   UNL     1      30.429 -23.336 -13.346  0.00  0.00    +0.035 C 
ENDBRANCH  19  20
ENDBRANCH  18  19
ENDBRANCH  17  18
ENDBRANCH   8  17
ENDBRANCH   2  10
BRANCH   1  22
ATOM     22  C   UNL     1      34.188 -20.507 -20.178  0.00  0.00    -0.073 C 
BRANCH  22  23
ATOM     23  C   UNL     1      35.262 -20.060 -21.171  0.00  0.00    +0.004 C 
BRANCH  23  24
ATOM     24  C   UNL     1      34.890 -18.761 -21.840  0.00  0.00    -0.024 C 
ATOM     25  C   UNL     1      34.200 -18.775 -23.054  0.00  0.00    -0.005 C 
ATOM     26  C   UNL     1      35.233 -17.547 -21.247  0.00  0.00    -0.005 C 
ATOM     27  C   UNL     1      34.198 -16.359 -23.080  0.00  0.00    -0.013 C 
ATOM     28  C   UNL     1      33.855 -17.574 -23.673  0.00  0.00    -0.004 C 
ATOM     29  C   UNL     1      34.888 -16.346 -21.867  0.00  0.00    -0.004 C 
BRANCH  27  30
ATOM     30  C   UNL     1      33.829 -15.075 -23.743  0.00  0.00    +0.108 C 
ATOM     31  C   UNL     1      34.989 -14.600 -24.678  0.00  0.00    +0.016 C 
ATOM     32  C   UNL     1      32.547 -15.136 -24.639  0.00  0.00    +0.016 C 
BRANCH  30  34
ATOM     33  O   UNL     1      32.688 -14.100 -21.806  0.00  0.00    -0.250 OA
ATOM     34  C   UNL     1      33.529 -13.964 -22.689  0.00  0.00    +0.317 C 
BRANCH  34  35
ATOM     35  O   UNL     1      34.234 -12.812 -22.826  0.00  0.00    -0.480 OA
ATOM     36  H   UNL     1      35.117 -12.763 -22.517  0.00  0.00    +0.295 HD
ENDBRANCH  34  35
ENDBRANCH  30  34
ENDBRANCH  27  30
ENDBRANCH  23  24
ENDBRANCH  22  23
ENDBRANCH   1  22
TORSDOF 11
ENDMDL
