MODEL 1
REMARK VINA RESULT:     -11.5      0.000      0.000
REMARK  Name = 64929
REMARK  6 active torsions:
REMARK  status: ('A' for Active; 'I' for Inactive)
REMARK    1  A    between atoms: C_1  and  O_16
REMARK    2  A    between atoms: C_2  and  C_8
REMARK    3  A    between atoms: C_8  and  C_10
REMARK    4  A    between atoms: O_16  and  C_17
REMARK    5  A    between atoms: C_17  and  C_21
REMARK    6  A    between atoms: C_21  and  O_22
REMARK                            x       y       z     vdW  Elec       q    Type
REMARK                         _______ _______ _______ _____ _____    ______ ____
ROOT
ATOM      1  C   UNL     1      36.700 -23.187 -14.728  0.00  0.00    +0.139 C 
ATOM      2  C   UNL     1      34.588 -22.614 -16.447  0.00  0.00    +0.039 C 
ATOM      3  C   UNL     1      35.459 -23.783 -14.521  0.00  0.00    +0.037 C 
ATOM      4  C   UNL     1      36.891 -22.306 -15.788  0.00  0.00    +0.037 C 
ATOM      5  C   UNL     1      34.401 -23.496 -15.383  0.00  0.00    +0.006 C 
ATOM      6  C   UNL     1      35.833 -22.019 -16.650  0.00  0.00    +0.006 C 
ENDROOT
BRANCH   2   8
ATOM      7  O   UNL     1      32.355 -22.780 -17.128  0.00  0.00    -0.287 OA
ATOM      8  C   UNL     1      33.484 -22.315 -17.347  0.00  0.00    +0.196 C 
BRANCH   8  10
ATOM      9 CL   UNL     1      34.139 -18.860 -22.164  0.00  0.00    -0.082 Cl
ATOM     10  C   UNL     1      33.648 -21.449 -18.554  0.00  0.00    +0.039 C 
ATOM     11  C   UNL     1      32.524 -20.913 -19.136  0.00  0.00    +0.004 C 
ATOM     12  C   UNL     1      34.917 -21.224 -19.033  0.00  0.00    +0.004 C 
ATOM     13  C   UNL     1      32.677 -20.106 -20.263  0.00  0.00    +0.011 C 
ATOM     14  C   UNL     1      35.070 -20.416 -20.159  0.00  0.00    +0.011 C 
ATOM     15  C   UNL     1      33.951 -19.856 -20.775  0.00  0.00    +0.058 C 
ENDBRANCH   8  10
ENDBRANCH   2   8
BRANCH   1  16
ATOM     16  O   UNL     1      37.738 -23.471 -13.884  0.00  0.00    -0.472 OA
BRANCH  16  17
ATOM     17  C   UNL     1      38.258 -24.800 -13.936  0.00  0.00    +0.221 C 
ATOM     18  C   UNL     1      37.335 -25.635 -14.818  0.00  0.00    +0.055 C 
ATOM     19  C   UNL     1      38.336 -25.332 -12.508  0.00  0.00    +0.055 C 
BRANCH  17  21
ATOM     20  O   UNL     1      40.540 -23.966 -14.106  0.00  0.00    -0.246 OA
ATOM     21  C   UNL     1      39.645 -24.672 -14.553  0.00  0.00    +0.350 C 
BRANCH  21  22
ATOM     22  O   UNL     1      39.808 -25.427 -15.671  0.00  0.00    -0.478 OA
ATOM     23  H   UNL     1      40.670 -25.631 -15.977  0.00  0.00    +0.295 HD
ENDBRANCH  21  22
ENDBRANCH  17  21
ENDBRANCH  16  17
ENDBRANCH   1  16
TORSDOF 6
ENDMDL
MODEL 2
REMARK VINA RESULT:     -11.3      2.001      2.803
REMARK  Name = 64929
REMARK  6 active torsions:
REMARK  status: ('A' for Active; 'I' for Inactive)
REMARK    1  A    between atoms: C_1  and  O_16
REMARK    2  A    between atoms: C_2  and  C_8
REMARK    3  A    between atoms: C_8  and  C_10
REMARK    4  A    between atoms: O_16  and  C_17
REMARK    5  A    between atoms: C_17  and  C_21
REMARK    6  A    between atoms: C_21  and  O_22
REMARK                            x       y       z     vdW  Elec       q    Type
REMARK                         _______ _______ _______ _____ _____    ______ ____
ROOT
ATOM      1  C   UNL     1      35.566 -22.559 -14.295  0.00  0.00    +0.139 C 
ATOM      2  C   UNL     1      34.504 -22.405 -16.863  0.00  0.00    +0.039 C 
ATOM      3  C   UNL     1      36.364 -22.120 -15.347  0.00  0.00    +0.037 C 
ATOM      4  C   UNL     1      34.242 -22.923 -14.518  0.00  0.00    +0.037 C 
ATOM      5  C   UNL     1      35.831 -22.042 -16.634  0.00  0.00    +0.006 C 
ATOM      6  C   UNL     1      33.709 -22.846 -15.804  0.00  0.00    +0.006 C 
ENDROOT
BRANCH   2   8
ATOM      7  O   UNL     1      33.154 -23.187 -18.607  0.00  0.00    -0.287 OA
ATOM      8  C   UNL     1      33.948 -22.324 -18.205  0.00  0.00    +0.196 C 
BRANCH   8  10
ATOM      9 CL   UNL     1      35.343 -17.915 -21.974  0.00  0.00    -0.082 Cl
ATOM     10  C   UNL     1      34.298 -21.219 -19.150  0.00  0.00    +0.039 C 
ATOM     11  C   UNL     1      33.278 -20.551 -19.785  0.00  0.00    +0.004 C 
ATOM     12  C   UNL     1      35.625 -20.916 -19.345  0.00  0.00    +0.004 C 
ATOM     13  C   UNL     1      33.604 -19.520 -20.667  0.00  0.00    +0.011 C 
ATOM     14  C   UNL     1      35.951 -19.886 -20.226  0.00  0.00    +0.011 C 
ATOM     15  C   UNL     1      34.941 -19.187 -20.887  0.00  0.00    +0.058 C 
ENDBRANCH   8  10
ENDBRANCH   2   8
BRANCH   1  16
ATOM     16  O   UNL     1      36.088 -22.633 -13.033  0.00  0.00    -0.472 OA
BRANCH  16  17
ATOM     17  C   UNL     1      36.481 -23.929 -12.580  0.00  0.00    +0.221 C 
ATOM     18  C   UNL     1      37.996 -23.931 -12.409  0.00  0.00    +0.055 C 
ATOM     19  C   UNL     1      36.010 -24.952 -13.610  0.00  0.00    +0.055 C 
BRANCH  17  21
ATOM     20  O   UNL     1      36.270 -23.872 -10.154  0.00  0.00    -0.246 OA
ATOM     21  C   UNL     1      35.774 -24.127 -11.245  0.00  0.00    +0.350 C 
BRANCH  21  22
ATOM     22  O   UNL     1      34.516 -24.624 -11.370  0.00  0.00    -0.478 OA
ATOM     23  H   UNL     1      33.866 -24.424 -10.726  0.00  0.00    +0.295 HD
ENDBRANCH  21  22
ENDBRANCH  17  21
ENDBRANCH  16  17
ENDBRANCH   1  16
TORSDOF 6
ENDMDL
MODEL 3
REMARK VINA RESULT:     -11.3      1.292      1.841
REMARK  Name = 64929
REMARK  6 active torsions:
REMARK  status: ('A' for Active; 'I' for Inactive)
REMARK    1  A    between atoms: C_1  and  O_16
REMARK    2  A    between atoms: C_2  and  C_8
REMARK    3  A    between atoms: C_8  and  C_10
REMARK    4  A    between atoms: O_16  and  C_17
REMARK    5  A    between atoms: C_17  and  C_21
REMARK    6  A    between atoms: C_21  and  O_22
REMARK                            x       y       z     vdW  Elec       q    Type
REMARK                         _______ _______ _______ _____ _____    ______ ____
ROOT
ATOM      1  C   UNL     1      36.364 -22.330 -15.028  0.00  0.00    +0.139 C 
ATOM      2  C   UNL     1      34.994 -22.031 -17.431  0.00  0.00    +0.039 C 
ATOM      3  C   UNL     1      37.023 -21.810 -16.138  0.00  0.00    +0.037 C 
ATOM      4  C   UNL     1      35.027 -22.703 -15.111  0.00  0.00    +0.037 C 
ATOM      5  C   UNL     1      36.335 -21.660 -17.343  0.00  0.00    +0.006 C 
ATOM      6  C   UNL     1      34.339 -22.553 -16.315  0.00  0.00    +0.006 C 
ENDROOT
BRANCH   2   8
ATOM      7  O   UNL     1      33.440 -22.718 -19.040  0.00  0.00    -0.287 OA
ATOM      8  C   UNL     1      34.277 -21.874 -18.688  0.00  0.00    +0.196 C 
BRANCH   8  10
ATOM      9 CL   UNL     1      35.196 -17.239 -22.328  0.00  0.00    -0.082 Cl
ATOM     10  C   UNL     1      34.507 -20.713 -19.600  0.00  0.00    +0.039 C 
ATOM     11  C   UNL     1      33.421 -20.129 -20.208  0.00  0.00    +0.004 C 
ATOM     12  C   UNL     1      35.797 -20.275 -19.794  0.00  0.00    +0.004 C 
ATOM     13  C   UNL     1      33.636 -19.046 -21.060  0.00  0.00    +0.011 C 
ATOM     14  C   UNL     1      36.011 -19.192 -20.645  0.00  0.00    +0.011 C 
ATOM     15  C   UNL     1      34.931 -18.576 -21.278  0.00  0.00    +0.058 C 
ENDBRANCH   8  10
ENDBRANCH   2   8
BRANCH   1  16
ATOM     16  O   UNL     1      37.038 -22.475 -13.846  0.00  0.00    -0.472 OA
BRANCH  16  17
ATOM     17  C   UNL     1      37.289 -23.814 -13.415  0.00  0.00    +0.221 C 
ATOM     18  C   UNL     1      35.976 -24.586 -13.480  0.00  0.00    +0.055 C 
ATOM     19  C   UNL     1      37.861 -23.755 -12.002  0.00  0.00    +0.055 C 
BRANCH  17  21
ATOM     20  O   UNL     1      39.417 -23.892 -14.598  0.00  0.00    -0.246 OA
ATOM     21  C   UNL     1      38.309 -24.374 -14.399  0.00  0.00    +0.350 C 
BRANCH  21  22
ATOM     22  O   UNL     1      37.872 -25.481 -15.054  0.00  0.00    -0.478 OA
ATOM     23  H   UNL     1      37.978 -26.327 -14.667  0.00  0.00    +0.295 HD
ENDBRANCH  21  22
ENDBRANCH  17  21
ENDBRANCH  16  17
ENDBRANCH   1  16
TORSDOF 6
ENDMDL
MODEL 4
REMARK VINA RESULT:     -11.2      6.682     11.128
REMARK  Name = 64929
REMARK  6 active torsions:
REMARK  status: ('A' for Active; 'I' for Inactive)
REMARK    1  A    between atoms: C_1  and  O_16
REMARK    2  A    between atoms: C_2  and  C_8
REMARK    3  A    between atoms: C_8  and  C_10
REMARK    4  A    between atoms: O_16  and  C_17
REMARK    5  A    between atoms: C_17  and  C_21
REMARK    6  A    between atoms: C_21  and  O_22
REMARK                            x       y       z     vdW  Elec       q    Type
REMARK                         _______ _______ _______ _____ _____    ______ ____
ROOT
ATOM      1  C   UNL     1      34.114 -14.340 -22.147  0.00  0.00    +0.139 C 
ATOM      2  C   UNL     1      34.528 -17.091 -22.200  0.00  0.00    +0.039 C 
ATOM      3  C   UNL     1      34.293 -14.988 -23.365  0.00  0.00    +0.037 C 
ATOM      4  C   UNL     1      34.143 -15.057 -20.955  0.00  0.00    +0.037 C 
ATOM      5  C   UNL     1      34.500 -16.367 -23.391  0.00  0.00    +0.006 C 
ATOM      6  C   UNL     1      34.350 -16.436 -20.981  0.00  0.00    +0.006 C 
ENDROOT
BRANCH   2   8
ATOM      7  O   UNL     1      35.330 -19.056 -23.184  0.00  0.00    -0.287 OA
ATOM      8  C   UNL     1      34.743 -18.530 -22.227  0.00  0.00    +0.196 C 
BRANCH   8  10
ATOM      9 CL   UNL     1      32.890 -22.121 -17.840  0.00  0.00    -0.082 Cl
ATOM     10  C   UNL     1      34.279 -19.430 -21.128  0.00  0.00    +0.039 C 
ATOM     11  C   UNL     1      32.927 -19.587 -20.935  0.00  0.00    +0.004 C 
ATOM     12  C   UNL     1      35.223 -20.064 -20.355  0.00  0.00    +0.004 C 
ATOM     13  C   UNL     1      32.493 -20.426 -19.908  0.00  0.00    +0.011 C 
ATOM     14  C   UNL     1      34.790 -20.904 -19.329  0.00  0.00    +0.011 C 
ATOM     15  C   UNL     1      33.425 -21.085 -19.105  0.00  0.00    +0.058 C 
ENDBRANCH   8  10
ENDBRANCH   2   8
BRANCH   1  16
ATOM     16  O   UNL     1      33.909 -12.988 -22.121  0.00  0.00    -0.472 OA
BRANCH  16  17
ATOM     17  C   UNL     1      32.669 -12.520 -22.652  0.00  0.00    +0.221 C 
ATOM     18  C   UNL     1      31.615 -12.624 -21.554  0.00  0.00    +0.055 C 
ATOM     19  C   UNL     1      32.325 -13.372 -23.870  0.00  0.00    +0.055 C 
BRANCH  17  21
ATOM     20  O   UNL     1      32.123 -10.154 -22.850  0.00  0.00    -0.246 OA
ATOM     21  C   UNL     1      32.914 -11.069 -23.046  0.00  0.00    +0.350 C 
BRANCH  21  22
ATOM     22  O   UNL     1      34.115 -10.871 -23.650  0.00  0.00    -0.478 OA
ATOM     23  H   UNL     1      34.773 -10.355 -23.228  0.00  0.00    +0.295 HD
ENDBRANCH  21  22
ENDBRANCH  17  21
ENDBRANCH  16  17
ENDBRANCH   1  16
TORSDOF 6
ENDMDL
MODEL 5
REMARK VINA RESULT:     -11.2      4.589      8.218
REMARK  Name = 64929
REMARK  6 active torsions:
REMARK  status: ('A' for Active; 'I' for Inactive)
REMARK    1  A    between atoms: C_1  and  O_16
REMARK    2  A    between atoms: C_2  and  C_8
REMARK    3  A    between atoms: C_8  and  C_10
REMARK    4  A    between atoms: O_16  and  C_17
REMARK    5  A    between atoms: C_17  and  C_21
REMARK    6  A    between atoms: C_21  and  O_22
REMARK                            x       y       z     vdW  Elec       q    Type
REMARK                         _______ _______ _______ _____ _____    ______ ____
ROOT
ATOM      1  C   UNL     1      34.107 -19.124 -20.580  0.00  0.00    +0.139 C 
ATOM      2  C   UNL     1      33.524 -21.495 -19.244  0.00  0.00    +0.039 C 
ATOM      3  C   UNL     1      32.783 -19.530 -20.438  0.00  0.00    +0.037 C 
ATOM      4  C   UNL     1      35.141 -19.896 -20.060  0.00  0.00    +0.037 C 
ATOM      5  C   UNL     1      32.491 -20.718 -19.768  0.00  0.00    +0.006 C 
ATOM      6  C   UNL     1      34.850 -21.084 -19.391  0.00  0.00    +0.006 C 
ENDROOT
BRANCH   2   8
ATOM      7  O   UNL     1      33.337 -23.824 -19.123  0.00  0.00    -0.287 OA
ATOM      8  C   UNL     1      33.219 -22.734 -18.545  0.00  0.00    +0.196 C 
BRANCH   8  10
ATOM      9 CL   UNL     1      31.382 -22.829 -12.871  0.00  0.00    -0.082 Cl
ATOM     10  C   UNL     1      32.759 -22.757 -17.123  0.00  0.00    +0.039 C 
ATOM     11  C   UNL     1      31.421 -22.581 -16.863  0.00  0.00    +0.004 C 
ATOM     12  C   UNL     1      33.693 -22.956 -16.133  0.00  0.00    +0.004 C 
ATOM     13  C   UNL     1      30.991 -22.602 -15.536  0.00  0.00    +0.011 C 
ATOM     14  C   UNL     1      33.264 -22.978 -14.806  0.00  0.00    +0.011 C 
ATOM     15  C   UNL     1      31.913 -22.801 -14.507  0.00  0.00    +0.058 C 
ENDBRANCH   8  10
ENDBRANCH   2   8
BRANCH   1  16
ATOM     16  O   UNL     1      34.393 -17.958 -21.236  0.00  0.00    -0.472 OA
BRANCH  16  17
ATOM     17  C   UNL     1      34.991 -18.083 -22.527  0.00  0.00    +0.221 C 
ATOM     18  C   UNL     1      34.415 -19.325 -23.197  0.00  0.00    +0.055 C 
ATOM     19  C   UNL     1      36.502 -18.169 -22.341  0.00  0.00    +0.055 C 
BRANCH  17  21
ATOM     20  O   UNL     1      34.015 -16.805 -24.358  0.00  0.00    -0.246 OA
ATOM     21  C   UNL     1      34.600 -16.817 -23.281  0.00  0.00    +0.350 C 
BRANCH  21  22
ATOM     22  O   UNL     1      34.966 -15.676 -22.642  0.00  0.00    -0.478 OA
ATOM     23  H   UNL     1      34.757 -15.558 -21.736  0.00  0.00    +0.295 HD
ENDBRANCH  21  22
ENDBRANCH  17  21
ENDBRANCH  16  17
ENDBRANCH   1  16
TORSDOF 6
ENDMDL
MODEL 6
REMARK VINA RESULT:     -11.2      6.685     11.154
REMARK  Name = 64929
REMARK  6 active torsions:
REMARK  status: ('A' for Active; 'I' for Inactive)
REMARK    1  A    between atoms: C_1  and  O_16
REMARK    2  A    between atoms: C_2  and  C_8
REMARK    3  A    between atoms: C_8  and  C_10
REMARK    4  A    between atoms: O_16  and  C_17
REMARK    5  A    between atoms: C_17  and  C_21
REMARK    6  A    between atoms: C_21  and  O_22
REMARK                            x       y       z     vdW  Elec       q    Type
REMARK                         _______ _______ _______ _____ _____    ______ ____
ROOT
ATOM      1  C   UNL     1      34.097 -14.338 -22.145  0.00  0.00    +0.139 C 
ATOM      2  C   UNL     1      34.523 -17.087 -22.205  0.00  0.00    +0.039 C 
ATOM      3  C   UNL     1      34.153 -15.054 -20.953  0.00  0.00    +0.037 C 
ATOM      4  C   UNL     1      34.251 -14.987 -23.366  0.00  0.00    +0.037 C 
ATOM      5  C   UNL     1      34.367 -16.433 -20.983  0.00  0.00    +0.006 C 
ATOM      6  C   UNL     1      34.465 -16.364 -23.397  0.00  0.00    +0.006 C 
ENDROOT
BRANCH   2   8
ATOM      7  O   UNL     1      35.334 -19.045 -23.196  0.00  0.00    -0.287 OA
ATOM      8  C   UNL     1      34.747 -18.525 -22.236  0.00  0.00    +0.196 C 
BRANCH   8  10
ATOM      9 CL   UNL     1      32.926 -22.134 -17.850  0.00  0.00    -0.082 Cl
ATOM     10  C   UNL     1      34.291 -19.429 -21.137  0.00  0.00    +0.039 C 
ATOM     11  C   UNL     1      35.240 -20.061 -20.369  0.00  0.00    +0.004 C 
ATOM     12  C   UNL     1      32.940 -19.592 -20.938  0.00  0.00    +0.004 C 
ATOM     13  C   UNL     1      34.814 -20.906 -19.344  0.00  0.00    +0.011 C 
ATOM     14  C   UNL     1      32.514 -20.436 -19.913  0.00  0.00    +0.011 C 
ATOM     15  C   UNL     1      33.451 -21.093 -19.115  0.00  0.00    +0.058 C 
ENDBRANCH   8  10
ENDBRANCH   2   8
BRANCH   1  16
ATOM     16  O   UNL     1      33.889 -12.986 -22.115  0.00  0.00    -0.472 OA
BRANCH  16  17
ATOM     17  C   UNL     1      32.657 -12.518 -22.665  0.00  0.00    +0.221 C 
ATOM     18  C   UNL     1      31.586 -12.626 -21.585  0.00  0.00    +0.055 C 
ATOM     19  C   UNL     1      32.334 -13.367 -23.891  0.00  0.00    +0.055 C 
BRANCH  17  21
ATOM     20  O   UNL     1      32.119 -10.150 -22.854  0.00  0.00    -0.246 OA
ATOM     21  C   UNL     1      32.908 -11.066 -23.051  0.00  0.00    +0.350 C 
BRANCH  21  22
ATOM     22  O   UNL     1      34.111 -10.869 -23.649  0.00  0.00    -0.478 OA
ATOM     23  H   UNL     1      34.443 -11.502 -24.255  0.00  0.00    +0.295 HD
ENDBRANCH  21  22
ENDBRANCH  17  21
ENDBRANCH  16  17
ENDBRANCH   1  16
TORSDOF 6
ENDMDL
MODEL 7
REMARK VINA RESULT:     -10.9      1.796      2.607
REMARK  Name = 64929
REMARK  6 active torsions:
REMARK  status: ('A' for Active; 'I' for Inactive)
REMARK    1  A    between atoms: C_1  and  O_16
REMARK    2  A    between atoms: C_2  and  C_8
REMARK    3  A    between atoms: C_8  and  C_10
REMARK    4  A    between atoms: O_16  and  C_17
REMARK    5  A    between atoms: C_17  and  C_21
REMARK    6  A    between atoms: C_21  and  O_22
REMARK                            x       y       z     vdW  Elec       q    Type
REMARK                         _______ _______ _______ _____ _____    ______ ____
ROOT
ATOM      1  C   UNL     1      35.859 -22.446 -14.841  0.00  0.00    +0.139 C 
ATOM      2  C   UNL     1      34.780 -22.137 -17.388  0.00  0.00    +0.039 C 
ATOM      3  C   UNL     1      34.553 -22.856 -15.093  0.00  0.00    +0.037 C 
ATOM      4  C   UNL     1      36.628 -21.881 -15.854  0.00  0.00    +0.037 C 
ATOM      5  C   UNL     1      34.012 -22.701 -16.369  0.00  0.00    +0.006 C 
ATOM      6  C   UNL     1      36.088 -21.726 -17.130  0.00  0.00    +0.006 C 
ENDROOT
BRANCH   2   8
ATOM      7  O   UNL     1      33.464 -22.842 -19.190  0.00  0.00    -0.287 OA
ATOM      8  C   UNL     1      34.216 -21.976 -18.720  0.00  0.00    +0.196 C 
BRANCH   8  10
ATOM      9 CL   UNL     1      35.377 -17.217 -22.124  0.00  0.00    -0.082 Cl
ATOM     10  C   UNL     1      34.508 -20.783 -19.572  0.00  0.00    +0.039 C 
ATOM     11  C   UNL     1      35.815 -20.383 -19.719  0.00  0.00    +0.004 C 
ATOM     12  C   UNL     1      33.456 -20.135 -20.176  0.00  0.00    +0.004 C 
ATOM     13  C   UNL     1      36.086 -19.270 -20.514  0.00  0.00    +0.011 C 
ATOM     14  C   UNL     1      33.727 -19.022 -20.972  0.00  0.00    +0.011 C 
ATOM     15  C   UNL     1      35.042 -18.590 -21.142  0.00  0.00    +0.058 C 
ENDBRANCH   8  10
ENDBRANCH   2   8
BRANCH   1  16
ATOM     16  O   UNL     1      36.389 -22.600 -13.590  0.00  0.00    -0.472 OA
BRANCH  16  17
ATOM     17  C   UNL     1      37.161 -23.780 -13.365  0.00  0.00    +0.221 C 
ATOM     18  C   UNL     1      37.870 -23.633 -12.023  0.00  0.00    +0.055 C 
ATOM     19  C   UNL     1      38.139 -23.934 -14.525  0.00  0.00    +0.055 C 
BRANCH  17  21
ATOM     20  O   UNL     1      36.061 -25.785 -14.203  0.00  0.00    -0.246 OA
ATOM     21  C   UNL     1      36.156 -24.926 -13.336  0.00  0.00    +0.350 C 
BRANCH  21  22
ATOM     22  O   UNL     1      35.354 -24.910 -12.240  0.00  0.00    -0.478 OA
ATOM     23  H   UNL     1      35.547 -24.334 -11.526  0.00  0.00    +0.295 HD
ENDBRANCH  21  22
ENDBRANCH  17  21
ENDBRANCH  16  17
ENDBRANCH   1  16
TORSDOF 6
ENDMDL
MODEL 8
REMARK VINA RESULT:     -10.7      7.356     11.814
REMARK  Name = 64929
REMARK  6 active torsions:
REMARK  status: ('A' for Active; 'I' for Inactive)
REMARK    1  A    between atoms: C_1  and  O_16
REMARK    2  A    between atoms: C_2  and  C_8
REMARK    3  A    between atoms: C_8  and  C_10
REMARK    4  A    between atoms: O_16  and  C_17
REMARK    5  A    between atoms: C_17  and  C_21
REMARK    6  A    between atoms: C_21  and  O_22
REMARK                            x       y       z     vdW  Elec       q    Type
REMARK                         _______ _______ _______ _____ _____    ______ ____
ROOT
ATOM      1  C   UNL     1      33.673 -13.188 -21.952  0.00  0.00    +0.139 C 
ATOM      2  C   UNL     1      34.205 -15.854 -22.550  0.00  0.00    +0.039 C 
ATOM      3  C   UNL     1      33.788 -13.589 -23.280  0.00  0.00    +0.037 C 
ATOM      4  C   UNL     1      33.823 -14.111 -20.921  0.00  0.00    +0.037 C 
ATOM      5  C   UNL     1      34.054 -14.925 -23.579  0.00  0.00    +0.006 C 
ATOM      6  C   UNL     1      34.090 -15.446 -21.220  0.00  0.00    +0.006 C 
ENDROOT
BRANCH   2   8
ATOM      7  O   UNL     1      34.428 -17.648 -24.035  0.00  0.00    -0.287 OA
ATOM      8  C   UNL     1      34.482 -17.247 -22.862  0.00  0.00    +0.196 C 
BRANCH   8  10
ATOM      9 CL   UNL     1      35.909 -21.238 -18.665  0.00  0.00    -0.082 Cl
ATOM     10  C   UNL     1      34.839 -18.247 -21.810  0.00  0.00    +0.039 C 
ATOM     11  C   UNL     1      33.873 -19.128 -21.386  0.00  0.00    +0.004 C 
ATOM     12  C   UNL     1      36.121 -18.246 -21.311  0.00  0.00    +0.004 C 
ATOM     13  C   UNL     1      34.206 -20.061 -20.403  0.00  0.00    +0.011 C 
ATOM     14  C   UNL     1      36.454 -19.179 -20.329  0.00  0.00    +0.011 C 
ATOM     15  C   UNL     1      35.497 -20.087 -19.875  0.00  0.00    +0.058 C 
ENDBRANCH   8  10
ENDBRANCH   2   8
BRANCH   1  16
ATOM     16  O   UNL     1      33.410 -11.879 -21.658  0.00  0.00    -0.472 OA
BRANCH  16  17
ATOM     17  C   UNL     1      32.036 -11.488 -21.659  0.00  0.00    +0.221 C 
ATOM     18  C   UNL     1      31.625 -11.202 -20.219  0.00  0.00    +0.055 C 
ATOM     19  C   UNL     1      31.224 -12.619 -22.282  0.00  0.00    +0.055 C 
BRANCH  17  21
ATOM     20  O   UNL     1      32.851  -9.866 -23.284  0.00  0.00    -0.246 OA
ATOM     21  C   UNL     1      31.970 -10.228 -22.513  0.00  0.00    +0.350 C 
BRANCH  21  22
ATOM     22  O   UNL     1      30.823  -9.521 -22.342  0.00  0.00    -0.478 OA
ATOM     23  H   UNL     1      30.001  -9.968 -22.288  0.00  0.00    +0.295 HD
ENDBRANCH  21  22
ENDBRANCH  17  21
ENDBRANCH  16  17
ENDBRANCH   1  16
TORSDOF 6
ENDMDL
MODEL 9
REMARK VINA RESULT:     -10.7      7.404     10.626
REMARK  Name = 64929
REMARK  6 active torsions:
REMARK  status: ('A' for Active; 'I' for Inactive)
REMARK    1  A    between atoms: C_1  and  O_16
REMARK    2  A    between atoms: C_2  and  C_8
REMARK    3  A    between atoms: C_8  and  C_10
REMARK    4  A    between atoms: O_16  and  C_17
REMARK    5  A    between atoms: C_17  and  C_21
REMARK    6  A    between atoms: C_21  and  O_22
REMARK                            x       y       z     vdW  Elec       q    Type
REMARK                         _______ _______ _______ _____ _____    ______ ____
ROOT
ATOM      1  C   UNL     1      34.574 -16.079 -21.355  0.00  0.00    +0.139 C 
ATOM      2  C   UNL     1      33.441 -13.995 -22.809  0.00  0.00    +0.039 C 
ATOM      3  C   UNL     1      34.727 -16.039 -22.737  0.00  0.00    +0.037 C 
ATOM      4  C   UNL     1      33.858 -15.086 -20.695  0.00  0.00    +0.037 C 
ATOM      5  C   UNL     1      34.159 -14.994 -23.466  0.00  0.00    +0.006 C 
ATOM      6  C   UNL     1      33.290 -14.041 -21.423  0.00  0.00    +0.006 C 
ENDROOT
BRANCH   2   8
ATOM      7  O   UNL     1      32.685 -13.012 -24.794  0.00  0.00    -0.287 OA
ATOM      8  C   UNL     1      32.849 -12.904 -23.569  0.00  0.00    +0.196 C 
BRANCH   8  10
ATOM      9 CL   UNL     1      31.120  -7.800 -21.013  0.00  0.00    -0.082 Cl
ATOM     10  C   UNL     1      32.416 -11.625 -22.929  0.00  0.00    +0.039 C 
ATOM     11  C   UNL     1      32.937 -10.444 -23.402  0.00  0.00    +0.004 C 
ATOM     12  C   UNL     1      31.514 -11.682 -21.892  0.00  0.00    +0.004 C 
ATOM     13  C   UNL     1      32.533  -9.251 -22.803  0.00  0.00    +0.011 C 
ATOM     14  C   UNL     1      31.110 -10.489 -21.294  0.00  0.00    +0.011 C 
ATOM     15  C   UNL     1      31.619  -9.273 -21.750  0.00  0.00    +0.058 C 
ENDBRANCH   8  10
ENDBRANCH   2   8
BRANCH   1  16
ATOM     16  O   UNL     1      35.133 -17.103 -20.640  0.00  0.00    -0.472 OA
BRANCH  16  17
ATOM     17  C   UNL     1      35.346 -18.329 -21.341  0.00  0.00    +0.221 C 
ATOM     18  C   UNL     1      36.752 -18.297 -21.932  0.00  0.00    +0.055 C 
ATOM     19  C   UNL     1      34.268 -18.454 -22.413  0.00  0.00    +0.055 C 
BRANCH  17  21
ATOM     20  O   UNL     1      36.114 -19.786 -19.546  0.00  0.00    -0.246 OA
ATOM     21  C   UNL     1      35.212 -19.427 -20.294  0.00  0.00    +0.350 C 
BRANCH  21  22
ATOM     22  O   UNL     1      33.976 -19.990 -20.261  0.00  0.00    -0.478 OA
ATOM     23  H   UNL     1      33.867 -20.862 -19.936  0.00  0.00    +0.295 HD
ENDBRANCH  21  22
ENDBRANCH  17  21
ENDBRANCH  16  17
ENDBRANCH   1  16
TORSDOF 6
ENDMDL
