MODEL 1
REMARK VINA RESULT:     -13.3      0.000      0.000
REMARK  Name = 25025505
REMARK  6 active torsions:
REMARK  status: ('A' for Active; 'I' for Inactive)
REMARK    1  A    between atoms: C_3  and  C_9
REMARK    2  A    between atoms: C_4  and  C_20
REMARK    3  A    between atoms: C_17  and  C_18
REMARK    4  A    between atoms: C_20  and  O_21
REMARK    5  A    between atoms: O_21  and  C_22
REMARK    6  A    between atoms: C_25  and  N_28
REMARK                            x       y       z     vdW  Elec       q    Type
REMARK                         _______ _______ _______ _____ _____    ______ ____
ROOT
ATOM      1  S   UNL     1      33.362 -15.245 -24.731  0.00  0.00    -0.079 S 
ATOM      2  N   UNL     1      33.889 -15.031 -22.209  0.00  0.00    -0.404 NA
ATOM      3  C   UNL     1      33.309 -14.428 -23.222  0.00  0.00    +0.134 C 
ATOM      4  C   UNL     1      34.418 -16.230 -22.646  0.00  0.00    +0.142 C 
ATOM      5  C   UNL     1      34.233 -16.519 -23.982  0.00  0.00    +0.122 C 
ENDROOT
BRANCH   3   9
ATOM      6  N   UNL     1      32.342 -10.307 -22.363  0.00  0.00    -0.253 N 
ATOM      7  N   UNL     1      32.877  -8.068 -22.762  0.00  0.00    -0.203 NA
ATOM      8  N   UNL     1      31.300  -8.682 -21.047  0.00  0.00    -0.181 NA
ATOM      9  C   UNL     1      32.612 -13.083 -23.136  0.00  0.00    +0.062 C 
ATOM     10  C   UNL     1      32.320 -12.675 -21.684  0.00  0.00    +0.030 C 
ATOM     11  C   UNL     1      33.413 -11.972 -23.830  0.00  0.00    +0.030 C 
ATOM     12  C   UNL     1      31.599 -11.329 -21.616  0.00  0.00    +0.102 C 
ATOM     13  C   UNL     1      32.681 -10.632 -23.755  0.00  0.00    +0.102 C 
ATOM     14  C   UNL     1      32.164  -8.956 -22.043  0.00  0.00    +0.090 C 
ATOM     15  C   UNL     1      32.682  -6.776 -22.427  0.00  0.00    +0.161 C 
ATOM     16  C   UNL     1      31.154  -7.371 -20.764  0.00  0.00    +0.104 C 
ATOM     17  C   UNL     1      31.826  -6.364 -21.426  0.00  0.00    +0.001 C 
BRANCH  17  18
ATOM     18  C   UNL     1      31.639  -4.933 -21.087  0.00  0.00    +0.026 C 
ATOM     19  C   UNL     1      30.174  -4.499 -21.149  0.00  0.00    +0.005 C 
ENDBRANCH  17  18
ENDBRANCH   3   9
BRANCH   4  20
ATOM     20  C   UNL     1      35.123 -17.084 -21.670  0.00  0.00    +0.260 C 
BRANCH  20  21
ATOM     21  O   UNL     1      34.984 -18.457 -22.033  0.00  0.00    -0.468 OA
BRANCH  21  22
ATOM     22  C   UNL     1      34.768 -19.341 -21.012  0.00  0.00    +0.139 C 
ATOM     23  C   UNL     1      33.468 -19.727 -20.685  0.00  0.00    +0.038 C 
ATOM     24  C   UNL     1      35.848 -19.859 -20.297  0.00  0.00    +0.038 C 
ATOM     25  C   UNL     1      34.328 -21.145 -18.930  0.00  0.00    +0.078 C 
ATOM     26  C   UNL     1      33.248 -20.628 -19.644  0.00  0.00    +0.020 C 
ATOM     27  C   UNL     1      35.629 -20.760 -19.256  0.00  0.00    +0.020 C 
BRANCH  25  28
ATOM     28  N   UNL     1      34.111 -22.039 -17.897  0.00  0.00    -0.149 N 
ATOM     29  N   UNL     1      35.046 -22.316 -16.979  0.00  0.00    -0.048 NA
ATOM     30  N   UNL     1      33.193 -23.485 -16.567  0.00  0.00    -0.107 NA
ATOM     31  N   UNL     1      34.480 -23.200 -16.167  0.00  0.00    -0.024 NA
ATOM     32  C   UNL     1      32.985 -22.755 -17.638  0.00  0.00    +0.215 C 
ENDBRANCH  25  28
ENDBRANCH  21  22
ENDBRANCH  20  21
ENDBRANCH   4  20
TORSDOF 6
ENDMDL
MODEL 2
REMARK VINA RESULT:     -13.0      6.460     10.454
REMARK  Name = 25025505
REMARK  6 active torsions:
REMARK  status: ('A' for Active; 'I' for Inactive)
REMARK    1  A    between atoms: C_3  and  C_9
REMARK    2  A    between atoms: C_4  and  C_20
REMARK    3  A    between atoms: C_17  and  C_18
REMARK    4  A    between atoms: C_20  and  O_21
REMARK    5  A    between atoms: O_21  and  C_22
REMARK    6  A    between atoms: C_25  and  N_28
REMARK                            x       y       z     vdW  Elec       q    Type
REMARK                         _______ _______ _______ _____ _____    ______ ____
ROOT
ATOM      1  S   UNL     1      36.156 -23.427 -14.948  0.00  0.00    -0.079 S 
ATOM      2  N   UNL     1      33.602 -23.075 -15.143  0.00  0.00    -0.404 NA
ATOM      3  C   UNL     1      34.737 -22.971 -15.798  0.00  0.00    +0.134 C 
ATOM      4  C   UNL     1      33.863 -23.551 -13.873  0.00  0.00    +0.142 C 
ATOM      5  C   UNL     1      35.188 -23.799 -13.582  0.00  0.00    +0.122 C 
ENDROOT
BRANCH   3   9
ATOM      6  N   UNL     1      34.682 -20.539 -19.368  0.00  0.00    -0.253 N 
ATOM      7  N   UNL     1      35.624 -18.716 -20.484  0.00  0.00    -0.203 NA
ATOM      8  N   UNL     1      33.633 -19.788 -21.315  0.00  0.00    -0.181 NA
ATOM      9  C   UNL     1      34.859 -22.481 -17.229  0.00  0.00    +0.062 C 
ATOM     10  C   UNL     1      33.507 -22.040 -17.807  0.00  0.00    +0.030 C 
ATOM     11  C   UNL     1      35.874 -21.336 -17.364  0.00  0.00    +0.030 C 
ATOM     12  C   UNL     1      33.645 -21.571 -19.256  0.00  0.00    +0.102 C 
ATOM     13  C   UNL     1      36.002 -20.877 -18.816  0.00  0.00    +0.102 C 
ATOM     14  C   UNL     1      34.645 -19.639 -20.440  0.00  0.00    +0.090 C 
ATOM     15  C   UNL     1      35.557 -17.864 -21.528  0.00  0.00    +0.161 C 
ATOM     16  C   UNL     1      33.626 -18.903 -22.334  0.00  0.00    +0.104 C 
ATOM     17  C   UNL     1      34.571 -17.910 -22.493  0.00  0.00    +0.001 C 
BRANCH  17  18
ATOM     18  C   UNL     1      34.532 -16.955 -23.627  0.00  0.00    +0.026 C 
ATOM     19  C   UNL     1      34.495 -15.496 -23.168  0.00  0.00    +0.005 C 
ENDBRANCH  17  18
ENDBRANCH   3   9
BRANCH   4  20
ATOM     20  C   UNL     1      32.726 -23.748 -12.951  0.00  0.00    +0.260 C 
BRANCH  20  21
ATOM     21  O   UNL     1      31.796 -24.672 -13.515  0.00  0.00    -0.468 OA
BRANCH  21  22
ATOM     22  C   UNL     1      30.710 -24.135 -14.151  0.00  0.00    +0.139 C 
ATOM     23  C   UNL     1      30.391 -22.789 -13.972  0.00  0.00    +0.038 C 
ATOM     24  C   UNL     1      29.921 -24.934 -14.978  0.00  0.00    +0.038 C 
ATOM     25  C   UNL     1      28.495 -23.042 -15.446  0.00  0.00    +0.078 C 
ATOM     26  C   UNL     1      29.283 -22.242 -14.620  0.00  0.00    +0.020 C 
ATOM     27  C   UNL     1      28.814 -24.388 -15.627  0.00  0.00    +0.020 C 
BRANCH  25  28
ATOM     28  N   UNL     1      27.396 -22.500 -16.089  0.00  0.00    -0.149 N 
ATOM     29  N   UNL     1      27.144 -22.719 -17.387  0.00  0.00    -0.048 NA
ATOM     30  N   UNL     1      25.572 -21.405 -16.508  0.00  0.00    -0.107 NA
ATOM     31  N   UNL     1      26.027 -22.048 -17.638  0.00  0.00    -0.024 NA
ATOM     32  C   UNL     1      26.433 -21.699 -15.562  0.00  0.00    +0.215 C 
ENDBRANCH  25  28
ENDBRANCH  21  22
ENDBRANCH  20  21
ENDBRANCH   4  20
TORSDOF 6
ENDMDL
MODEL 3
REMARK VINA RESULT:     -13.0      3.508     12.751
REMARK  Name = 25025505
REMARK  6 active torsions:
REMARK  status: ('A' for Active; 'I' for Inactive)
REMARK    1  A    between atoms: C_3  and  C_9
REMARK    2  A    between atoms: C_4  and  C_20
REMARK    3  A    between atoms: C_17  and  C_18
REMARK    4  A    between atoms: C_20  and  O_21
REMARK    5  A    between atoms: O_21  and  C_22
REMARK    6  A    between atoms: C_25  and  N_28
REMARK                            x       y       z     vdW  Elec       q    Type
REMARK                         _______ _______ _______ _____ _____    ______ ____
ROOT
ATOM      1  S   UNL     1      33.296 -20.521 -20.112  0.00  0.00    -0.079 S 
ATOM      2  N   UNL     1      35.729 -19.649 -20.142  0.00  0.00    -0.404 NA
ATOM      3  C   UNL     1      34.921 -20.506 -19.560  0.00  0.00    +0.134 C 
ATOM      4  C   UNL     1      35.022 -18.946 -21.097  0.00  0.00    +0.142 C 
ATOM      5  C   UNL     1      33.690 -19.279 -21.227  0.00  0.00    +0.122 C 
ENDROOT
BRANCH   3   9
ATOM      6  N   UNL     1      35.668 -22.317 -15.710  0.00  0.00    -0.253 N 
ATOM      7  N   UNL     1      34.716 -23.217 -13.776  0.00  0.00    -0.203 NA
ATOM      8  N   UNL     1      37.084 -22.795 -13.915  0.00  0.00    -0.181 NA
ATOM      9  C   UNL     1      35.334 -21.460 -18.454  0.00  0.00    +0.062 C 
ATOM     10  C   UNL     1      36.420 -20.861 -17.549  0.00  0.00    +0.030 C 
ATOM     11  C   UNL     1      34.139 -21.903 -17.597  0.00  0.00    +0.030 C 
ATOM     12  C   UNL     1      36.840 -21.843 -16.455  0.00  0.00    +0.102 C 
ATOM     13  C   UNL     1      34.572 -22.884 -16.508  0.00  0.00    +0.102 C 
ATOM     14  C   UNL     1      35.830 -22.800 -14.406  0.00  0.00    +0.090 C 
ATOM     15  C   UNL     1      34.909 -23.675 -12.521  0.00  0.00    +0.161 C 
ATOM     16  C   UNL     1      37.204 -23.265 -12.656  0.00  0.00    +0.104 C 
ATOM     17  C   UNL     1      36.142 -23.722 -11.903  0.00  0.00    +0.001 C 
BRANCH  17  18
ATOM     18  C   UNL     1      36.313 -24.232 -10.522  0.00  0.00    +0.026 C 
ATOM     19  C   UNL     1      35.070 -24.018  -9.656  0.00  0.00    +0.005 C 
ENDBRANCH  17  18
ENDBRANCH   3   9
BRANCH   4  20
ATOM     20  C   UNL     1      35.734 -17.919 -21.883  0.00  0.00    +0.260 C 
BRANCH  20  21
ATOM     21  O   UNL     1      34.929 -17.506 -22.987  0.00  0.00    -0.468 OA
BRANCH  21  22
ATOM     22  C   UNL     1      34.390 -16.250 -22.916  0.00  0.00    +0.139 C 
ATOM     23  C   UNL     1      33.865 -15.650 -24.060  0.00  0.00    +0.038 C 
ATOM     24  C   UNL     1      34.366 -15.570 -21.699  0.00  0.00    +0.038 C 
ATOM     25  C   UNL     1      33.293 -13.690 -22.770  0.00  0.00    +0.078 C 
ATOM     26  C   UNL     1      33.316 -14.369 -23.987  0.00  0.00    +0.020 C 
ATOM     27  C   UNL     1      33.817 -14.290 -21.625  0.00  0.00    +0.020 C 
BRANCH  25  28
ATOM     28  N   UNL     1      32.748 -12.420 -22.698  0.00  0.00    -0.149 N 
ATOM     29  N   UNL     1      33.103 -11.439 -23.538  0.00  0.00    -0.048 NA
ATOM     30  N   UNL     1      31.573 -10.701 -22.094  0.00  0.00    -0.107 NA
ATOM     31  N   UNL     1      32.381 -10.389 -23.165  0.00  0.00    -0.024 NA
ATOM     32  C   UNL     1      31.816 -11.962 -21.822  0.00  0.00    +0.215 C 
ENDBRANCH  25  28
ENDBRANCH  21  22
ENDBRANCH  20  21
ENDBRANCH   4  20
TORSDOF 6
ENDMDL
MODEL 4
REMARK VINA RESULT:     -12.9      2.362      3.675
REMARK  Name = 25025505
REMARK  6 active torsions:
REMARK  status: ('A' for Active; 'I' for Inactive)
REMARK    1  A    between atoms: C_3  and  C_9
REMARK    2  A    between atoms: C_4  and  C_20
REMARK    3  A    between atoms: C_17  and  C_18
REMARK    4  A    between atoms: C_20  and  O_21
REMARK    5  A    between atoms: O_21  and  C_22
REMARK    6  A    between atoms: C_25  and  N_28
REMARK                            x       y       z     vdW  Elec       q    Type
REMARK                         _______ _______ _______ _____ _____    ______ ____
ROOT
ATOM      1  S   UNL     1      34.072 -17.975 -23.067  0.00  0.00    -0.079 S 
ATOM      2  N   UNL     1      35.303 -17.707 -20.811  0.00  0.00    -0.404 NA
ATOM      3  C   UNL     1      34.712 -17.041 -21.777  0.00  0.00    +0.134 C 
ATOM      4  C   UNL     1      35.253 -19.056 -21.102  0.00  0.00    +0.142 C 
ATOM      5  C   UNL     1      34.625 -19.395 -22.282  0.00  0.00    +0.122 C 
ENDROOT
BRANCH   3   9
ATOM      6  N   UNL     1      33.116 -13.034 -22.012  0.00  0.00    -0.253 N 
ATOM      7  N   UNL     1      31.799 -11.410 -20.971  0.00  0.00    -0.203 NA
ATOM      8  N   UNL     1      32.583 -11.113 -23.229  0.00  0.00    -0.181 NA
ATOM      9  C   UNL     1      34.566 -15.531 -21.815  0.00  0.00    +0.062 C 
ATOM     10  C   UNL     1      33.983 -15.041 -23.149  0.00  0.00    +0.030 C 
ATOM     11  C   UNL     1      33.709 -15.004 -20.655  0.00  0.00    +0.030 C 
ATOM     12  C   UNL     1      33.864 -13.516 -23.179  0.00  0.00    +0.102 C 
ATOM     13  C   UNL     1      33.598 -13.480 -20.697  0.00  0.00    +0.102 C 
ATOM     14  C   UNL     1      32.469 -11.794 -22.073  0.00  0.00    +0.090 C 
ATOM     15  C   UNL     1      31.187 -10.211 -21.065  0.00  0.00    +0.161 C 
ATOM     16  C   UNL     1      31.947  -9.923 -23.255  0.00  0.00    +0.104 C 
ATOM     17  C   UNL     1      31.226  -9.417 -22.193  0.00  0.00    +0.001 C 
BRANCH  17  18
ATOM     18  C   UNL     1      30.540  -8.104 -22.257  0.00  0.00    +0.026 C 
ATOM     19  C   UNL     1      30.753  -7.393 -23.595  0.00  0.00    +0.005 C 
ENDBRANCH  17  18
ENDBRANCH   3   9
BRANCH   4  20
ATOM     20  C   UNL     1      35.862 -20.003 -20.147  0.00  0.00    +0.260 C 
BRANCH  20  21
ATOM     21  O   UNL     1      34.842 -20.750 -19.484  0.00  0.00    -0.468 OA
BRANCH  21  22
ATOM     22  C   UNL     1      35.169 -21.287 -18.269  0.00  0.00    +0.139 C 
ATOM     23  C   UNL     1      34.229 -22.038 -17.562  0.00  0.00    +0.038 C 
ATOM     24  C   UNL     1      36.441 -21.084 -17.735  0.00  0.00    +0.038 C 
ATOM     25  C   UNL     1      35.834 -22.380 -15.790  0.00  0.00    +0.078 C 
ATOM     26  C   UNL     1      34.561 -22.584 -16.322  0.00  0.00    +0.020 C 
ATOM     27  C   UNL     1      36.774 -21.630 -16.496  0.00  0.00    +0.020 C 
BRANCH  25  28
ATOM     28  N   UNL     1      36.164 -22.922 -14.561  0.00  0.00    -0.149 N 
ATOM     29  N   UNL     1      37.194 -22.472 -13.832  0.00  0.00    -0.048 NA
ATOM     30  N   UNL     1      36.174 -24.147 -12.772  0.00  0.00    -0.107 NA
ATOM     31  N   UNL     1      37.195 -23.224 -12.738  0.00  0.00    -0.024 NA
ATOM     32  C   UNL     1      35.548 -23.942 -13.907  0.00  0.00    +0.215 C 
ENDBRANCH  25  28
ENDBRANCH  21  22
ENDBRANCH  20  21
ENDBRANCH   4  20
TORSDOF 6
ENDMDL
MODEL 5
REMARK VINA RESULT:     -12.5      2.220     12.478
REMARK  Name = 25025505
REMARK  6 active torsions:
REMARK  status: ('A' for Active; 'I' for Inactive)
REMARK    1  A    between atoms: C_3  and  C_9
REMARK    2  A    between atoms: C_4  and  C_20
REMARK    3  A    between atoms: C_17  and  C_18
REMARK    4  A    between atoms: C_20  and  O_21
REMARK    5  A    between atoms: O_21  and  C_22
REMARK    6  A    between atoms: C_25  and  N_28
REMARK                            x       y       z     vdW  Elec       q    Type
REMARK                         _______ _______ _______ _____ _____    ______ ____
ROOT
ATOM      1  S   UNL     1      34.103 -19.081 -23.340  0.00  0.00    -0.079 S 
ATOM      2  N   UNL     1      34.662 -17.558 -21.328  0.00  0.00    -0.404 NA
ATOM      3  C   UNL     1      34.519 -18.811 -21.697  0.00  0.00    +0.134 C 
ATOM      4  C   UNL     1      34.429 -16.742 -22.418  0.00  0.00    +0.142 C 
ATOM      5  C   UNL     1      34.112 -17.386 -23.596  0.00  0.00    +0.122 C 
ENDROOT
BRANCH   3   9
ATOM      6  N   UNL     1      34.739 -21.370 -18.224  0.00  0.00    -0.253 N 
ATOM      7  N   UNL     1      33.549 -22.392 -16.493  0.00  0.00    -0.203 NA
ATOM      8  N   UNL     1      35.958 -22.414 -16.527  0.00  0.00    -0.181 NA
ATOM      9  C   UNL     1      34.695 -20.003 -20.775  0.00  0.00    +0.062 C 
ATOM     10  C   UNL     1      35.833 -19.789 -19.765  0.00  0.00    +0.030 C 
ATOM     11  C   UNL     1      33.401 -20.350 -20.024  0.00  0.00    +0.030 C 
ATOM     12  C   UNL     1      36.011 -21.008 -18.859  0.00  0.00    +0.102 C 
ATOM     13  C   UNL     1      33.593 -21.569 -19.123  0.00  0.00    +0.102 C 
ATOM     14  C   UNL     1      34.749 -22.093 -17.025  0.00  0.00    +0.090 C 
ATOM     15  C   UNL     1      33.596 -23.087 -15.337  0.00  0.00    +0.161 C 
ATOM     16  C   UNL     1      35.931 -23.109 -15.371  0.00  0.00    +0.104 C 
ATOM     17  C   UNL     1      34.769 -23.477 -14.724  0.00  0.00    +0.001 C 
BRANCH  17  18
ATOM     18  C   UNL     1      34.779 -24.241 -13.454  0.00  0.00    +0.026 C 
ATOM     19  C   UNL     1      36.116 -24.938 -13.196  0.00  0.00    +0.005 C 
ENDBRANCH  17  18
ENDBRANCH   3   9
BRANCH   4  20
ATOM     20  C   UNL     1      34.535 -15.281 -22.236  0.00  0.00    +0.260 C 
BRANCH  20  21
ATOM     21  O   UNL     1      33.397 -14.794 -21.525  0.00  0.00    -0.468 OA
BRANCH  21  22
ATOM     22  C   UNL     1      33.002 -13.515 -21.804  0.00  0.00    +0.139 C 
ATOM     23  C   UNL     1      33.533 -12.845 -22.907  0.00  0.00    +0.038 C 
ATOM     24  C   UNL     1      32.070 -12.878 -20.985  0.00  0.00    +0.038 C 
ATOM     25  C   UNL     1      32.199 -10.904 -22.371  0.00  0.00    +0.078 C 
ATOM     26  C   UNL     1      33.131 -11.540 -23.190  0.00  0.00    +0.020 C 
ATOM     27  C   UNL     1      31.667 -11.573 -21.268  0.00  0.00    +0.020 C 
BRANCH  25  28
ATOM     28  N   UNL     1      31.800  -9.610 -22.652  0.00  0.00    -0.149 N 
ATOM     29  N   UNL     1      32.636  -8.697 -23.165  0.00  0.00    -0.048 NA
ATOM     30  N   UNL     1      30.614  -7.807 -22.866  0.00  0.00    -0.107 NA
ATOM     31  N   UNL     1      31.906  -7.596 -23.294  0.00  0.00    -0.024 NA
ATOM     32  C   UNL     1      30.570  -9.059 -22.474  0.00  0.00    +0.215 C 
ENDBRANCH  25  28
ENDBRANCH  21  22
ENDBRANCH  20  21
ENDBRANCH   4  20
TORSDOF 6
ENDMDL
MODEL 6
REMARK VINA RESULT:     -12.3      1.352      1.800
REMARK  Name = 25025505
REMARK  6 active torsions:
REMARK  status: ('A' for Active; 'I' for Inactive)
REMARK    1  A    between atoms: C_3  and  C_9
REMARK    2  A    between atoms: C_4  and  C_20
REMARK    3  A    between atoms: C_17  and  C_18
REMARK    4  A    between atoms: C_20  and  O_21
REMARK    5  A    between atoms: O_21  and  C_22
REMARK    6  A    between atoms: C_25  and  N_28
REMARK                            x       y       z     vdW  Elec       q    Type
REMARK                         _______ _______ _______ _____ _____    ______ ____
ROOT
ATOM      1  S   UNL     1      33.576 -14.069 -20.597  0.00  0.00    -0.079 S 
ATOM      2  N   UNL     1      33.534 -14.746 -23.092  0.00  0.00    -0.404 NA
ATOM      3  C   UNL     1      33.203 -13.793 -22.250  0.00  0.00    +0.134 C 
ATOM      4  C   UNL     1      34.127 -15.777 -22.389  0.00  0.00    +0.142 C 
ATOM      5  C   UNL     1      34.237 -15.592 -21.026  0.00  0.00    +0.122 C 
ENDROOT
BRANCH   3   9
ATOM      6  N   UNL     1      32.139  -9.626 -22.648  0.00  0.00    -0.253 N 
ATOM      7  N   UNL     1      32.786  -7.530 -23.451  0.00  0.00    -0.203 NA
ATOM      8  N   UNL     1      30.859  -7.773 -22.026  0.00  0.00    -0.181 NA
ATOM      9  C   UNL     1      32.527 -12.494 -22.647  0.00  0.00    +0.062 C 
ATOM     10  C   UNL     1      31.928 -11.761 -21.437  0.00  0.00    +0.030 C 
ATOM     11  C   UNL     1      33.480 -11.552 -23.397  0.00  0.00    +0.030 C 
ATOM     12  C   UNL     1      31.232 -10.466 -21.857  0.00  0.00    +0.102 C 
ATOM     13  C   UNL     1      32.772 -10.262 -23.811  0.00  0.00    +0.102 C 
ATOM     14  C   UNL     1      31.917  -8.245 -22.712  0.00  0.00    +0.090 C 
ATOM     15  C   UNL     1      32.543  -6.203 -23.490  0.00  0.00    +0.161 C 
ATOM     16  C   UNL     1      30.676  -6.439 -22.108  0.00  0.00    +0.104 C 
ATOM     17  C   UNL     1      31.494  -5.596 -22.831  0.00  0.00    +0.001 C 
BRANCH  17  18
ATOM     18  C   UNL     1      31.261  -4.133 -22.898  0.00  0.00    +0.026 C 
ATOM     19  C   UNL     1      30.201  -3.659 -21.903  0.00  0.00    +0.005 C 
ENDBRANCH  17  18
ENDBRANCH   3   9
BRANCH   4  20
ATOM     20  C   UNL     1      34.583 -16.965 -23.137  0.00  0.00    +0.260 C 
BRANCH  20  21
ATOM     21  O   UNL     1      35.641 -17.610 -22.429  0.00  0.00    -0.468 OA
BRANCH  21  22
ATOM     22  C   UNL     1      35.280 -18.596 -21.553  0.00  0.00    +0.139 C 
ATOM     23  C   UNL     1      36.215 -19.106 -20.651  0.00  0.00    +0.038 C 
ATOM     24  C   UNL     1      33.977 -19.093 -21.560  0.00  0.00    +0.038 C 
ATOM     25  C   UNL     1      34.544 -20.608 -19.767  0.00  0.00    +0.078 C 
ATOM     26  C   UNL     1      35.847 -20.112 -19.759  0.00  0.00    +0.020 C 
ATOM     27  C   UNL     1      33.608 -20.099 -20.667  0.00  0.00    +0.020 C 
BRANCH  25  28
ATOM     28  N   UNL     1      34.179 -21.606 -18.881  0.00  0.00    -0.149 N 
ATOM     29  N   UNL     1      33.203 -22.483 -19.151  0.00  0.00    -0.048 NA
ATOM     30  N   UNL     1      34.075 -22.897 -17.142  0.00  0.00    -0.107 NA
ATOM     31  N   UNL     1      33.144 -23.271 -18.085  0.00  0.00    -0.024 NA
ATOM     32  C   UNL     1      34.705 -21.866 -17.655  0.00  0.00    +0.215 C 
ENDBRANCH  25  28
ENDBRANCH  21  22
ENDBRANCH  20  21
ENDBRANCH   4  20
TORSDOF 6
ENDMDL
MODEL 7
REMARK VINA RESULT:     -12.2      1.271      2.094
REMARK  Name = 25025505
REMARK  6 active torsions:
REMARK  status: ('A' for Active; 'I' for Inactive)
REMARK    1  A    between atoms: C_3  and  C_9
REMARK    2  A    between atoms: C_4  and  C_20
REMARK    3  A    between atoms: C_17  and  C_18
REMARK    4  A    between atoms: C_20  and  O_21
REMARK    5  A    between atoms: O_21  and  C_22
REMARK    6  A    between atoms: C_25  and  N_28
REMARK                            x       y       z     vdW  Elec       q    Type
REMARK                         _______ _______ _______ _____ _____    ______ ____
ROOT
ATOM      1  S   UNL     1      33.509 -16.369 -24.367  0.00  0.00    -0.079 S 
ATOM      2  N   UNL     1      34.566 -16.302 -22.009  0.00  0.00    -0.404 NA
ATOM      3  C   UNL     1      34.082 -15.550 -22.972  0.00  0.00    +0.134 C 
ATOM      4  C   UNL     1      34.482 -17.627 -22.392  0.00  0.00    +0.142 C 
ATOM      5  C   UNL     1      33.937 -17.861 -23.638  0.00  0.00    +0.122 C 
ENDROOT
BRANCH   3   9
ATOM      6  N   UNL     1      32.664 -11.478 -22.726  0.00  0.00    -0.253 N 
ATOM      7  N   UNL     1      31.658  -9.855 -21.379  0.00  0.00    -0.203 NA
ATOM      8  N   UNL     1      31.994  -9.481 -23.736  0.00  0.00    -0.181 NA
ATOM      9  C   UNL     1      34.004 -14.036 -22.921  0.00  0.00    +0.062 C 
ATOM     10  C   UNL     1      33.193 -13.459 -24.091  0.00  0.00    +0.030 C 
ATOM     11  C   UNL     1      33.419 -13.532 -21.593  0.00  0.00    +0.030 C 
ATOM     12  C   UNL     1      33.143 -11.932 -24.036  0.00  0.00    +0.102 C 
ATOM     13  C   UNL     1      33.375 -12.004 -21.552  0.00  0.00    +0.102 C 
ATOM     14  C   UNL     1      32.079 -10.211 -22.608  0.00  0.00    +0.090 C 
ATOM     15  C   UNL     1      31.098  -8.630 -21.302  0.00  0.00    +0.161 C 
ATOM     16  C   UNL     1      31.423  -8.267 -23.586  0.00  0.00    +0.104 C 
ATOM     17  C   UNL     1      30.951  -7.784 -22.383  0.00  0.00    +0.001 C 
BRANCH  17  18
ATOM     18  C   UNL     1      30.330  -6.444 -22.257  0.00  0.00    +0.026 C 
ATOM     19  C   UNL     1      30.917  -5.628 -21.105  0.00  0.00    +0.005 C 
ENDBRANCH  17  18
ENDBRANCH   3   9
BRANCH   4  20
ATOM     20  C   UNL     1      34.972 -18.660 -21.459  0.00  0.00    +0.260 C 
BRANCH  20  21
ATOM     21  O   UNL     1      34.050 -19.748 -21.408  0.00  0.00    -0.468 OA
BRANCH  21  22
ATOM     22  C   UNL     1      34.003 -20.457 -20.239  0.00  0.00    +0.139 C 
ATOM     23  C   UNL     1      35.187 -20.834 -19.603  0.00  0.00    +0.038 C 
ATOM     24  C   UNL     1      32.773 -20.804 -19.682  0.00  0.00    +0.038 C 
ATOM     25  C   UNL     1      33.908 -21.904 -17.856  0.00  0.00    +0.078 C 
ATOM     26  C   UNL     1      35.139 -21.558 -18.412  0.00  0.00    +0.020 C 
ATOM     27  C   UNL     1      32.724 -21.527 -18.491  0.00  0.00    +0.020 C 
BRANCH  25  28
ATOM     28  N   UNL     1      33.861 -22.622 -16.675  0.00  0.00    -0.149 N 
ATOM     29  N   UNL     1      34.966 -23.058 -16.055  0.00  0.00    -0.048 NA
ATOM     30  N   UNL     1      33.152 -23.661 -14.908  0.00  0.00    -0.107 NA
ATOM     31  N   UNL     1      34.527 -23.693 -14.976  0.00  0.00    -0.024 NA
ATOM     32  C   UNL     1      32.760 -22.993 -15.968  0.00  0.00    +0.215 C 
ENDBRANCH  25  28
ENDBRANCH  21  22
ENDBRANCH  20  21
ENDBRANCH   4  20
TORSDOF 6
ENDMDL
MODEL 8
REMARK VINA RESULT:     -11.6      4.584     13.089
REMARK  Name = 25025505
REMARK  6 active torsions:
REMARK  status: ('A' for Active; 'I' for Inactive)
REMARK    1  A    between atoms: C_3  and  C_9
REMARK    2  A    between atoms: C_4  and  C_20
REMARK    3  A    between atoms: C_17  and  C_18
REMARK    4  A    between atoms: C_20  and  O_21
REMARK    5  A    between atoms: O_21  and  C_22
REMARK    6  A    between atoms: C_25  and  N_28
REMARK                            x       y       z     vdW  Elec       q    Type
REMARK                         _______ _______ _______ _____ _____    ______ ____
ROOT
ATOM      1  S   UNL     1      31.496  -8.804 -19.807  0.00  0.00    -0.079 S 
ATOM      2  N   UNL     1      31.169  -8.438 -22.344  0.00  0.00    -0.404 NA
ATOM      3  C   UNL     1      31.392  -9.354 -21.429  0.00  0.00    +0.134 C 
ATOM      4  C   UNL     1      31.070  -7.206 -21.728  0.00  0.00    +0.142 C 
ATOM      5  C   UNL     1      31.221  -7.204 -20.357  0.00  0.00    +0.122 C 
ENDROOT
BRANCH   3   9
ATOM      6  N   UNL     1      33.023 -13.322 -21.933  0.00  0.00    -0.253 N 
ATOM      7  N   UNL     1      33.946 -15.186 -20.870  0.00  0.00    -0.203 NA
ATOM      8  N   UNL     1      33.945 -14.999 -23.272  0.00  0.00    -0.181 NA
ATOM      9  C   UNL     1      31.560 -10.834 -21.719  0.00  0.00    +0.062 C 
ATOM     10  C   UNL     1      32.551 -11.090 -22.864  0.00  0.00    +0.030 C 
ATOM     11  C   UNL     1      31.997 -11.621 -20.475  0.00  0.00    +0.030 C 
ATOM     12  C   UNL     1      32.691 -12.584 -23.158  0.00  0.00    +0.102 C 
ATOM     13  C   UNL     1      32.133 -13.112 -20.783  0.00  0.00    +0.102 C 
ATOM     14  C   UNL     1      33.668 -14.561 -22.030  0.00  0.00    +0.090 C 
ATOM     15  C   UNL     1      34.569 -16.376 -21.000  0.00  0.00    +0.161 C 
ATOM     16  C   UNL     1      34.568 -16.195 -23.328  0.00  0.00    +0.104 C 
ATOM     17  C   UNL     1      34.909 -16.935 -22.215  0.00  0.00    +0.001 C 
BRANCH  17  18
ATOM     18  C   UNL     1      35.593 -18.247 -22.316  0.00  0.00    +0.026 C 
ATOM     19  C   UNL     1      36.269 -18.661 -21.008  0.00  0.00    +0.005 C 
ENDBRANCH  17  18
ENDBRANCH   3   9
BRANCH   4  20
ATOM     20  C   UNL     1      30.819  -6.018 -22.569  0.00  0.00    +0.260 C 
BRANCH  20  21
ATOM     21  O   UNL     1      32.027  -5.279 -22.742  0.00  0.00    -0.468 OA
BRANCH  21  22
ATOM     22  C   UNL     1      32.551  -5.251 -24.005  0.00  0.00    +0.139 C 
ATOM     23  C   UNL     1      33.851  -4.788 -24.212  0.00  0.00    +0.038 C 
ATOM     24  C   UNL     1      31.787  -5.686 -25.088  0.00  0.00    +0.038 C 
ATOM     25  C   UNL     1      33.621  -5.194 -26.581  0.00  0.00    +0.078 C 
ATOM     26  C   UNL     1      34.386  -4.759 -25.500  0.00  0.00    +0.020 C 
ATOM     27  C   UNL     1      32.321  -5.658 -26.376  0.00  0.00    +0.020 C 
BRANCH  25  28
ATOM     28  N   UNL     1      34.151  -5.165 -27.859  0.00  0.00    -0.149 N 
ATOM     29  N   UNL     1      33.444  -5.531 -28.937  0.00  0.00    -0.048 NA
ATOM     30  N   UNL     1      35.498  -4.908 -29.538  0.00  0.00    -0.107 NA
ATOM     31  N   UNL     1      34.273  -5.372 -29.961  0.00  0.00    -0.024 NA
ATOM     32  C   UNL     1      35.400  -4.787 -28.234  0.00  0.00    +0.215 C 
ENDBRANCH  25  28
ENDBRANCH  21  22
ENDBRANCH  20  21
ENDBRANCH   4  20
TORSDOF 6
ENDMDL
MODEL 9
REMARK VINA RESULT:     -10.9      4.437      7.053
REMARK  Name = 25025505
REMARK  6 active torsions:
REMARK  status: ('A' for Active; 'I' for Inactive)
REMARK    1  A    between atoms: C_3  and  C_9
REMARK    2  A    between atoms: C_4  and  C_20
REMARK    3  A    between atoms: C_17  and  C_18
REMARK    4  A    between atoms: C_20  and  O_21
REMARK    5  A    between atoms: O_21  and  C_22
REMARK    6  A    between atoms: C_25  and  N_28
REMARK                            x       y       z     vdW  Elec       q    Type
REMARK                         _______ _______ _______ _____ _____    ______ ____
ROOT
ATOM      1  S   UNL     1      33.397 -20.821 -20.188  0.00  0.00    -0.079 S 
ATOM      2  N   UNL     1      35.710 -20.065 -19.317  0.00  0.00    -0.404 NA
ATOM      3  C   UNL     1      34.802 -19.837 -20.239  0.00  0.00    +0.134 C 
ATOM      4  C   UNL     1      35.273 -21.092 -18.504  0.00  0.00    +0.142 C 
ATOM      5  C   UNL     1      34.042 -21.628 -18.819  0.00  0.00    +0.122 C 
ENDROOT
BRANCH   3   9
ATOM      6  N   UNL     1      34.051 -16.502 -22.880  0.00  0.00    -0.253 N 
ATOM      7  N   UNL     1      33.799 -14.186 -23.051  0.00  0.00    -0.203 NA
ATOM      8  N   UNL     1      33.294 -15.632 -24.911  0.00  0.00    -0.181 NA
ATOM      9  C   UNL     1      34.923 -18.779 -21.321  0.00  0.00    +0.062 C 
ATOM     10  C   UNL     1      33.814 -18.902 -22.376  0.00  0.00    +0.030 C 
ATOM     11  C   UNL     1      34.925 -17.357 -20.740  0.00  0.00    +0.030 C 
ATOM     12  C   UNL     1      33.964 -17.843 -23.469  0.00  0.00    +0.102 C 
ATOM     13  C   UNL     1      35.075 -16.309 -21.843  0.00  0.00    +0.102 C 
ATOM     14  C   UNL     1      33.699 -15.388 -23.650  0.00  0.00    +0.090 C 
ATOM     15  C   UNL     1      33.450 -13.135 -23.822  0.00  0.00    +0.161 C 
ATOM     16  C   UNL     1      32.961 -14.536 -25.624  0.00  0.00    +0.104 C 
ATOM     17  C   UNL     1      33.019 -13.250 -25.127  0.00  0.00    +0.001 C 
BRANCH  17  18
ATOM     18  C   UNL     1      32.644 -12.070 -25.942  0.00  0.00    +0.026 C 
ATOM     19  C   UNL     1      31.613 -12.402 -27.022  0.00  0.00    +0.005 C 
ENDBRANCH  17  18
ENDBRANCH   3   9
BRANCH   4  20
ATOM     20  C   UNL     1      36.140 -21.522 -17.389  0.00  0.00    +0.260 C 
BRANCH  20  21
ATOM     21  O   UNL     1      35.769 -22.831 -16.960  0.00  0.00    -0.468 OA
BRANCH  21  22
ATOM     22  C   UNL     1      35.724 -23.043 -15.610  0.00  0.00    +0.139 C 
ATOM     23  C   UNL     1      34.514 -22.928 -14.925  0.00  0.00    +0.038 C 
ATOM     24  C   UNL     1      36.887 -23.374 -14.916  0.00  0.00    +0.038 C 
ATOM     25  C   UNL     1      35.632 -23.474 -12.855  0.00  0.00    +0.078 C 
ATOM     26  C   UNL     1      34.468 -23.144 -13.548  0.00  0.00    +0.020 C 
ATOM     27  C   UNL     1      36.842 -23.590 -13.539  0.00  0.00    +0.020 C 
BRANCH  25  28
ATOM     28  N   UNL     1      35.586 -23.688 -11.489  0.00  0.00    -0.149 N 
ATOM     29  N   UNL     1      34.808 -24.629 -10.936  0.00  0.00    -0.048 NA
ATOM     30  N   UNL     1      35.943 -23.540  -9.355  0.00  0.00    -0.107 NA
ATOM     31  N   UNL     1      35.031 -24.534  -9.631  0.00  0.00    -0.024 NA
ATOM     32  C   UNL     1      36.274 -23.030 -10.519  0.00  0.00    +0.215 C 
ENDBRANCH  25  28
ENDBRANCH  21  22
ENDBRANCH  20  21
ENDBRANCH   4  20
TORSDOF 6
ENDMDL
