MODEL 1
REMARK VINA RESULT:     -13.1      0.000      0.000
REMARK  Name = 44480399
REMARK  5 active torsions:
REMARK  status: ('A' for Active; 'I' for Inactive)
REMARK    1  A    between atoms: O_1  and  C_9
REMARK    2  A    between atoms: O_1  and  C_20
REMARK    3  A    between atoms: C_5  and  C_14
REMARK    4  A    between atoms: C_23  and  O_27
REMARK    5  A    between atoms: C_25  and  O_29
REMARK                            x       y       z     vdW  Elec       q    Type
REMARK                         _______ _______ _______ _____ _____    ______ ____
ROOT
ATOM      1  O   UNL     1      35.439 -19.886 -20.483  0.00  0.00    -0.439 OA
ENDROOT
BRANCH   1   9
ATOM      2  O   UNL     1      34.397 -15.190 -21.034  0.00  0.00    -0.457 OA
ATOM      3  C   UNL     1      34.227 -16.613 -22.780  0.00  0.00    +0.042 A 
ATOM      4  C   UNL     1      34.544 -16.485 -21.432  0.00  0.00    +0.148 A 
ATOM      5  C   UNL     1      33.866 -15.312 -23.217  0.00  0.00    +0.087 A 
ATOM      6  C   UNL     1      33.985 -14.488 -22.122  0.00  0.00    +0.128 A 
ATOM      7  C   UNL     1      34.323 -17.884 -23.374  0.00  0.00    +0.006 C 
ATOM      8  C   UNL     1      34.954 -17.542 -20.620  0.00  0.00    +0.075 C 
ATOM      9  C   UNL     1      35.041 -18.797 -21.231  0.00  0.00    +0.150 C 
ATOM     10  C   UNL     1      34.732 -18.967 -22.583  0.00  0.00    +0.038 C 
ATOM     11  C   UNL     1      33.762 -13.050 -21.911  0.00  0.00    +0.073 C 
BRANCH   5  14
ATOM     12  O   UNL     1      33.521 -15.666 -25.509  0.00  0.00    -0.270 OA
ATOM     13  N   UNL     1      32.946 -13.585 -24.664  0.00  0.00    -0.299 N 
ATOM     14  C   UNL     1      33.453 -14.892 -24.525  0.00  0.00    +0.249 C 
ATOM     15  C   UNL     1      32.469 -13.024 -25.908  0.00  0.00    +0.111 C 
ATOM     16  H   UNL     1      32.914 -13.017 -23.861  0.00  0.00    +0.150 HD
ENDBRANCH   5  14
ENDBRANCH   1   9
BRANCH   1  20
ATOM     17  N   UNL     1      33.253 -20.593 -20.377  0.00  0.00    -0.214 NA
ATOM     18  N   UNL     1      32.473 -21.895 -18.505  0.00  0.00    -0.248 NA
ATOM     19  C   UNL     1      34.760 -21.176 -18.580  0.00  0.00    +0.141 C 
ATOM     20  C   UNL     1      34.467 -20.567 -19.795  0.00  0.00    +0.212 C 
ATOM     21  C   UNL     1      33.697 -21.848 -17.953  0.00  0.00    +0.072 C 
ATOM     22  C   UNL     1      36.037 -21.135 -17.992  0.00  0.00    +0.029 C 
ATOM     23  C   UNL     1      36.262 -21.766 -16.773  0.00  0.00    +0.169 C 
ATOM     24  C   UNL     1      33.952 -22.472 -16.733  0.00  0.00    +0.055 C 
ATOM     25  C   UNL     1      35.218 -22.435 -16.142  0.00  0.00    +0.173 C 
ATOM     26  C   UNL     1      32.317 -21.264 -19.687  0.00  0.00    +0.253 C 
BRANCH  23  27
ATOM     27  O   UNL     1      37.501 -21.721 -16.210  0.00  0.00    -0.469 OA
ATOM     28  C   UNL     1      38.039 -22.952 -15.728  0.00  0.00    +0.253 C 
ENDBRANCH  23  27
BRANCH  25  29
ATOM     29  O   UNL     1      35.418 -23.061 -14.949  0.00  0.00    -0.468 OA
ATOM     30  C   UNL     1      34.660 -24.244 -14.705  0.00  0.00    +0.253 C 
ENDBRANCH  25  29
ENDBRANCH   1  20
TORSDOF 5
ENDMDL
MODEL 2
REMARK VINA RESULT:     -12.6      2.241      4.054
REMARK  Name = 44480399
REMARK  5 active torsions:
REMARK  status: ('A' for Active; 'I' for Inactive)
REMARK    1  A    between atoms: O_1  and  C_9
REMARK    2  A    between atoms: O_1  and  C_20
REMARK    3  A    between atoms: C_5  and  C_14
REMARK    4  A    between atoms: C_23  and  O_27
REMARK    5  A    between atoms: C_25  and  O_29
REMARK                            x       y       z     vdW  Elec       q    Type
REMARK                         _______ _______ _______ _____ _____    ______ ____
ROOT
ATOM      1  O   UNL     1      33.203 -22.998 -18.274  0.00  0.00    -0.439 OA
ENDROOT
BRANCH   1   9
ATOM      2  O   UNL     1      36.369 -19.961 -20.321  0.00  0.00    -0.457 OA
ATOM      3  C   UNL     1      34.147 -19.646 -20.581  0.00  0.00    +0.042 A 
ATOM      4  C   UNL     1      35.133 -20.443 -20.009  0.00  0.00    +0.148 A 
ATOM      5  C   UNL     1      34.837 -18.621 -21.279  0.00  0.00    +0.087 A 
ATOM      6  C   UNL     1      36.179 -18.857 -21.089  0.00  0.00    +0.128 A 
ATOM      7  C   UNL     1      32.801 -19.990 -20.370  0.00  0.00    +0.006 C 
ATOM      8  C   UNL     1      34.874 -21.572 -19.233  0.00  0.00    +0.075 C 
ATOM      9  C   UNL     1      33.528 -21.894 -19.035  0.00  0.00    +0.150 C 
ATOM     10  C   UNL     1      32.508 -21.119 -19.593  0.00  0.00    +0.038 C 
ATOM     11  C   UNL     1      37.399 -18.172 -21.542  0.00  0.00    +0.073 C 
BRANCH   5  14
ATOM     12  O   UNL     1      33.624 -17.742 -23.084  0.00  0.00    -0.270 OA
ATOM     13  N   UNL     1      34.504 -16.227 -21.566  0.00  0.00    -0.299 N 
ATOM     14  C   UNL     1      34.289 -17.536 -22.041  0.00  0.00    +0.249 C 
ATOM     15  C   UNL     1      33.998 -15.034 -22.207  0.00  0.00    +0.111 C 
ATOM     16  H   UNL     1      35.033 -16.118 -20.742  0.00  0.00    +0.150 HD
ENDBRANCH   5  14
ENDBRANCH   1   9
BRANCH   1  20
ATOM     17  N   UNL     1      31.203 -22.264 -17.408  0.00  0.00    -0.214 NA
ATOM     18  N   UNL     1      30.787 -22.348 -15.036  0.00  0.00    -0.248 NA
ATOM     19  C   UNL     1      32.886 -23.123 -15.900  0.00  0.00    +0.141 C 
ATOM     20  C   UNL     1      32.418 -22.793 -17.168  0.00  0.00    +0.212 C 
ATOM     21  C   UNL     1      32.007 -22.874 -14.833  0.00  0.00    +0.072 C 
ATOM     22  C   UNL     1      34.159 -23.674 -15.675  0.00  0.00    +0.029 C 
ATOM     23  C   UNL     1      34.565 -23.981 -14.381  0.00  0.00    +0.169 C 
ATOM     24  C   UNL     1      32.440 -23.192 -13.547  0.00  0.00    +0.055 C 
ATOM     25  C   UNL     1      33.705 -23.740 -13.315  0.00  0.00    +0.173 C 
ATOM     26  C   UNL     1      30.451 -22.071 -16.312  0.00  0.00    +0.253 C 
BRANCH  23  27
ATOM     27  O   UNL     1      35.800 -24.514 -14.170  0.00  0.00    -0.469 OA
ATOM     28  C   UNL     1      36.910 -23.829 -14.752  0.00  0.00    +0.253 C 
ENDBRANCH  23  27
BRANCH  25  29
ATOM     29  O   UNL     1      34.082 -24.034 -12.039  0.00  0.00    -0.468 OA
ATOM     30  C   UNL     1      35.086 -23.207 -11.455  0.00  0.00    +0.253 C 
ENDBRANCH  25  29
ENDBRANCH   1  20
TORSDOF 5
ENDMDL
MODEL 3
REMARK VINA RESULT:     -12.5      1.905      8.974
REMARK  Name = 44480399
REMARK  5 active torsions:
REMARK  status: ('A' for Active; 'I' for Inactive)
REMARK    1  A    between atoms: O_1  and  C_9
REMARK    2  A    between atoms: O_1  and  C_20
REMARK    3  A    between atoms: C_5  and  C_14
REMARK    4  A    between atoms: C_23  and  O_27
REMARK    5  A    between atoms: C_25  and  O_29
REMARK                            x       y       z     vdW  Elec       q    Type
REMARK                         _______ _______ _______ _____ _____    ______ ____
ROOT
ATOM      1  O   UNL     1      35.613 -18.249 -21.643  0.00  0.00    -0.439 OA
ENDROOT
BRANCH   1   9
ATOM      2  O   UNL     1      36.375 -21.077 -17.788  0.00  0.00    -0.457 OA
ATOM      3  C   UNL     1      34.369 -21.075 -18.828  0.00  0.00    +0.042 A 
ATOM      4  C   UNL     1      35.655 -20.543 -18.814  0.00  0.00    +0.148 A 
ATOM      5  C   UNL     1      34.317 -21.986 -17.741  0.00  0.00    +0.087 A 
ATOM      6  C   UNL     1      35.556 -21.951 -17.145  0.00  0.00    +0.128 A 
ATOM      7  C   UNL     1      33.475 -20.640 -19.821  0.00  0.00    +0.006 C 
ATOM      8  C   UNL     1      36.121 -19.599 -19.727  0.00  0.00    +0.075 C 
ATOM      9  C   UNL     1      35.214 -19.181 -20.706  0.00  0.00    +0.150 C 
ATOM     10  C   UNL     1      33.914 -19.691 -20.754  0.00  0.00    +0.038 C 
ATOM     11  C   UNL     1      36.141 -22.647 -15.990  0.00  0.00    +0.073 C 
BRANCH   5  14
ATOM     12  O   UNL     1      32.906 -23.850 -17.927  0.00  0.00    -0.270 OA
ATOM     13  N   UNL     1      32.512 -22.399 -16.162  0.00  0.00    -0.299 N 
ATOM     14  C   UNL     1      33.218 -22.802 -17.313  0.00  0.00    +0.249 C 
ATOM     15  C   UNL     1      31.399 -23.125 -15.593  0.00  0.00    +0.111 C 
ATOM     16  H   UNL     1      32.797 -21.568 -15.716  0.00  0.00    +0.150 HD
ENDBRANCH   5  14
ENDBRANCH   1   9
BRANCH   1  20
ATOM     17  N   UNL     1      34.626 -19.241 -23.467  0.00  0.00    -0.214 NA
ATOM     18  N   UNL     1      33.310 -17.941 -25.011  0.00  0.00    -0.248 NA
ATOM     19  C   UNL     1      34.323 -16.869 -23.119  0.00  0.00    +0.141 C 
ATOM     20  C   UNL     1      34.838 -18.112 -22.765  0.00  0.00    +0.212 C 
ATOM     21  C   UNL     1      33.541 -16.832 -24.286  0.00  0.00    +0.072 C 
ATOM     22  C   UNL     1      34.557 -15.703 -22.369  0.00  0.00    +0.029 C 
ATOM     23  C   UNL     1      34.013 -14.491 -22.779  0.00  0.00    +0.169 C 
ATOM     24  C   UNL     1      33.008 -15.605 -24.673  0.00  0.00    +0.055 C 
ATOM     25  C   UNL     1      33.237 -14.441 -23.933  0.00  0.00    +0.173 C 
ATOM     26  C   UNL     1      33.865 -19.085 -24.562  0.00  0.00    +0.253 C 
BRANCH  23  27
ATOM     27  O   UNL     1      34.245 -13.366 -22.049  0.00  0.00    -0.469 OA
ATOM     28  C   UNL     1      33.782 -13.362 -20.699  0.00  0.00    +0.253 C 
ENDBRANCH  23  27
BRANCH  25  29
ATOM     29  O   UNL     1      32.693 -13.265 -24.352  0.00  0.00    -0.468 OA
ATOM     30  C   UNL     1      32.658 -13.032 -25.758  0.00  0.00    +0.253 C 
ENDBRANCH  25  29
ENDBRANCH   1  20
TORSDOF 5
ENDMDL
MODEL 4
REMARK VINA RESULT:     -12.5      2.610      4.782
REMARK  Name = 44480399
REMARK  5 active torsions:
REMARK  status: ('A' for Active; 'I' for Inactive)
REMARK    1  A    between atoms: O_1  and  C_9
REMARK    2  A    between atoms: O_1  and  C_20
REMARK    3  A    between atoms: C_5  and  C_14
REMARK    4  A    between atoms: C_23  and  O_27
REMARK    5  A    between atoms: C_25  and  O_29
REMARK                            x       y       z     vdW  Elec       q    Type
REMARK                         _______ _______ _______ _____ _____    ______ ____
ROOT
ATOM      1  O   UNL     1      33.970 -22.469 -17.251  0.00  0.00    -0.439 OA
ENDROOT
BRANCH   1   9
ATOM      2  O   UNL     1      36.486 -19.582 -20.214  0.00  0.00    -0.457 OA
ATOM      3  C   UNL     1      34.264 -19.870 -20.509  0.00  0.00    +0.042 A 
ATOM      4  C   UNL     1      35.373 -20.209 -19.739  0.00  0.00    +0.148 A 
ATOM      5  C   UNL     1      34.745 -18.982 -21.507  0.00  0.00    +0.087 A 
ATOM      6  C   UNL     1      36.095 -18.840 -21.283  0.00  0.00    +0.128 A 
ATOM      7  C   UNL     1      33.018 -20.424 -20.170  0.00  0.00    +0.006 C 
ATOM      8  C   UNL     1      35.331 -21.070 -18.644  0.00  0.00    +0.075 C 
ATOM      9  C   UNL     1      34.081 -21.610 -18.325  0.00  0.00    +0.150 C 
ATOM     10  C   UNL     1      32.944 -21.294 -19.074  0.00  0.00    +0.038 C 
ATOM     11  C   UNL     1      37.155 -18.074 -21.954  0.00  0.00    +0.073 C 
BRANCH   5  14
ATOM     12  O   UNL     1      33.072 -18.921 -23.149  0.00  0.00    -0.270 OA
ATOM     13  N   UNL     1      34.361 -17.013 -22.884  0.00  0.00    -0.299 N 
ATOM     14  C   UNL     1      34.010 -18.337 -22.556  0.00  0.00    +0.249 C 
ATOM     15  C   UNL     1      33.702 -16.222 -23.899  0.00  0.00    +0.111 C 
ATOM     16  H   UNL     1      35.105 -16.599 -22.389  0.00  0.00    +0.150 HD
ENDBRANCH   5  14
ENDBRANCH   1   9
BRANCH   1  20
ATOM     17  N   UNL     1      36.176 -22.011 -16.790  0.00  0.00    -0.214 NA
ATOM     18  N   UNL     1      37.089 -22.443 -14.603  0.00  0.00    -0.248 NA
ATOM     19  C   UNL     1      34.783 -22.933 -15.044  0.00  0.00    +0.141 C 
ATOM     20  C   UNL     1      34.995 -22.473 -16.340  0.00  0.00    +0.212 C 
ATOM     21  C   UNL     1      35.895 -22.898 -14.186  0.00  0.00    +0.072 C 
ATOM     22  C   UNL     1      33.539 -23.411 -14.596  0.00  0.00    +0.029 C 
ATOM     23  C   UNL     1      33.395 -23.857 -13.286  0.00  0.00    +0.169 C 
ATOM     24  C   UNL     1      35.722 -23.350 -12.879  0.00  0.00    +0.055 C 
ATOM     25  C   UNL     1      34.489 -23.827 -12.427  0.00  0.00    +0.173 C 
ATOM     26  C   UNL     1      37.165 -22.025 -15.882  0.00  0.00    +0.253 C 
BRANCH  23  27
ATOM     27  O   UNL     1      32.188 -24.319 -12.860  0.00  0.00    -0.469 OA
ATOM     28  C   UNL     1      31.147 -24.407 -13.833  0.00  0.00    +0.253 C 
ENDBRANCH  23  27
BRANCH  25  29
ATOM     29  O   UNL     1      34.370 -24.258 -11.140  0.00  0.00    -0.468 OA
ATOM     30  C   UNL     1      35.411 -23.893 -10.237  0.00  0.00    +0.253 C 
ENDBRANCH  25  29
ENDBRANCH   1  20
TORSDOF 5
ENDMDL
MODEL 5
REMARK VINA RESULT:     -12.5      3.087      4.889
REMARK  Name = 44480399
REMARK  5 active torsions:
REMARK  status: ('A' for Active; 'I' for Inactive)
REMARK    1  A    between atoms: O_1  and  C_9
REMARK    2  A    between atoms: O_1  and  C_20
REMARK    3  A    between atoms: C_5  and  C_14
REMARK    4  A    between atoms: C_23  and  O_27
REMARK    5  A    between atoms: C_25  and  O_29
REMARK                            x       y       z     vdW  Elec       q    Type
REMARK                         _______ _______ _______ _____ _____    ______ ____
ROOT
ATOM      1  O   UNL     1      33.192 -22.691 -18.437  0.00  0.00    -0.439 OA
ENDROOT
BRANCH   1   9
ATOM      2  O   UNL     1      36.401 -19.760 -20.571  0.00  0.00    -0.457 OA
ATOM      3  C   UNL     1      34.183 -19.410 -20.825  0.00  0.00    +0.042 A 
ATOM      4  C   UNL     1      35.158 -20.212 -20.241  0.00  0.00    +0.148 A 
ATOM      5  C   UNL     1      34.888 -18.413 -21.550  0.00  0.00    +0.087 A 
ATOM      6  C   UNL     1      36.226 -18.669 -21.362  0.00  0.00    +0.128 A 
ATOM      7  C   UNL     1      32.832 -19.724 -20.599  0.00  0.00    +0.006 C 
ATOM      8  C   UNL     1      34.883 -21.317 -19.438  0.00  0.00    +0.075 C 
ATOM      9  C   UNL     1      33.533 -21.611 -19.225  0.00  0.00    +0.150 C 
ATOM     10  C   UNL     1      32.524 -20.830 -19.795  0.00  0.00    +0.038 C 
ATOM     11  C   UNL     1      37.456 -18.018 -21.837  0.00  0.00    +0.073 C 
BRANCH   5  14
ATOM     12  O   UNL     1      33.744 -17.551 -23.407  0.00  0.00    -0.270 OA
ATOM     13  N   UNL     1      34.522 -16.025 -21.844  0.00  0.00    -0.299 N 
ATOM     14  C   UNL     1      34.355 -17.336 -22.333  0.00  0.00    +0.249 C 
ATOM     15  C   UNL     1      34.024 -14.839 -22.504  0.00  0.00    +0.111 C 
ATOM     16  H   UNL     1      35.010 -15.909 -20.996  0.00  0.00    +0.150 HD
ENDBRANCH   5  14
ENDBRANCH   1   9
BRANCH   1  20
ATOM     17  N   UNL     1      34.897 -22.473 -16.909  0.00  0.00    -0.214 NA
ATOM     18  N   UNL     1      34.448 -22.583 -14.545  0.00  0.00    -0.248 NA
ATOM     19  C   UNL     1      32.643 -22.815 -16.107  0.00  0.00    +0.141 C 
ATOM     20  C   UNL     1      33.581 -22.660 -17.123  0.00  0.00    +0.212 C 
ATOM     21  C   UNL     1      33.140 -22.768 -14.793  0.00  0.00    +0.072 C 
ATOM     22  C   UNL     1      31.272 -23.009 -16.354  0.00  0.00    +0.029 C 
ATOM     23  C   UNL     1      30.387 -23.158 -15.292  0.00  0.00    +0.169 C 
ATOM     24  C   UNL     1      32.231 -22.920 -13.748  0.00  0.00    +0.055 C 
ATOM     25  C   UNL     1      30.867 -23.113 -13.987  0.00  0.00    +0.173 C 
ATOM     26  C   UNL     1      35.255 -22.446 -15.616  0.00  0.00    +0.253 C 
BRANCH  23  27
ATOM     27  O   UNL     1      29.062 -23.346 -15.540  0.00  0.00    -0.469 OA
ATOM     28  C   UNL     1      28.351 -22.258 -16.129  0.00  0.00    +0.253 C 
ENDBRANCH  23  27
BRANCH  25  29
ATOM     29  O   UNL     1      30.017 -23.255 -12.932  0.00  0.00    -0.468 OA
ATOM     30  C   UNL     1      29.783 -24.582 -12.464  0.00  0.00    +0.253 C 
ENDBRANCH  25  29
ENDBRANCH   1  20
TORSDOF 5
ENDMDL
MODEL 6
REMARK VINA RESULT:     -12.3      5.272     11.996
REMARK  Name = 44480399
REMARK  5 active torsions:
REMARK  status: ('A' for Active; 'I' for Inactive)
REMARK    1  A    between atoms: O_1  and  C_9
REMARK    2  A    between atoms: O_1  and  C_20
REMARK    3  A    between atoms: C_5  and  C_14
REMARK    4  A    between atoms: C_23  and  O_27
REMARK    5  A    between atoms: C_25  and  O_29
REMARK                            x       y       z     vdW  Elec       q    Type
REMARK                         _______ _______ _______ _____ _____    ______ ____
ROOT
ATOM      1  O   UNL     1      30.704 -10.744 -21.669  0.00  0.00    -0.439 OA
ENDROOT
BRANCH   1   9
ATOM      2  O   UNL     1      33.076 -14.139 -24.178  0.00  0.00    -0.457 OA
ATOM      3  C   UNL     1      33.166 -14.110 -21.920  0.00  0.00    +0.042 A 
ATOM      4  C   UNL     1      32.654 -13.490 -23.056  0.00  0.00    +0.148 A 
ATOM      5  C   UNL     1      33.943 -15.200 -22.393  0.00  0.00    +0.087 A 
ATOM      6  C   UNL     1      33.854 -15.173 -23.765  0.00  0.00    +0.128 A 
ATOM      7  C   UNL     1      32.839 -13.578 -20.661  0.00  0.00    +0.006 C 
ATOM      8  C   UNL     1      31.830 -12.366 -23.029  0.00  0.00    +0.075 C 
ATOM      9  C   UNL     1      31.517 -11.855 -21.766  0.00  0.00    +0.150 C 
ATOM     10  C   UNL     1      32.012 -12.448 -20.601  0.00  0.00    +0.038 C 
ATOM     11  C   UNL     1      34.420 -16.014 -24.830  0.00  0.00    +0.073 C 
BRANCH   5  14
ATOM     12  O   UNL     1      34.580 -16.229 -20.384  0.00  0.00    -0.270 OA
ATOM     13  N   UNL     1      35.527 -17.046 -22.336  0.00  0.00    -0.299 N 
ATOM     14  C   UNL     1      34.687 -16.161 -21.632  0.00  0.00    +0.249 C 
ATOM     15  C   UNL     1      36.321 -18.083 -21.717  0.00  0.00    +0.111 C 
ATOM     16  H   UNL     1      35.576 -16.952 -23.316  0.00  0.00    +0.150 HD
ENDBRANCH   5  14
ENDBRANCH   1   9
BRANCH   1  20
ATOM     17  N   UNL     1      31.107  -9.977 -19.539  0.00  0.00    -0.214 NA
ATOM     18  N   UNL     1      31.952  -7.751 -19.174  0.00  0.00    -0.248 NA
ATOM     19  C   UNL     1      31.545  -8.513 -21.411  0.00  0.00    +0.141 C 
ATOM     20  C   UNL     1      31.128  -9.721 -20.860  0.00  0.00    +0.212 C 
ATOM     21  C   UNL     1      31.961  -7.528 -20.499  0.00  0.00    +0.072 C 
ATOM     22  C   UNL     1      31.559  -8.269 -22.796  0.00  0.00    +0.029 C 
ATOM     23  C   UNL     1      31.988  -7.038 -23.280  0.00  0.00    +0.169 C 
ATOM     24  C   UNL     1      32.386  -6.305 -21.013  0.00  0.00    +0.055 C 
ATOM     25  C   UNL     1      32.402  -6.054 -22.388  0.00  0.00    +0.173 C 
ATOM     26  C   UNL     1      31.526  -8.963 -18.765  0.00  0.00    +0.253 C 
BRANCH  23  27
ATOM     27  O   UNL     1      31.997  -6.808 -24.622  0.00  0.00    -0.469 OA
ATOM     28  C   UNL     1      30.735  -6.795 -25.287  0.00  0.00    +0.253 C 
ENDBRANCH  23  27
BRANCH  25  29
ATOM     29  O   UNL     1      32.827  -4.842 -22.842  0.00  0.00    -0.468 OA
ATOM     30  C   UNL     1      31.851  -3.807 -22.934  0.00  0.00    +0.253 C 
ENDBRANCH  25  29
ENDBRANCH   1  20
TORSDOF 5
ENDMDL
MODEL 7
REMARK VINA RESULT:     -12.2      4.407     11.278
REMARK  Name = 44480399
REMARK  5 active torsions:
REMARK  status: ('A' for Active; 'I' for Inactive)
REMARK    1  A    between atoms: O_1  and  C_9
REMARK    2  A    between atoms: O_1  and  C_20
REMARK    3  A    between atoms: C_5  and  C_14
REMARK    4  A    between atoms: C_23  and  O_27
REMARK    5  A    between atoms: C_25  and  O_29
REMARK                            x       y       z     vdW  Elec       q    Type
REMARK                         _______ _______ _______ _____ _____    ______ ____
ROOT
ATOM      1  O   UNL     1      33.119 -11.715 -23.562  0.00  0.00    -0.439 OA
ENDROOT
BRANCH   1   9
ATOM      2  O   UNL     1      33.572 -16.435 -24.544  0.00  0.00    -0.457 OA
ATOM      3  C   UNL     1      34.081 -15.638 -22.492  0.00  0.00    +0.042 A 
ATOM      4  C   UNL     1      33.632 -15.315 -23.769  0.00  0.00    +0.148 A 
ATOM      5  C   UNL     1      34.303 -17.039 -22.504  0.00  0.00    +0.087 A 
ATOM      6  C   UNL     1      33.979 -17.474 -23.768  0.00  0.00    +0.128 A 
ATOM      7  C   UNL     1      34.211 -14.606 -21.547  0.00  0.00    +0.006 C 
ATOM      8  C   UNL     1      33.299 -14.025 -24.178  0.00  0.00    +0.075 C 
ATOM      9  C   UNL     1      33.434 -13.015 -23.222  0.00  0.00    +0.150 C 
ATOM     10  C   UNL     1      33.883 -13.297 -21.929  0.00  0.00    +0.038 C 
ATOM     11  C   UNL     1      33.990 -18.793 -24.417  0.00  0.00    +0.073 C 
BRANCH   5  14
ATOM     12  O   UNL     1      35.692 -17.509 -20.674  0.00  0.00    -0.270 OA
ATOM     13  N   UNL     1      34.136 -19.125 -21.260  0.00  0.00    -0.299 N 
ATOM     14  C   UNL     1      34.768 -17.878 -21.438  0.00  0.00    +0.249 C 
ATOM     15  C   UNL     1      34.475 -20.070 -20.220  0.00  0.00    +0.111 C 
ATOM     16  H   UNL     1      33.417 -19.368 -21.887  0.00  0.00    +0.150 HD
ENDBRANCH   5  14
ENDBRANCH   1   9
BRANCH   1  20
ATOM     17  N   UNL     1      31.367 -11.807 -22.075  0.00  0.00    -0.214 NA
ATOM     18  N   UNL     1      30.492  -9.794 -21.082  0.00  0.00    -0.248 NA
ATOM     19  C   UNL     1      32.320  -9.656 -22.629  0.00  0.00    +0.141 C 
ATOM     20  C   UNL     1      32.252 -11.041 -22.740  0.00  0.00    +0.212 C 
ATOM     21  C   UNL     1      31.389  -9.059 -21.761  0.00  0.00    +0.072 C 
ATOM     22  C   UNL     1      33.255  -8.877 -23.334  0.00  0.00    +0.029 C 
ATOM     23  C   UNL     1      33.267  -7.496 -23.177  0.00  0.00    +0.169 C 
ATOM     24  C   UNL     1      31.426  -7.673 -21.624  0.00  0.00    +0.055 C 
ATOM     25  C   UNL     1      32.352  -6.892 -22.321  0.00  0.00    +0.173 C 
ATOM     26  C   UNL     1      30.529 -11.127 -21.276  0.00  0.00    +0.253 C 
BRANCH  23  27
ATOM     27  O   UNL     1      34.175  -6.748 -23.864  0.00  0.00    -0.469 OA
ATOM     28  C   UNL     1      33.780  -6.267 -25.148  0.00  0.00    +0.253 C 
ENDBRANCH  23  27
BRANCH  25  29
ATOM     29  O   UNL     1      32.348  -5.540 -22.152  0.00  0.00    -0.468 OA
ATOM     30  C   UNL     1      31.807  -5.043 -20.930  0.00  0.00    +0.253 C 
ENDBRANCH  25  29
ENDBRANCH   1  20
TORSDOF 5
ENDMDL
MODEL 8
REMARK VINA RESULT:     -11.2      4.905      8.834
REMARK  Name = 44480399
REMARK  5 active torsions:
REMARK  status: ('A' for Active; 'I' for Inactive)
REMARK    1  A    between atoms: O_1  and  C_9
REMARK    2  A    between atoms: O_1  and  C_20
REMARK    3  A    between atoms: C_5  and  C_14
REMARK    4  A    between atoms: C_23  and  O_27
REMARK    5  A    between atoms: C_25  and  O_29
REMARK                            x       y       z     vdW  Elec       q    Type
REMARK                         _______ _______ _______ _____ _____    ______ ____
ROOT
ATOM      1  O   UNL     1      33.216 -12.278 -22.407  0.00  0.00    -0.439 OA
ENDROOT
BRANCH   1   9
ATOM      2  O   UNL     1      34.149  -7.764 -23.890  0.00  0.00    -0.457 OA
ATOM      3  C   UNL     1      32.122  -8.297 -23.045  0.00  0.00    +0.042 A 
ATOM      4  C   UNL     1      33.391  -8.769 -23.367  0.00  0.00    +0.148 A 
ATOM      5  C   UNL     1      32.122  -6.922 -23.396  0.00  0.00    +0.087 A 
ATOM      6  C   UNL     1      33.372  -6.650 -23.902  0.00  0.00    +0.128 A 
ATOM      7  C   UNL     1      31.193  -9.195 -22.491  0.00  0.00    +0.006 C 
ATOM      8  C   UNL     1      33.807 -10.085 -23.176  0.00  0.00    +0.075 C 
ATOM      9  C   UNL     1      32.867 -10.961 -22.624  0.00  0.00    +0.150 C 
ATOM     10  C   UNL     1      31.583 -10.526 -22.287  0.00  0.00    +0.038 C 
ATOM     11  C   UNL     1      34.003  -5.434 -24.435  0.00  0.00    +0.073 C 
BRANCH   5  14
ATOM     12  O   UNL     1      30.252  -5.761 -24.206  0.00  0.00    -0.270 OA
ATOM     13  N   UNL     1      30.933  -5.286 -22.041  0.00  0.00    -0.299 N 
ATOM     14  C   UNL     1      31.058  -5.969 -23.268  0.00  0.00    +0.249 C 
ATOM     15  C   UNL     1      29.903  -4.315 -21.750  0.00  0.00    +0.111 C 
ATOM     16  H   UNL     1      31.592  -5.484 -21.336  0.00  0.00    +0.150 HD
ENDBRANCH   5  14
ENDBRANCH   1   9
BRANCH   1  20
ATOM     17  N   UNL     1      32.728 -12.587 -24.633  0.00  0.00    -0.214 NA
ATOM     18  N   UNL     1      33.079 -14.727 -25.682  0.00  0.00    -0.248 NA
ATOM     19  C   UNL     1      33.600 -14.446 -23.358  0.00  0.00    +0.141 C 
ATOM     20  C   UNL     1      33.182 -13.125 -23.485  0.00  0.00    +0.212 C 
ATOM     21  C   UNL     1      33.527 -15.232 -24.520  0.00  0.00    +0.072 C 
ATOM     22  C   UNL     1      34.071 -14.985 -22.148  0.00  0.00    +0.029 C 
ATOM     23  C   UNL     1      34.473 -16.315 -22.089  0.00  0.00    +0.169 C 
ATOM     24  C   UNL     1      33.936 -16.561 -24.432  0.00  0.00    +0.055 C 
ATOM     25  C   UNL     1      34.405 -17.105 -23.232  0.00  0.00    +0.173 C 
ATOM     26  C   UNL     1      32.703 -13.432 -25.675  0.00  0.00    +0.253 C 
BRANCH  23  27
ATOM     27  O   UNL     1      34.927 -16.830 -20.913  0.00  0.00    -0.469 OA
ATOM     28  C   UNL     1      35.897 -17.874 -20.995  0.00  0.00    +0.253 C 
ENDBRANCH  23  27
BRANCH  25  29
ATOM     29  O   UNL     1      34.795 -18.409 -23.197  0.00  0.00    -0.468 OA
ATOM     30  C   UNL     1      34.092 -19.318 -24.042  0.00  0.00    +0.253 C 
ENDBRANCH  25  29
ENDBRANCH   1  20
TORSDOF 5
ENDMDL
MODEL 9
REMARK VINA RESULT:     -11.1      5.077     11.561
REMARK  Name = 44480399
REMARK  5 active torsions:
REMARK  status: ('A' for Active; 'I' for Inactive)
REMARK    1  A    between atoms: O_1  and  C_9
REMARK    2  A    between atoms: O_1  and  C_20
REMARK    3  A    between atoms: C_5  and  C_14
REMARK    4  A    between atoms: C_23  and  O_27
REMARK    5  A    between atoms: C_25  and  O_29
REMARK                            x       y       z     vdW  Elec       q    Type
REMARK                         _______ _______ _______ _____ _____    ______ ____
ROOT
ATOM      1  O   UNL     1      32.859 -10.742 -23.715  0.00  0.00    -0.439 OA
ENDROOT
BRANCH   1   9
ATOM      2  O   UNL     1      34.387 -14.802 -21.564  0.00  0.00    -0.457 OA
ATOM      3  C   UNL     1      33.554 -14.861 -23.664  0.00  0.00    +0.042 A 
ATOM      4  C   UNL     1      33.860 -14.052 -22.574  0.00  0.00    +0.148 A 
ATOM      5  C   UNL     1      33.923 -16.177 -23.283  0.00  0.00    +0.087 A 
ATOM      6  C   UNL     1      34.422 -16.087 -22.004  0.00  0.00    +0.128 A 
ATOM      7  C   UNL     1      32.995 -14.263 -24.806  0.00  0.00    +0.006 C 
ATOM      8  C   UNL     1      33.648 -12.675 -22.537  0.00  0.00    +0.075 C 
ATOM      9  C   UNL     1      33.092 -12.101 -23.685  0.00  0.00    +0.150 C 
ATOM     10  C   UNL     1      32.771 -12.879 -24.800  0.00  0.00    +0.038 C 
ATOM     11  C   UNL     1      34.963 -17.074 -21.059  0.00  0.00    +0.073 C 
BRANCH   5  14
ATOM     12  O   UNL     1      33.228 -17.414 -25.150  0.00  0.00    -0.270 OA
ATOM     13  N   UNL     1      34.417 -18.549 -23.515  0.00  0.00    -0.299 N 
ATOM     14  C   UNL     1      33.816 -17.389 -24.043  0.00  0.00    +0.249 C 
ATOM     15  C   UNL     1      34.416 -19.838 -24.170  0.00  0.00    +0.111 C 
ATOM     16  H   UNL     1      34.866 -18.477 -22.642  0.00  0.00    +0.150 HD
ENDBRANCH   5  14
ENDBRANCH   1   9
BRANCH   1  20
ATOM     17  N   UNL     1      31.359 -11.079 -22.004  0.00  0.00    -0.214 NA
ATOM     18  N   UNL     1      30.622  -9.237 -20.636  0.00  0.00    -0.248 NA
ATOM     19  C   UNL     1      32.188  -8.845 -22.411  0.00  0.00    +0.141 C 
ATOM     20  C   UNL     1      32.122 -10.206 -22.690  0.00  0.00    +0.212 C 
ATOM     21  C   UNL     1      31.395  -8.393 -21.342  0.00  0.00    +0.072 C 
ATOM     22  C   UNL     1      32.992  -7.952 -23.141  0.00  0.00    +0.029 C 
ATOM     23  C   UNL     1      33.012  -6.602 -22.810  0.00  0.00    +0.169 C 
ATOM     24  C   UNL     1      31.435  -7.036 -21.032  0.00  0.00    +0.055 C 
ATOM     25  C   UNL     1      32.232  -6.143 -21.754  0.00  0.00    +0.173 C 
ATOM     26  C   UNL     1      30.646 -10.533 -21.006  0.00  0.00    +0.253 C 
BRANCH  23  27
ATOM     27  O   UNL     1      33.793  -5.745 -23.522  0.00  0.00    -0.469 OA
ATOM     28  C   UNL     1      33.888  -5.970 -24.928  0.00  0.00    +0.253 C 
ENDBRANCH  23  27
BRANCH  25  29
ATOM     29  O   UNL     1      32.237  -4.824 -21.411  0.00  0.00    -0.468 OA
ATOM     30  C   UNL     1      31.188  -4.015 -21.939  0.00  0.00    +0.253 C 
ENDBRANCH  25  29
ENDBRANCH   1  20
TORSDOF 5
ENDMDL
