MODEL 1
REMARK VINA RESULT:     -11.3      0.000      0.000
REMARK  Name = 49853967
REMARK  7 active torsions:
REMARK  status: ('A' for Active; 'I' for Inactive)
REMARK    1  A    between atoms: O_1  and  C_2
REMARK    2  A    between atoms: O_1  and  C_17
REMARK    3  A    between atoms: C_7  and  C_9
REMARK    4  A    between atoms: C_12  and  C_14
REMARK    5  A    between atoms: C_16  and  N_20
REMARK    6  A    between atoms: N_20  and  S_22
REMARK    7  A    between atoms: S_22  and  C_25
REMARK                            x       y       z     vdW  Elec       q    Type
REMARK                         _______ _______ _______ _____ _____    ______ ____
ROOT
ATOM      1  O   UNL     1      34.486 -22.740 -17.240  0.00  0.00    -0.475 OA
ENDROOT
BRANCH   1   2
ATOM      2  C   UNL     1      34.443 -21.816 -18.258  0.00  0.00    +0.139 C 
ATOM      3  C   UNL     1      33.216 -21.436 -18.803  0.00  0.00    +0.037 C 
ATOM      4  C   UNL     1      35.624 -21.262 -18.748  0.00  0.00    +0.037 C 
ATOM      5  C   UNL     1      33.172 -20.502 -19.838  0.00  0.00    +0.004 C 
ATOM      6  C   UNL     1      35.581 -20.327 -19.782  0.00  0.00    +0.004 C 
ATOM      7  C   UNL     1      34.354 -19.948 -20.327  0.00  0.00    +0.006 C 
BRANCH   7   9
ATOM      8  S   UNL     1      34.596 -17.333 -21.039  0.00  0.00    -0.077 S 
ATOM      9  C   UNL     1      34.309 -18.982 -21.398  0.00  0.00    +0.030 C 
ATOM     10  C   UNL     1      34.057 -19.183 -22.737  0.00  0.00    +0.008 C 
ATOM     11  C   UNL     1      34.101 -17.968 -23.479  0.00  0.00    +0.017 C 
ATOM     12  C   UNL     1      34.384 -16.883 -22.678  0.00  0.00    +0.098 C 
BRANCH  12  14
ATOM     13  N   UNL     1      34.584 -14.444 -23.510  0.00  0.00    -0.190 NA
ATOM     14  C   UNL     1      34.494 -15.540 -23.136  0.00  0.00    +0.107 C 
ENDBRANCH  12  14
ENDBRANCH   7   9
ENDBRANCH   1   2
BRANCH   1  17
ATOM     15  O   UNL     1      36.171 -24.040 -15.141  0.00  0.00    -0.348 OA
ATOM     16  C   UNL     1      34.057 -23.012 -14.876  0.00  0.00    +0.147 C 
ATOM     17  C   UNL     1      34.828 -22.264 -15.941  0.00  0.00    +0.214 C 
ATOM     18  C   UNL     1      34.804 -24.328 -14.803  0.00  0.00    +0.163 C 
ATOM     19  C   UNL     1      36.250 -22.686 -15.626  0.00  0.00    +0.187 C 
BRANCH  16  20
ATOM     20  N   UNL     1      32.641 -23.207 -15.229  0.00  0.00    -0.179 NA
ATOM     21  H   UNL     1      32.312 -22.334 -15.643  0.00  0.00    +0.149 HD
BRANCH  20  22
ATOM     22  S   UNL     1      31.539 -23.624 -14.001  0.00  0.00    +0.039 S 
ATOM     23  O   UNL     1      31.766 -22.800 -12.829  0.00  0.00    -0.158 OA
ATOM     24  O   UNL     1      31.505 -25.070 -13.896  0.00  0.00    -0.158 OA
BRANCH  22  25
ATOM     25  C   UNL     1      30.007 -23.109 -14.743  0.00  0.00    +0.146 C 
ATOM     26  C   UNL     1      30.252 -22.594 -16.154  0.00  0.00    +0.027 C 
ATOM     27  C   UNL     1      29.007 -24.254 -14.734  0.00  0.00    +0.027 C 
ENDBRANCH  22  25
ENDBRANCH  20  22
ENDBRANCH  16  20
ENDBRANCH   1  17
TORSDOF 7
ENDMDL
MODEL 2
REMARK VINA RESULT:     -11.0      0.975      1.451
REMARK  Name = 49853967
REMARK  7 active torsions:
REMARK  status: ('A' for Active; 'I' for Inactive)
REMARK    1  A    between atoms: O_1  and  C_2
REMARK    2  A    between atoms: O_1  and  C_17
REMARK    3  A    between atoms: C_7  and  C_9
REMARK    4  A    between atoms: C_12  and  C_14
REMARK    5  A    between atoms: C_16  and  N_20
REMARK    6  A    between atoms: N_20  and  S_22
REMARK    7  A    between atoms: S_22  and  C_25
REMARK                            x       y       z     vdW  Elec       q    Type
REMARK                         _______ _______ _______ _____ _____    ______ ____
ROOT
ATOM      1  O   UNL     1      34.374 -22.949 -16.929  0.00  0.00    -0.475 OA
ENDROOT
BRANCH   1   2
ATOM      2  C   UNL     1      34.476 -22.019 -17.938  0.00  0.00    +0.139 C 
ATOM      3  C   UNL     1      35.722 -21.486 -18.271  0.00  0.00    +0.037 C 
ATOM      4  C   UNL     1      33.336 -21.607 -18.625  0.00  0.00    +0.037 C 
ATOM      5  C   UNL     1      35.826 -20.541 -19.291  0.00  0.00    +0.004 C 
ATOM      6  C   UNL     1      33.439 -20.662 -19.646  0.00  0.00    +0.004 C 
ATOM      7  C   UNL     1      34.685 -20.129 -19.978  0.00  0.00    +0.006 C 
BRANCH   7   9
ATOM      8  S   UNL     1      33.500 -18.985 -22.144  0.00  0.00    -0.077 S 
ATOM      9  C   UNL     1      34.792 -19.151 -21.033  0.00  0.00    +0.030 C 
ATOM     10  C   UNL     1      35.823 -18.280 -21.307  0.00  0.00    +0.008 C 
ATOM     11  C   UNL     1      35.550 -17.466 -22.443  0.00  0.00    +0.017 C 
ATOM     12  C   UNL     1      34.319 -17.746 -22.995  0.00  0.00    +0.098 C 
BRANCH  12  14
ATOM     13  N   UNL     1      33.326 -16.562 -25.068  0.00  0.00    -0.190 NA
ATOM     14  C   UNL     1      33.772 -17.094 -24.137  0.00  0.00    +0.107 C 
ENDBRANCH  12  14
ENDBRANCH   7   9
ENDBRANCH   1   2
BRANCH   1  17
ATOM     15  O   UNL     1      35.870 -24.405 -14.790  0.00  0.00    -0.348 OA
ATOM     16  C   UNL     1      33.834 -23.219 -14.587  0.00  0.00    +0.147 C 
ATOM     17  C   UNL     1      34.701 -22.519 -15.610  0.00  0.00    +0.214 C 
ATOM     18  C   UNL     1      34.474 -24.590 -14.508  0.00  0.00    +0.163 C 
ATOM     19  C   UNL     1      36.073 -23.055 -15.249  0.00  0.00    +0.187 C 
BRANCH  16  20
ATOM     20  N   UNL     1      32.422 -23.298 -14.996  0.00  0.00    -0.179 NA
ATOM     21  H   UNL     1      32.167 -22.385 -15.373  0.00  0.00    +0.149 HD
BRANCH  20  22
ATOM     22  S   UNL     1      31.251 -23.701 -13.828  0.00  0.00    +0.039 S 
ATOM     23  O   UNL     1      31.429 -22.883 -12.644  0.00  0.00    -0.158 OA
ATOM     24  O   UNL     1      31.191 -25.146 -13.730  0.00  0.00    -0.158 OA
BRANCH  22  25
ATOM     25  C   UNL     1      29.768 -23.161 -14.648  0.00  0.00    +0.146 C 
ATOM     26  C   UNL     1      30.102 -22.586 -16.017  0.00  0.00    +0.027 C 
ATOM     27  C   UNL     1      28.778 -24.311 -14.753  0.00  0.00    +0.027 C 
ENDBRANCH  22  25
ENDBRANCH  20  22
ENDBRANCH  16  20
ENDBRANCH   1  17
TORSDOF 7
ENDMDL
MODEL 3
REMARK VINA RESULT:      -9.6      2.619      4.485
REMARK  Name = 49853967
REMARK  7 active torsions:
REMARK  status: ('A' for Active; 'I' for Inactive)
REMARK    1  A    between atoms: O_1  and  C_2
REMARK    2  A    between atoms: O_1  and  C_17
REMARK    3  A    between atoms: C_7  and  C_9
REMARK    4  A    between atoms: C_12  and  C_14
REMARK    5  A    between atoms: C_16  and  N_20
REMARK    6  A    between atoms: N_20  and  S_22
REMARK    7  A    between atoms: S_22  and  C_25
REMARK                            x       y       z     vdW  Elec       q    Type
REMARK                         _______ _______ _______ _____ _____    ______ ____
ROOT
ATOM      1  O   UNL     1      35.393 -22.616 -15.745  0.00  0.00    -0.475 OA
ENDROOT
BRANCH   1   2
ATOM      2  C   UNL     1      35.363 -21.890 -16.913  0.00  0.00    +0.139 C 
ATOM      3  C   UNL     1      36.421 -21.037 -17.230  0.00  0.00    +0.037 C 
ATOM      4  C   UNL     1      34.275 -22.002 -17.777  0.00  0.00    +0.037 C 
ATOM      5  C   UNL     1      36.390 -20.297 -18.412  0.00  0.00    +0.004 C 
ATOM      6  C   UNL     1      34.244 -21.263 -18.959  0.00  0.00    +0.004 C 
ATOM      7  C   UNL     1      35.301 -20.410 -19.276  0.00  0.00    +0.006 C 
BRANCH   7   9
ATOM      8  S   UNL     1      33.838 -19.646 -21.440  0.00  0.00    -0.077 S 
ATOM      9  C   UNL     1      35.268 -19.645 -20.499  0.00  0.00    +0.030 C 
ATOM     10  C   UNL     1      36.257 -18.869 -21.063  0.00  0.00    +0.008 C 
ATOM     11  C   UNL     1      35.835 -18.269 -22.284  0.00  0.00    +0.017 C 
ATOM     12  C   UNL     1      34.540 -18.608 -22.606  0.00  0.00    +0.098 C 
BRANCH  12  14
ATOM     13  N   UNL     1      33.280 -17.793 -24.712  0.00  0.00    -0.190 NA
ATOM     14  C   UNL     1      33.846 -18.159 -23.766  0.00  0.00    +0.107 C 
ENDBRANCH  12  14
ENDBRANCH   7   9
ENDBRANCH   1   2
BRANCH   1  17
ATOM     15  O   UNL     1      33.547 -23.350 -13.511  0.00  0.00    -0.348 OA
ATOM     16  C   UNL     1      35.041 -24.760 -14.683  0.00  0.00    +0.147 C 
ATOM     17  C   UNL     1      34.501 -23.724 -15.643  0.00  0.00    +0.214 C 
ATOM     18  C   UNL     1      34.734 -24.140 -13.335  0.00  0.00    +0.163 C 
ATOM     19  C   UNL     1      33.248 -23.276 -14.918  0.00  0.00    +0.187 C 
BRANCH  16  20
ATOM     20  N   UNL     1      36.483 -25.001 -14.857  0.00  0.00    -0.179 NA
ATOM     21  H   UNL     1      36.618 -25.343 -15.809  0.00  0.00    +0.149 HD
BRANCH  20  22
ATOM     22  S   UNL     1      37.262 -26.101 -13.817  0.00  0.00    +0.039 S 
ATOM     23  O   UNL     1      37.699 -27.265 -14.563  0.00  0.00    -0.158 OA
ATOM     24  O   UNL     1      36.451 -26.246 -12.623  0.00  0.00    -0.158 OA
BRANCH  22  25
ATOM     25  C   UNL     1      38.706 -25.165 -13.368  0.00  0.00    +0.146 C 
ATOM     26  C   UNL     1      39.530 -24.841 -14.606  0.00  0.00    +0.027 C 
ATOM     27  C   UNL     1      38.304 -23.903 -12.621  0.00  0.00    +0.027 C 
ENDBRANCH  22  25
ENDBRANCH  20  22
ENDBRANCH  16  20
ENDBRANCH   1  17
TORSDOF 7
ENDMDL
MODEL 4
REMARK VINA RESULT:      -9.5      2.641      3.815
REMARK  Name = 49853967
REMARK  7 active torsions:
REMARK  status: ('A' for Active; 'I' for Inactive)
REMARK    1  A    between atoms: O_1  and  C_2
REMARK    2  A    between atoms: O_1  and  C_17
REMARK    3  A    between atoms: C_7  and  C_9
REMARK    4  A    between atoms: C_12  and  C_14
REMARK    5  A    between atoms: C_16  and  N_20
REMARK    6  A    between atoms: N_20  and  S_22
REMARK    7  A    between atoms: S_22  and  C_25
REMARK                            x       y       z     vdW  Elec       q    Type
REMARK                         _______ _______ _______ _____ _____    ______ ____
ROOT
ATOM      1  O   UNL     1      35.207 -22.441 -17.493  0.00  0.00    -0.475 OA
ENDROOT
BRANCH   1   2
ATOM      2  C   UNL     1      35.015 -21.533 -18.507  0.00  0.00    +0.139 C 
ATOM      3  C   UNL     1      36.113 -20.918 -19.110  0.00  0.00    +0.037 C 
ATOM      4  C   UNL     1      33.724 -21.221 -18.930  0.00  0.00    +0.037 C 
ATOM      5  C   UNL     1      35.919 -19.994 -20.136  0.00  0.00    +0.004 C 
ATOM      6  C   UNL     1      33.529 -20.297 -19.956  0.00  0.00    +0.004 C 
ATOM      7  C   UNL     1      34.627 -19.683 -20.559  0.00  0.00    +0.006 C 
BRANCH   7   9
ATOM      8  S   UNL     1      34.734 -17.071 -21.313  0.00  0.00    -0.077 S 
ATOM      9  C   UNL     1      34.425 -18.727 -21.620  0.00  0.00    +0.030 C 
ATOM     10  C   UNL     1      34.000 -18.942 -22.913  0.00  0.00    +0.008 C 
ATOM     11  C   UNL     1      33.927 -17.732 -23.661  0.00  0.00    +0.017 C 
ATOM     12  C   UNL     1      34.300 -16.638 -22.911  0.00  0.00    +0.098 C 
BRANCH  12  14
ATOM     13  N   UNL     1      34.351 -14.203 -23.777  0.00  0.00    -0.190 NA
ATOM     14  C   UNL     1      34.328 -15.296 -23.388  0.00  0.00    +0.107 C 
ENDBRANCH  12  14
ENDBRANCH   7   9
ENDBRANCH   1   2
BRANCH   1  17
ATOM     15  O   UNL     1      37.554 -21.059 -16.261  0.00  0.00    -0.348 OA
ATOM     16  C   UNL     1      36.257 -22.813 -15.346  0.00  0.00    +0.147 C 
ATOM     17  C   UNL     1      35.354 -21.925 -16.172  0.00  0.00    +0.214 C 
ATOM     18  C   UNL     1      37.633 -22.435 -15.856  0.00  0.00    +0.163 C 
ATOM     19  C   UNL     1      36.173 -20.650 -16.236  0.00  0.00    +0.187 C 
BRANCH  16  20
ATOM     20  N   UNL     1      35.978 -24.245 -15.539  0.00  0.00    -0.179 NA
ATOM     21  H   UNL     1      35.065 -24.316 -15.990  0.00  0.00    +0.149 HD
BRANCH  20  22
ATOM     22  S   UNL     1      35.940 -25.264 -14.176  0.00  0.00    +0.039 S 
ATOM     23  O   UNL     1      35.909 -26.652 -14.594  0.00  0.00    -0.158 OA
ATOM     24  O   UNL     1      34.951 -24.745 -13.251  0.00  0.00    -0.158 OA
BRANCH  22  25
ATOM     25  C   UNL     1      37.543 -24.940 -13.477  0.00  0.00    +0.146 C 
ATOM     26  C   UNL     1      37.582 -25.381 -12.021  0.00  0.00    +0.027 C 
ATOM     27  C   UNL     1      38.624 -25.629 -14.296  0.00  0.00    +0.027 C 
ENDBRANCH  22  25
ENDBRANCH  20  22
ENDBRANCH  16  20
ENDBRANCH   1  17
TORSDOF 7
ENDMDL
MODEL 5
REMARK VINA RESULT:      -9.4      6.738     10.886
REMARK  Name = 49853967
REMARK  7 active torsions:
REMARK  status: ('A' for Active; 'I' for Inactive)
REMARK    1  A    between atoms: O_1  and  C_2
REMARK    2  A    between atoms: O_1  and  C_17
REMARK    3  A    between atoms: C_7  and  C_9
REMARK    4  A    between atoms: C_12  and  C_14
REMARK    5  A    between atoms: C_16  and  N_20
REMARK    6  A    between atoms: N_20  and  S_22
REMARK    7  A    between atoms: S_22  and  C_25
REMARK                            x       y       z     vdW  Elec       q    Type
REMARK                         _______ _______ _______ _____ _____    ______ ____
ROOT
ATOM      1  O   UNL     1      32.783 -14.068 -22.862  0.00  0.00    -0.475 OA
ENDROOT
BRANCH   1   2
ATOM      2  C   UNL     1      32.478 -12.756 -22.587  0.00  0.00    +0.139 C 
ATOM      3  C   UNL     1      31.704 -12.438 -21.471  0.00  0.00    +0.037 C 
ATOM      4  C   UNL     1      32.938 -11.742 -23.427  0.00  0.00    +0.037 C 
ATOM      5  C   UNL     1      31.391 -11.107 -21.195  0.00  0.00    +0.004 C 
ATOM      6  C   UNL     1      32.626 -10.411 -23.151  0.00  0.00    +0.004 C 
ATOM      7  C   UNL     1      31.852 -10.094 -22.034  0.00  0.00    +0.006 C 
BRANCH   7   9
ATOM      8  S   UNL     1      31.001  -7.708 -23.027  0.00  0.00    -0.077 S 
ATOM      9  C   UNL     1      31.528  -8.718 -21.749  0.00  0.00    +0.030 C 
ATOM     10  C   UNL     1      31.578  -8.046 -20.547  0.00  0.00    +0.008 C 
ATOM     11  C   UNL     1      31.178  -6.685 -20.677  0.00  0.00    +0.017 C 
ATOM     12  C   UNL     1      30.837  -6.368 -21.974  0.00  0.00    +0.098 C 
BRANCH  12  14
ATOM     13  N   UNL     1      30.040  -4.040 -22.764  0.00  0.00    -0.190 NA
ATOM     14  C   UNL     1      30.398  -5.085 -22.409  0.00  0.00    +0.107 C 
ENDBRANCH  12  14
ENDBRANCH   7   9
ENDBRANCH   1   2
BRANCH   1  17
ATOM     15  O   UNL     1      33.009 -15.660 -25.382  0.00  0.00    -0.348 OA
ATOM     16  C   UNL     1      34.419 -15.737 -23.485  0.00  0.00    +0.147 C 
ATOM     17  C   UNL     1      33.932 -14.316 -23.668  0.00  0.00    +0.214 C 
ATOM     18  C   UNL     1      33.427 -16.526 -24.315  0.00  0.00    +0.163 C 
ATOM     19  C   UNL     1      33.512 -14.335 -25.124  0.00  0.00    +0.187 C 
BRANCH  16  20
ATOM     20  N   UNL     1      34.414 -16.163 -22.076  0.00  0.00    -0.179 NA
ATOM     21  H   UNL     1      34.777 -15.385 -21.525  0.00  0.00    +0.149 HD
BRANCH  20  22
ATOM     22  S   UNL     1      35.304 -17.545 -21.633  0.00  0.00    +0.039 S 
ATOM     23  O   UNL     1      35.651 -17.483 -20.227  0.00  0.00    -0.158 OA
ATOM     24  O   UNL     1      36.323 -17.767 -22.641  0.00  0.00    -0.158 OA
BRANCH  22  25
ATOM     25  C   UNL     1      34.072 -18.811 -21.837  0.00  0.00    +0.146 C 
ATOM     26  C   UNL     1      34.295 -19.559 -23.143  0.00  0.00    +0.027 C 
ATOM     27  C   UNL     1      34.086 -19.756 -20.645  0.00  0.00    +0.027 C 
ENDBRANCH  22  25
ENDBRANCH  20  22
ENDBRANCH  16  20
ENDBRANCH   1  17
TORSDOF 7
ENDMDL
MODEL 6
REMARK VINA RESULT:      -9.4      9.852     15.113
REMARK  Name = 49853967
REMARK  7 active torsions:
REMARK  status: ('A' for Active; 'I' for Inactive)
REMARK    1  A    between atoms: O_1  and  C_2
REMARK    2  A    between atoms: O_1  and  C_17
REMARK    3  A    between atoms: C_7  and  C_9
REMARK    4  A    between atoms: C_12  and  C_14
REMARK    5  A    between atoms: C_16  and  N_20
REMARK    6  A    between atoms: N_20  and  S_22
REMARK    7  A    between atoms: S_22  and  C_25
REMARK                            x       y       z     vdW  Elec       q    Type
REMARK                         _______ _______ _______ _____ _____    ______ ____
ROOT
ATOM      1  O   UNL     1      31.096  -8.306 -22.040  0.00  0.00    -0.475 OA
ENDROOT
BRANCH   1   2
ATOM      2  C   UNL     1      31.633  -9.569 -22.138  0.00  0.00    +0.139 C 
ATOM      3  C   UNL     1      31.249 -10.563 -21.238  0.00  0.00    +0.037 C 
ATOM      4  C   UNL     1      32.566  -9.854 -23.134  0.00  0.00    +0.037 C 
ATOM      5  C   UNL     1      31.797 -11.842 -21.336  0.00  0.00    +0.004 C 
ATOM      6  C   UNL     1      33.114 -11.132 -23.233  0.00  0.00    +0.004 C 
ATOM      7  C   UNL     1      32.729 -12.126 -22.333  0.00  0.00    +0.006 C 
BRANCH   7   9
ATOM      8  S   UNL     1      33.788 -14.251 -21.003  0.00  0.00    -0.077 S 
ATOM      9  C   UNL     1      33.296 -13.449 -22.433  0.00  0.00    +0.030 C 
ATOM     10  C   UNL     1      33.520 -14.213 -23.558  0.00  0.00    +0.008 C 
ATOM     11  C   UNL     1      34.102 -15.474 -23.241  0.00  0.00    +0.017 C 
ATOM     12  C   UNL     1      34.301 -15.625 -21.886  0.00  0.00    +0.098 C 
BRANCH  12  14
ATOM     13  N   UNL     1      35.324 -17.720 -20.769  0.00  0.00    -0.190 NA
ATOM     14  C   UNL     1      34.865 -16.779 -21.270  0.00  0.00    +0.107 C 
ENDBRANCH  12  14
ENDBRANCH   7   9
ENDBRANCH   1   2
BRANCH   1  17
ATOM     15  O   UNL     1      30.736  -5.891 -20.315  0.00  0.00    -0.348 OA
ATOM     16  C   UNL     1      31.550  -5.983 -22.534  0.00  0.00    +0.147 C 
ATOM     17  C   UNL     1      31.999  -7.229 -21.803  0.00  0.00    +0.214 C 
ATOM     18  C   UNL     1      30.420  -5.485 -21.656  0.00  0.00    +0.163 C 
ATOM     19  C   UNL     1      31.863  -6.788 -20.359  0.00  0.00    +0.187 C 
BRANCH  16  20
ATOM     20  N   UNL     1      31.094  -6.261 -23.906  0.00  0.00    -0.179 NA
ATOM     21  H   UNL     1      31.274  -7.249 -24.088  0.00  0.00    +0.149 HD
BRANCH  20  22
ATOM     22  S   UNL     1      31.782  -5.384 -25.192  0.00  0.00    +0.039 S 
ATOM     23  O   UNL     1      31.239  -4.039 -25.223  0.00  0.00    -0.158 OA
ATOM     24  O   UNL     1      31.755  -6.222 -26.376  0.00  0.00    -0.158 OA
BRANCH  22  25
ATOM     25  C   UNL     1      33.473  -5.279 -24.654  0.00  0.00    +0.146 C 
ATOM     26  C   UNL     1      34.189  -6.597 -24.906  0.00  0.00    +0.027 C 
ATOM     27  C   UNL     1      34.176  -4.122 -25.349  0.00  0.00    +0.027 C 
ENDBRANCH  22  25
ENDBRANCH  20  22
ENDBRANCH  16  20
ENDBRANCH   1  17
TORSDOF 7
ENDMDL
MODEL 7
REMARK VINA RESULT:      -9.3      2.084      3.790
REMARK  Name = 49853967
REMARK  7 active torsions:
REMARK  status: ('A' for Active; 'I' for Inactive)
REMARK    1  A    between atoms: O_1  and  C_2
REMARK    2  A    between atoms: O_1  and  C_17
REMARK    3  A    between atoms: C_7  and  C_9
REMARK    4  A    between atoms: C_12  and  C_14
REMARK    5  A    between atoms: C_16  and  N_20
REMARK    6  A    between atoms: N_20  and  S_22
REMARK    7  A    between atoms: S_22  and  C_25
REMARK                            x       y       z     vdW  Elec       q    Type
REMARK                         _______ _______ _______ _____ _____    ______ ____
ROOT
ATOM      1  O   UNL     1      34.831 -22.046 -17.204  0.00  0.00    -0.475 OA
ENDROOT
BRANCH   1   2
ATOM      2  C   UNL     1      34.674 -21.310 -18.354  0.00  0.00    +0.139 C 
ATOM      3  C   UNL     1      33.398 -21.095 -18.876  0.00  0.00    +0.037 C 
ATOM      4  C   UNL     1      35.789 -20.782 -19.002  0.00  0.00    +0.037 C 
ATOM      5  C   UNL     1      33.239 -20.351 -20.045  0.00  0.00    +0.004 C 
ATOM      6  C   UNL     1      35.631 -20.037 -20.171  0.00  0.00    +0.004 C 
ATOM      7  C   UNL     1      34.355 -19.823 -20.693  0.00  0.00    +0.006 C 
BRANCH   7   9
ATOM      8  S   UNL     1      34.547 -17.380 -21.876  0.00  0.00    -0.077 S 
ATOM      9  C   UNL     1      34.191 -19.054 -21.902  0.00  0.00    +0.030 C 
ATOM     10  C   UNL     1      33.770 -19.473 -23.145  0.00  0.00    +0.008 C 
ATOM     11  C   UNL     1      33.740 -18.405 -24.088  0.00  0.00    +0.017 C 
ATOM     12  C   UNL     1      34.138 -17.211 -23.529  0.00  0.00    +0.098 C 
BRANCH  12  14
ATOM     13  N   UNL     1      34.270 -14.960 -24.794  0.00  0.00    -0.190 NA
ATOM     14  C   UNL     1      34.211 -15.971 -24.226  0.00  0.00    +0.107 C 
ENDBRANCH  12  14
ENDBRANCH   7   9
ENDBRANCH   1   2
BRANCH   1  17
ATOM     15  O   UNL     1      32.467 -22.406 -15.409  0.00  0.00    -0.348 OA
ATOM     16  C   UNL     1      34.285 -23.884 -15.730  0.00  0.00    +0.147 C 
ATOM     17  C   UNL     1      33.992 -23.188 -17.040  0.00  0.00    +0.214 C 
ATOM     18  C   UNL     1      33.589 -22.987 -14.726  0.00  0.00    +0.163 C 
ATOM     19  C   UNL     1      32.569 -22.719 -16.812  0.00  0.00    +0.187 C 
BRANCH  16  20
ATOM     20  N   UNL     1      35.727 -23.996 -15.454  0.00  0.00    -0.179 NA
ATOM     21  H   UNL     1      36.207 -23.983 -16.354  0.00  0.00    +0.149 HD
BRANCH  20  22
ATOM     22  S   UNL     1      36.297 -25.357 -14.605  0.00  0.00    +0.039 S 
ATOM     23  O   UNL     1      36.053 -26.561 -15.375  0.00  0.00    -0.158 OA
ATOM     24  O   UNL     1      35.847 -25.252 -13.230  0.00  0.00    -0.158 OA
BRANCH  22  25
ATOM     25  C   UNL     1      38.047 -25.045 -14.617  0.00  0.00    +0.146 C 
ATOM     26  C   UNL     1      38.327 -23.630 -15.103  0.00  0.00    +0.027 C 
ATOM     27  C   UNL     1      38.634 -25.284 -13.234  0.00  0.00    +0.027 C 
ENDBRANCH  22  25
ENDBRANCH  20  22
ENDBRANCH  16  20
ENDBRANCH   1  17
TORSDOF 7
ENDMDL
MODEL 8
REMARK VINA RESULT:      -9.2      6.128     11.051
REMARK  Name = 49853967
REMARK  7 active torsions:
REMARK  status: ('A' for Active; 'I' for Inactive)
REMARK    1  A    between atoms: O_1  and  C_2
REMARK    2  A    between atoms: O_1  and  C_17
REMARK    3  A    between atoms: C_7  and  C_9
REMARK    4  A    between atoms: C_12  and  C_14
REMARK    5  A    between atoms: C_16  and  N_20
REMARK    6  A    between atoms: N_20  and  S_22
REMARK    7  A    between atoms: S_22  and  C_25
REMARK                            x       y       z     vdW  Elec       q    Type
REMARK                         _______ _______ _______ _____ _____    ______ ____
ROOT
ATOM      1  O   UNL     1      33.988 -13.890 -23.311  0.00  0.00    -0.475 OA
ENDROOT
BRANCH   1   2
ATOM      2  C   UNL     1      34.188 -15.101 -22.689  0.00  0.00    +0.139 C 
ATOM      3  C   UNL     1      34.394 -16.250 -23.452  0.00  0.00    +0.037 C 
ATOM      4  C   UNL     1      34.181 -15.180 -21.297  0.00  0.00    +0.037 C 
ATOM      5  C   UNL     1      34.593 -17.479 -22.822  0.00  0.00    +0.004 C 
ATOM      6  C   UNL     1      34.381 -16.407 -20.667  0.00  0.00    +0.004 C 
ATOM      7  C   UNL     1      34.587 -17.557 -21.429  0.00  0.00    +0.006 C 
BRANCH   7   9
ATOM      8  S   UNL     1      33.436 -19.816 -20.440  0.00  0.00    -0.077 S 
ATOM      9  C   UNL     1      34.793 -18.827 -20.778  0.00  0.00    +0.030 C 
ATOM     10  C   UNL     1      35.971 -19.407 -20.359  0.00  0.00    +0.008 C 
ATOM     11  C   UNL     1      35.756 -20.678 -19.753  0.00  0.00    +0.017 C 
ATOM     12  C   UNL     1      34.423 -21.022 -19.732  0.00  0.00    +0.098 C 
BRANCH  12  14
ATOM     13  N   UNL     1      33.480 -23.220 -18.750  0.00  0.00    -0.190 NA
ATOM     14  C   UNL     1      33.903 -22.233 -19.191  0.00  0.00    +0.107 C 
ENDBRANCH  12  14
ENDBRANCH   7   9
ENDBRANCH   1   2
BRANCH   1  17
ATOM     15  O   UNL     1      33.165 -12.270 -25.684  0.00  0.00    -0.348 OA
ATOM     16  C   UNL     1      32.275 -12.193 -23.494  0.00  0.00    +0.147 C 
ATOM     17  C   UNL     1      32.678 -13.618 -23.802  0.00  0.00    +0.214 C 
ATOM     18  C   UNL     1      33.041 -11.409 -24.541  0.00  0.00    +0.163 C 
ATOM     19  C   UNL     1      32.721 -13.590 -25.317  0.00  0.00    +0.187 C 
BRANCH  16  20
ATOM     20  N   UNL     1      32.639 -11.781 -22.129  0.00  0.00    -0.179 NA
ATOM     21  H   UNL     1      32.947 -12.618 -21.634  0.00  0.00    +0.149 HD
BRANCH  20  22
ATOM     22  S   UNL     1      31.459 -11.032 -21.156  0.00  0.00    +0.039 S 
ATOM     23  O   UNL     1      31.725 -11.303 -19.756  0.00  0.00    -0.158 OA
ATOM     24  O   UNL     1      30.157 -11.309 -21.731  0.00  0.00    -0.158 OA
BRANCH  22  25
ATOM     25  C   UNL     1      31.820  -9.318 -21.459  0.00  0.00    +0.146 C 
ATOM     26  C   UNL     1      31.093  -8.839 -22.707  0.00  0.00    +0.027 C 
ATOM     27  C   UNL     1      31.452  -8.480 -20.244  0.00  0.00    +0.027 C 
ENDBRANCH  22  25
ENDBRANCH  20  22
ENDBRANCH  16  20
ENDBRANCH   1  17
TORSDOF 7
ENDMDL
MODEL 9
REMARK VINA RESULT:      -9.1      1.543      1.821
REMARK  Name = 49853967
REMARK  7 active torsions:
REMARK  status: ('A' for Active; 'I' for Inactive)
REMARK    1  A    between atoms: O_1  and  C_2
REMARK    2  A    between atoms: O_1  and  C_17
REMARK    3  A    between atoms: C_7  and  C_9
REMARK    4  A    between atoms: C_12  and  C_14
REMARK    5  A    between atoms: C_16  and  N_20
REMARK    6  A    between atoms: N_20  and  S_22
REMARK    7  A    between atoms: S_22  and  C_25
REMARK                            x       y       z     vdW  Elec       q    Type
REMARK                         _______ _______ _______ _____ _____    ______ ____
ROOT
ATOM      1  O   UNL     1      35.291 -22.836 -16.279  0.00  0.00    -0.475 OA
ENDROOT
BRANCH   1   2
ATOM      2  C   UNL     1      35.280 -21.990 -17.364  0.00  0.00    +0.139 C 
ATOM      3  C   UNL     1      34.193 -21.990 -18.238  0.00  0.00    +0.037 C 
ATOM      4  C   UNL     1      36.358 -21.136 -17.593  0.00  0.00    +0.037 C 
ATOM      5  C   UNL     1      34.183 -21.135 -19.340  0.00  0.00    +0.004 C 
ATOM      6  C   UNL     1      36.348 -20.280 -18.694  0.00  0.00    +0.004 C 
ATOM      7  C   UNL     1      35.261 -20.280 -19.568  0.00  0.00    +0.006 C 
BRANCH   7   9
ATOM      8  S   UNL     1      33.862 -19.345 -21.706  0.00  0.00    -0.077 S 
ATOM      9  C   UNL     1      35.252 -19.396 -20.708  0.00  0.00    +0.030 C 
ATOM     10  C   UNL     1      36.236 -18.539 -21.148  0.00  0.00    +0.008 C 
ATOM     11  C   UNL     1      35.844 -17.830 -22.320  0.00  0.00    +0.017 C 
ATOM     12  C   UNL     1      34.575 -18.174 -22.731  0.00  0.00    +0.098 C 
BRANCH  12  14
ATOM     13  N   UNL     1      33.375 -17.189 -24.798  0.00  0.00    -0.190 NA
ATOM     14  C   UNL     1      33.914 -17.631 -23.870  0.00  0.00    +0.107 C 
ENDBRANCH  12  14
ENDBRANCH   7   9
ENDBRANCH   1   2
BRANCH   1  17
ATOM     15  O   UNL     1      36.888 -24.429 -14.318  0.00  0.00    -0.348 OA
ATOM     16  C   UNL     1      35.236 -22.799 -13.862  0.00  0.00    +0.147 C 
ATOM     17  C   UNL     1      35.982 -22.393 -15.114  0.00  0.00    +0.214 C 
ATOM     18  C   UNL     1      35.580 -24.270 -13.745  0.00  0.00    +0.163 C 
ATOM     19  C   UNL     1      37.258 -23.198 -14.969  0.00  0.00    +0.187 C 
BRANCH  16  20
ATOM     20  N   UNL     1      33.783 -22.585 -13.970  0.00  0.00    -0.179 NA
ATOM     21  H   UNL     1      33.512 -21.970 -13.203  0.00  0.00    +0.149 HD
BRANCH  20  22
ATOM     22  S   UNL     1      32.749 -23.936 -13.917  0.00  0.00    +0.039 S 
ATOM     23  O   UNL     1      32.414 -24.251 -12.542  0.00  0.00    -0.158 OA
ATOM     24  O   UNL     1      33.286 -24.951 -14.802  0.00  0.00    -0.158 OA
BRANCH  22  25
ATOM     25  C   UNL     1      31.295 -23.269 -14.694  0.00  0.00    +0.146 C 
ATOM     26  C   UNL     1      30.798 -22.053 -13.927  0.00  0.00    +0.027 C 
ATOM     27  C   UNL     1      31.584 -22.930 -16.148  0.00  0.00    +0.027 C 
ENDBRANCH  22  25
ENDBRANCH  20  22
ENDBRANCH  16  20
ENDBRANCH   1  17
TORSDOF 7
ENDMDL
