MODEL 1
REMARK VINA RESULT:     -11.4      0.000      0.000
REMARK  Name = 5330197
REMARK  7 active torsions:
REMARK  status: ('A' for Active; 'I' for Inactive)
REMARK    1  A    between atoms: N_1  and  C_16
REMARK    2  A    between atoms: C_4  and  O_25
REMARK    3  A    between atoms: C_5  and  O_23
REMARK    4  A    between atoms: O_25  and  C_26
REMARK    5  A    between atoms: C_26  and  C_27
REMARK    6  A    between atoms: C_27  and  C_28
REMARK    7  A    between atoms: C_28  and  N_29
REMARK                            x       y       z     vdW  Elec       q    Type
REMARK                         _______ _______ _______ _____ _____    ______ ____
ROOT
ATOM      1  N   UNL     1      33.282 -11.382 -23.005  0.00  0.00    -0.295 N 
ATOM      2  N   UNL     1      33.005 -14.253 -25.973  0.00  0.00    -0.248 NA
ATOM      3  N   UNL     1      32.808 -11.968 -25.234  0.00  0.00    -0.230 NA
ATOM      4  C   UNL     1      34.082 -16.367 -23.182  0.00  0.00    +0.156 C 
ATOM      5  C   UNL     1      34.189 -15.438 -22.155  0.00  0.00    +0.169 C 
ATOM      6  C   UNL     1      33.684 -15.958 -24.459  0.00  0.00    +0.112 C 
ATOM      7  C   UNL     1      33.498 -13.697 -23.692  0.00  0.00    +0.048 C 
ATOM      8  C   UNL     1      33.386 -14.628 -24.738  0.00  0.00    +0.066 C 
ATOM      9  C   UNL     1      33.897 -14.100 -22.406  0.00  0.00    +0.044 C 
ATOM     10  C   UNL     1      33.192 -12.377 -24.010  0.00  0.00    +0.131 C 
ATOM     11  C   UNL     1      32.736 -12.944 -26.153  0.00  0.00    +0.252 C 
ATOM     12  H   UNL     1      33.963 -11.570 -22.319  0.00  0.00    +0.154 HD
ENDROOT
BRANCH   1  16
ATOM     13 CL   UNL     1      30.539 -11.593 -21.687  0.00  0.00    -0.081 Cl
ATOM     14  O   UNL     1      34.364  -8.816 -23.776  0.00  0.00    -0.433 OA
ATOM     15  O   UNL     1      33.219  -6.721 -23.450  0.00  0.00    -0.435 OA
ATOM     16  C   UNL     1      32.589 -10.178 -22.799  0.00  0.00    +0.098 C 
ATOM     17  C   UNL     1      33.148  -8.977 -23.187  0.00  0.00    +0.190 C 
ATOM     18  C   UNL     1      32.494  -7.780 -23.000  0.00  0.00    +0.178 C 
ATOM     19  C   UNL     1      31.325 -10.143 -22.206  0.00  0.00    +0.074 C 
ATOM     20  C   UNL     1      31.245  -7.718 -22.417  0.00  0.00    +0.041 C 
ATOM     21  C   UNL     1      34.402  -7.383 -23.941  0.00  0.00    +0.429 C 
ATOM     22  C   UNL     1      30.657  -8.921 -22.016  0.00  0.00    +0.016 C 
ENDBRANCH   1  16
BRANCH   5  23
ATOM     23  O   UNL     1      34.576 -15.820 -20.907  0.00  0.00    -0.469 OA
ATOM     24  C   UNL     1      33.855 -15.270 -19.805  0.00  0.00    +0.253 C 
ENDBRANCH   5  23
BRANCH   4  25
ATOM     25  O   UNL     1      34.365 -17.690 -22.958  0.00  0.00    -0.476 OA
BRANCH  25  26
ATOM     26  C   UNL     1      35.668 -17.995 -22.480  0.00  0.00    +0.203 C 
BRANCH  26  27
ATOM     27  C   UNL     1      35.551 -18.981 -21.327  0.00  0.00    +0.025 C 
BRANCH  27  28
ATOM     28  C   UNL     1      34.105 -19.415 -21.107  0.00  0.00    -0.074 C 
BRANCH  28  29
ATOM     29  N   UNL     1      33.968 -20.089 -19.816  0.00  0.00    +0.387 N 
ATOM     30  C   UNL     1      35.128 -20.952 -19.560  0.00  0.00    -0.077 C 
ATOM     31  C   UNL     1      32.715 -20.855 -19.766  0.00  0.00    -0.077 C 
ATOM     32  C   UNL     1      35.025 -21.626 -18.191  0.00  0.00    -0.023 C 
ATOM     33  C   UNL     1      32.532 -21.525 -18.404  0.00  0.00    -0.023 C 
ATOM     34  C   UNL     1      33.724 -22.410 -18.056  0.00  0.00    -0.004 C 
ATOM     35  H   UNL     1      33.934 -19.383 -19.081  0.00  0.00    -0.080 HD
ENDBRANCH  28  29
ENDBRANCH  27  28
ENDBRANCH  26  27
ENDBRANCH  25  26
ENDBRANCH   4  25
TORSDOF 7
ENDMDL
MODEL 2
REMARK VINA RESULT:     -11.2      2.377      3.928
REMARK  Name = 5330197
REMARK  7 active torsions:
REMARK  status: ('A' for Active; 'I' for Inactive)
REMARK    1  A    between atoms: N_1  and  C_16
REMARK    2  A    between atoms: C_4  and  O_25
REMARK    3  A    between atoms: C_5  and  O_23
REMARK    4  A    between atoms: O_25  and  C_26
REMARK    5  A    between atoms: C_26  and  C_27
REMARK    6  A    between atoms: C_27  and  C_28
REMARK    7  A    between atoms: C_28  and  N_29
REMARK                            x       y       z     vdW  Elec       q    Type
REMARK                         _______ _______ _______ _____ _____    ______ ____
ROOT
ATOM      1  N   UNL     1      32.097  -8.850 -23.259  0.00  0.00    -0.295 N 
ATOM      2  N   UNL     1      31.675 -11.512 -20.118  0.00  0.00    -0.248 NA
ATOM      3  N   UNL     1      31.514  -9.283 -21.021  0.00  0.00    -0.230 NA
ATOM      4  C   UNL     1      32.887 -13.809 -22.701  0.00  0.00    +0.156 C 
ATOM      5  C   UNL     1      33.044 -12.951 -23.783  0.00  0.00    +0.169 C 
ATOM      6  C   UNL     1      32.427 -13.315 -21.476  0.00  0.00    +0.112 C 
ATOM      7  C   UNL     1      32.278 -11.112 -22.405  0.00  0.00    +0.048 C 
ATOM      8  C   UNL     1      32.116 -11.969 -21.304  0.00  0.00    +0.066 C 
ATOM      9  C   UNL     1      32.740 -11.600 -23.639  0.00  0.00    +0.044 C 
ATOM     10  C   UNL     1      31.957  -9.774 -22.194  0.00  0.00    +0.131 C 
ATOM     11  C   UNL     1      31.399 -10.194 -20.041  0.00  0.00    +0.252 C 
ATOM     12  H   UNL     1      31.959  -9.246 -24.150  0.00  0.00    +0.154 HD
ENDROOT
BRANCH   1  16
ATOM     13 CL   UNL     1      34.970  -8.084 -23.939  0.00  0.00    -0.081 Cl
ATOM     14  O   UNL     1      30.110  -6.824 -22.713  0.00  0.00    -0.433 OA
ATOM     15  O   UNL     1      30.558  -4.457 -22.748  0.00  0.00    -0.435 OA
ATOM     16  C   UNL     1      32.391  -7.477 -23.291  0.00  0.00    +0.098 C 
ATOM     17  C   UNL     1      31.407  -6.548 -23.020  0.00  0.00    +0.190 C 
ATOM     18  C   UNL     1      31.663  -5.195 -23.041  0.00  0.00    +0.178 C 
ATOM     19  C   UNL     1      33.669  -7.000 -23.588  0.00  0.00    +0.074 C 
ATOM     20  C   UNL     1      32.917  -4.698 -23.332  0.00  0.00    +0.041 C 
ATOM     21  C   UNL     1      29.579  -5.494 -22.540  0.00  0.00    +0.429 C 
ATOM     22  C   UNL     1      33.931  -5.619 -23.609  0.00  0.00    +0.016 C 
ENDBRANCH   1  16
BRANCH   5  23
ATOM     23  O   UNL     1      33.489 -13.418 -24.982  0.00  0.00    -0.469 OA
ATOM     24  C   UNL     1      32.752 -13.034 -26.143  0.00  0.00    +0.253 C 
ENDBRANCH   5  23
BRANCH   4  25
ATOM     25  O   UNL     1      33.179 -15.143 -22.820  0.00  0.00    -0.476 OA
BRANCH  25  26
ATOM     26  C   UNL     1      34.522 -15.531 -22.564  0.00  0.00    +0.203 C 
BRANCH  26  27
ATOM     27  C   UNL     1      34.551 -16.411 -21.323  0.00  0.00    +0.025 C 
BRANCH  27  28
ATOM     28  C   UNL     1      35.244 -17.742 -21.597  0.00  0.00    -0.074 C 
BRANCH  28  29
ATOM     29  N   UNL     1      34.892 -18.720 -20.568  0.00  0.00    +0.387 N 
ATOM     30  C   UNL     1      36.009 -19.644 -20.332  0.00  0.00    -0.077 C 
ATOM     31  C   UNL     1      33.672 -19.447 -20.945  0.00  0.00    -0.077 C 
ATOM     32  C   UNL     1      35.676 -20.643 -19.223  0.00  0.00    -0.023 C 
ATOM     33  C   UNL     1      33.262 -20.439 -19.856  0.00  0.00    -0.023 C 
ATOM     34  C   UNL     1      34.394 -21.408 -19.533  0.00  0.00    -0.004 C 
ATOM     35  H   UNL     1      34.705 -18.224 -19.696  0.00  0.00    -0.080 HD
ENDBRANCH  28  29
ENDBRANCH  27  28
ENDBRANCH  26  27
ENDBRANCH  25  26
ENDBRANCH   4  25
TORSDOF 7
ENDMDL
MODEL 3
REMARK VINA RESULT:     -11.1      6.070     13.374
REMARK  Name = 5330197
REMARK  7 active torsions:
REMARK  status: ('A' for Active; 'I' for Inactive)
REMARK    1  A    between atoms: N_1  and  C_16
REMARK    2  A    between atoms: C_4  and  O_25
REMARK    3  A    between atoms: C_5  and  O_23
REMARK    4  A    between atoms: O_25  and  C_26
REMARK    5  A    between atoms: C_26  and  C_27
REMARK    6  A    between atoms: C_27  and  C_28
REMARK    7  A    between atoms: C_28  and  N_29
REMARK                            x       y       z     vdW  Elec       q    Type
REMARK                         _______ _______ _______ _____ _____    ______ ____
ROOT
ATOM      1  N   UNL     1      35.162 -23.346 -14.517  0.00  0.00    -0.295 N 
ATOM      2  N   UNL     1      31.187 -22.776 -15.519  0.00  0.00    -0.248 NA
ATOM      3  N   UNL     1      32.883 -23.423 -13.935  0.00  0.00    -0.230 NA
ATOM      4  C   UNL     1      32.757 -21.761 -18.669  0.00  0.00    +0.156 C 
ATOM      5  C   UNL     1      34.104 -21.938 -18.377  0.00  0.00    +0.169 C 
ATOM      6  C   UNL     1      31.787 -22.045 -17.702  0.00  0.00    +0.112 C 
ATOM      7  C   UNL     1      33.498 -22.682 -16.152  0.00  0.00    +0.048 C 
ATOM      8  C   UNL     1      32.134 -22.508 -16.436  0.00  0.00    +0.066 C 
ATOM      9  C   UNL     1      34.479 -22.399 -17.118  0.00  0.00    +0.044 C 
ATOM     10  C   UNL     1      33.806 -23.145 -14.876  0.00  0.00    +0.131 C 
ATOM     11  C   UNL     1      31.613 -23.220 -14.319  0.00  0.00    +0.252 C 
ATOM     12  H   UNL     1      35.788 -22.740 -14.977  0.00  0.00    +0.154 HD
ENDROOT
BRANCH   1  16
ATOM     13 CL   UNL     1      35.929 -26.074 -15.645  0.00  0.00    -0.081 Cl
ATOM     14  O   UNL     1      35.708 -22.672 -11.761  0.00  0.00    -0.433 OA
ATOM     15  O   UNL     1      36.771 -24.165 -10.197  0.00  0.00    -0.435 OA
ATOM     16  C   UNL     1      35.786 -24.239 -13.632  0.00  0.00    +0.098 C 
ATOM     17  C   UNL     1      36.023 -23.871 -12.324  0.00  0.00    +0.190 C 
ATOM     18  C   UNL     1      36.631 -24.724 -11.430  0.00  0.00    +0.178 C 
ATOM     19  C   UNL     1      36.184 -25.518 -14.028  0.00  0.00    +0.074 C 
ATOM     20  C   UNL     1      37.034 -25.991 -11.796  0.00  0.00    +0.041 C 
ATOM     21  C   UNL     1      36.184 -22.867 -10.413  0.00  0.00    +0.429 C 
ATOM     22  C   UNL     1      36.804 -26.389 -13.115  0.00  0.00    +0.016 C 
ENDBRANCH   1  16
BRANCH   5  23
ATOM     23  O   UNL     1      35.060 -21.664 -19.307  0.00  0.00    -0.469 OA
ATOM     24  C   UNL     1      36.155 -20.849 -18.892  0.00  0.00    +0.253 C 
ENDBRANCH   5  23
BRANCH   4  25
ATOM     25  O   UNL     1      32.364 -21.308 -19.902  0.00  0.00    -0.476 OA
BRANCH  25  26
ATOM     26  C   UNL     1      32.540 -19.921 -20.161  0.00  0.00    +0.203 C 
BRANCH  26  27
ATOM     27  C   UNL     1      33.484 -19.758 -21.343  0.00  0.00    +0.025 C 
BRANCH  27  28
ATOM     28  C   UNL     1      34.490 -18.636 -21.105  0.00  0.00    -0.074 C 
BRANCH  28  29
ATOM     29  N   UNL     1      34.059 -17.414 -21.783  0.00  0.00    +0.387 N 
ATOM     30  C   UNL     1      34.553 -17.393 -23.167  0.00  0.00    -0.077 C 
ATOM     31  C   UNL     1      34.507 -16.228 -21.041  0.00  0.00    -0.077 C 
ATOM     32  C   UNL     1      34.069 -16.145 -23.907  0.00  0.00    -0.023 C 
ATOM     33  C   UNL     1      34.022 -14.942 -21.711  0.00  0.00    -0.023 C 
ATOM     34  C   UNL     1      34.468 -14.872 -23.167  0.00  0.00    -0.004 C 
ATOM     35  H   UNL     1      33.039 -17.400 -21.814  0.00  0.00    -0.080 HD
ENDBRANCH  28  29
ENDBRANCH  27  28
ENDBRANCH  26  27
ENDBRANCH  25  26
ENDBRANCH   4  25
TORSDOF 7
ENDMDL
MODEL 4
REMARK VINA RESULT:     -10.9      5.051     11.829
REMARK  Name = 5330197
REMARK  7 active torsions:
REMARK  status: ('A' for Active; 'I' for Inactive)
REMARK    1  A    between atoms: N_1  and  C_16
REMARK    2  A    between atoms: C_4  and  O_25
REMARK    3  A    between atoms: C_5  and  O_23
REMARK    4  A    between atoms: O_25  and  C_26
REMARK    5  A    between atoms: C_26  and  C_27
REMARK    6  A    between atoms: C_27  and  C_28
REMARK    7  A    between atoms: C_28  and  N_29
REMARK                            x       y       z     vdW  Elec       q    Type
REMARK                         _______ _______ _______ _____ _____    ______ ____
ROOT
ATOM      1  N   UNL     1      32.799 -23.002 -16.677  0.00  0.00    -0.295 N 
ATOM      2  N   UNL     1      36.695 -21.617 -16.872  0.00  0.00    -0.248 NA
ATOM      3  N   UNL     1      34.956 -22.850 -15.748  0.00  0.00    -0.230 NA
ATOM      4  C   UNL     1      35.390 -20.198 -19.987  0.00  0.00    +0.156 C 
ATOM      5  C   UNL     1      34.073 -20.641 -19.963  0.00  0.00    +0.169 C 
ATOM      6  C   UNL     1      36.260 -20.532 -18.945  0.00  0.00    +0.112 C 
ATOM      7  C   UNL     1      34.510 -21.749 -17.853  0.00  0.00    +0.048 C 
ATOM      8  C   UNL     1      35.843 -21.306 -17.866  0.00  0.00    +0.066 C 
ATOM      9  C   UNL     1      33.628 -21.418 -18.896  0.00  0.00    +0.044 C 
ATOM     10  C   UNL     1      34.130 -22.521 -16.759  0.00  0.00    +0.131 C 
ATOM     11  C   UNL     1      36.204 -22.371 -15.867  0.00  0.00    +0.252 C 
ATOM     12  H   UNL     1      32.381 -23.165 -17.553  0.00  0.00    +0.154 HD
ENDROOT
BRANCH   1  16
ATOM     13 CL   UNL     1      34.068 -24.506 -14.346  0.00  0.00    -0.081 Cl
ATOM     14  O   UNL     1      30.014 -22.236 -16.609  0.00  0.00    -0.433 OA
ATOM     15  O   UNL     1      28.532 -22.714 -14.770  0.00  0.00    -0.435 OA
ATOM     16  C   UNL     1      31.963 -23.295 -15.588  0.00  0.00    +0.098 C 
ATOM     17  C   UNL     1      30.638 -22.909 -15.604  0.00  0.00    +0.190 C 
ATOM     18  C   UNL     1      29.791 -23.182 -14.553  0.00  0.00    +0.178 C 
ATOM     19  C   UNL     1      32.424 -23.979 -14.461  0.00  0.00    +0.074 C 
ATOM     20  C   UNL     1      30.223 -23.856 -13.429  0.00  0.00    +0.041 C 
ATOM     21  C   UNL     1      28.680 -22.118 -16.074  0.00  0.00    +0.429 C 
ATOM     22  C   UNL     1      31.560 -24.258 -13.388  0.00  0.00    +0.016 C 
ENDBRANCH   1  16
BRANCH   5  23
ATOM     23  O   UNL     1      33.214 -20.326 -20.971  0.00  0.00    -0.469 OA
ATOM     24  C   UNL     1      31.880 -19.977 -20.603  0.00  0.00    +0.253 C 
ENDBRANCH   5  23
BRANCH   4  25
ATOM     25  O   UNL     1      35.849 -19.433 -21.027  0.00  0.00    -0.476 OA
BRANCH  25  26
ATOM     26  C   UNL     1      36.076 -18.056 -20.760  0.00  0.00    +0.203 C 
BRANCH  26  27
ATOM     27  C   UNL     1      34.905 -17.250 -21.302  0.00  0.00    +0.025 C 
BRANCH  27  28
ATOM     28  C   UNL     1      34.951 -17.150 -22.824  0.00  0.00    -0.074 C 
BRANCH  28  29
ATOM     29  N   UNL     1      34.616 -15.793 -23.255  0.00  0.00    +0.387 N 
ATOM     30  C   UNL     1      34.137 -14.996 -22.118  0.00  0.00    -0.077 C 
ATOM     31  C   UNL     1      33.623 -15.827 -24.337  0.00  0.00    -0.077 C 
ATOM     32  C   UNL     1      33.829 -13.559 -22.541  0.00  0.00    -0.023 C 
ATOM     33  C   UNL     1      33.299 -14.417 -24.832  0.00  0.00    -0.023 C 
ATOM     34  C   UNL     1      32.829 -13.522 -23.692  0.00  0.00    -0.004 C 
ATOM     35  H   UNL     1      35.460 -15.348 -23.616  0.00  0.00    -0.080 HD
ENDBRANCH  28  29
ENDBRANCH  27  28
ENDBRANCH  26  27
ENDBRANCH  25  26
ENDBRANCH   4  25
TORSDOF 7
ENDMDL
MODEL 5
REMARK VINA RESULT:     -10.6      5.659     13.076
REMARK  Name = 5330197
REMARK  7 active torsions:
REMARK  status: ('A' for Active; 'I' for Inactive)
REMARK    1  A    between atoms: N_1  and  C_16
REMARK    2  A    between atoms: C_4  and  O_25
REMARK    3  A    between atoms: C_5  and  O_23
REMARK    4  A    between atoms: O_25  and  C_26
REMARK    5  A    between atoms: C_26  and  C_27
REMARK    6  A    between atoms: C_27  and  C_28
REMARK    7  A    between atoms: C_28  and  N_29
REMARK                            x       y       z     vdW  Elec       q    Type
REMARK                         _______ _______ _______ _____ _____    ______ ____
ROOT
ATOM      1  N   UNL     1      35.761 -22.862 -14.684  0.00  0.00    -0.295 N 
ATOM      2  N   UNL     1      32.059 -23.005 -16.530  0.00  0.00    -0.248 NA
ATOM      3  N   UNL     1      33.482 -23.447 -14.636  0.00  0.00    -0.230 NA
ATOM      4  C   UNL     1      34.001 -21.404 -19.191  0.00  0.00    +0.156 C 
ATOM      5  C   UNL     1      35.262 -21.335 -18.611  0.00  0.00    +0.169 C 
ATOM      6  C   UNL     1      32.934 -21.966 -18.483  0.00  0.00    +0.112 C 
ATOM      7  C   UNL     1      34.376 -22.392 -16.619  0.00  0.00    +0.048 C 
ATOM      8  C   UNL     1      33.097 -22.467 -17.195  0.00  0.00    +0.066 C 
ATOM      9  C   UNL     1      35.454 -21.829 -17.323  0.00  0.00    +0.044 C 
ATOM     10  C   UNL     1      34.500 -22.903 -15.330  0.00  0.00    +0.131 C 
ATOM     11  C   UNL     1      32.308 -23.466 -15.287  0.00  0.00    +0.252 C 
ATOM     12  H   UNL     1      36.324 -22.103 -14.961  0.00  0.00    +0.154 HD
ENDROOT
BRANCH   1  16
ATOM     13 CL   UNL     1      34.297 -23.156 -12.024  0.00  0.00    -0.081 Cl
ATOM     14  O   UNL     1      38.255 -24.238 -15.167  0.00  0.00    -0.433 OA
ATOM     15  O   UNL     1      39.333 -25.671 -13.557  0.00  0.00    -0.435 OA
ATOM     16  C   UNL     1      36.362 -23.692 -13.725  0.00  0.00    +0.098 C 
ATOM     17  C   UNL     1      37.555 -24.327 -14.003  0.00  0.00    +0.190 C 
ATOM     18  C   UNL     1      38.171 -25.146 -13.083  0.00  0.00    +0.178 C 
ATOM     19  C   UNL     1      35.791 -23.907 -12.469  0.00  0.00    +0.074 C 
ATOM     20  C   UNL     1      37.627 -25.375 -11.836  0.00  0.00    +0.041 C 
ATOM     21  C   UNL     1      39.381 -25.091 -14.876  0.00  0.00    +0.429 C 
ATOM     22  C   UNL     1      36.419 -24.743 -11.530  0.00  0.00    +0.016 C 
ENDBRANCH   1  16
BRANCH   5  23
ATOM     23  O   UNL     1      36.310 -20.789 -19.287  0.00  0.00    -0.469 OA
ATOM     24  C   UNL     1      36.710 -19.472 -18.911  0.00  0.00    +0.253 C 
ENDBRANCH   5  23
BRANCH   4  25
ATOM     25  O   UNL     1      33.789 -20.924 -20.457  0.00  0.00    -0.476 OA
BRANCH  25  26
ATOM     26  C   UNL     1      33.446 -19.549 -20.573  0.00  0.00    +0.203 C 
BRANCH  26  27
ATOM     27  C   UNL     1      34.229 -18.942 -21.728  0.00  0.00    +0.025 C 
BRANCH  27  28
ATOM     28  C   UNL     1      34.936 -17.657 -21.311  0.00  0.00    -0.074 C 
BRANCH  28  29
ATOM     29  N   UNL     1      34.828 -16.651 -22.368  0.00  0.00    +0.387 N 
ATOM     30  C   UNL     1      34.232 -15.416 -21.844  0.00  0.00    -0.077 C 
ATOM     31  C   UNL     1      34.054 -17.177 -23.500  0.00  0.00    -0.077 C 
ATOM     32  C   UNL     1      34.158 -14.336 -22.924  0.00  0.00    -0.023 C 
ATOM     33  C   UNL     1      33.975 -16.155 -24.635  0.00  0.00    -0.023 C 
ATOM     34  C   UNL     1      33.398 -14.830 -24.150  0.00  0.00    -0.004 C 
ATOM     35  H   UNL     1      35.766 -16.429 -22.703  0.00  0.00    -0.080 HD
ENDBRANCH  28  29
ENDBRANCH  27  28
ENDBRANCH  26  27
ENDBRANCH  25  26
ENDBRANCH   4  25
TORSDOF 7
ENDMDL
MODEL 6
REMARK VINA RESULT:     -10.5      3.273      5.638
REMARK  Name = 5330197
REMARK  7 active torsions:
REMARK  status: ('A' for Active; 'I' for Inactive)
REMARK    1  A    between atoms: N_1  and  C_16
REMARK    2  A    between atoms: C_4  and  O_25
REMARK    3  A    between atoms: C_5  and  O_23
REMARK    4  A    between atoms: O_25  and  C_26
REMARK    5  A    between atoms: C_26  and  C_27
REMARK    6  A    between atoms: C_27  and  C_28
REMARK    7  A    between atoms: C_28  and  N_29
REMARK                            x       y       z     vdW  Elec       q    Type
REMARK                         _______ _______ _______ _____ _____    ______ ____
ROOT
ATOM      1  N   UNL     1      31.878  -7.552 -23.258  0.00  0.00    -0.295 N 
ATOM      2  N   UNL     1      31.436  -8.877 -19.362  0.00  0.00    -0.248 NA
ATOM      3  N   UNL     1      31.616  -7.088 -20.967  0.00  0.00    -0.230 NA
ATOM      4  C   UNL     1      31.636 -12.105 -21.081  0.00  0.00    +0.156 C 
ATOM      5  C   UNL     1      31.787 -11.706 -22.404  0.00  0.00    +0.169 C 
ATOM      6  C   UNL     1      31.519 -11.147 -20.069  0.00  0.00    +0.112 C 
ATOM      7  C   UNL     1      31.701  -9.393 -21.689  0.00  0.00    +0.048 C 
ATOM      8  C   UNL     1      31.549  -9.784 -20.349  0.00  0.00    +0.066 C 
ATOM      9  C   UNL     1      31.820 -10.349 -22.713  0.00  0.00    +0.044 C 
ATOM     10  C   UNL     1      31.727  -8.022 -21.930  0.00  0.00    +0.131 C 
ATOM     11  C   UNL     1      31.476  -7.578 -19.725  0.00  0.00    +0.252 C 
ATOM     12  H   UNL     1      31.502  -8.157 -23.938  0.00  0.00    +0.154 HD
ENDROOT
BRANCH   1  16
ATOM     13 CL   UNL     1      34.782  -7.770 -24.166  0.00  0.00    -0.081 Cl
ATOM     14  O   UNL     1      30.429  -5.064 -23.501  0.00  0.00    -0.433 OA
ATOM     15  O   UNL     1      31.375  -3.041 -24.405  0.00  0.00    -0.435 OA
ATOM     16  C   UNL     1      32.458  -6.391 -23.792  0.00  0.00    +0.098 C 
ATOM     17  C   UNL     1      31.725  -5.226 -23.885  0.00  0.00    +0.190 C 
ATOM     18  C   UNL     1      32.265  -4.069 -24.402  0.00  0.00    +0.178 C 
ATOM     19  C   UNL     1      33.780  -6.362 -24.242  0.00  0.00    +0.074 C 
ATOM     20  C   UNL     1      33.568  -4.015 -24.853  0.00  0.00    +0.041 C 
ATOM     21  C   UNL     1      30.215  -3.676 -23.832  0.00  0.00    +0.429 C 
ATOM     22  C   UNL     1      34.332  -5.182 -24.769  0.00  0.00    +0.016 C 
ENDBRANCH   1  16
BRANCH   5  23
ATOM     23  O   UNL     1      31.900 -12.627 -23.400  0.00  0.00    -0.469 OA
ATOM     24  C   UNL     1      33.002 -12.484 -24.295  0.00  0.00    +0.253 C 
ENDBRANCH   5  23
BRANCH   4  25
ATOM     25  O   UNL     1      31.600 -13.436 -20.754  0.00  0.00    -0.476 OA
BRANCH  25  26
ATOM     26  C   UNL     1      32.749 -13.970 -20.110  0.00  0.00    +0.203 C 
BRANCH  26  27
ATOM     27  C   UNL     1      33.765 -14.372 -21.170  0.00  0.00    +0.025 C 
BRANCH  27  28
ATOM     28  C   UNL     1      34.391 -15.728 -20.860  0.00  0.00    -0.074 C 
BRANCH  28  29
ATOM     29  N   UNL     1      34.556 -16.505 -22.088  0.00  0.00    +0.387 N 
ATOM     30  C   UNL     1      33.770 -15.915 -23.180  0.00  0.00    -0.077 C 
ATOM     31  C   UNL     1      34.185 -17.908 -21.863  0.00  0.00    -0.077 C 
ATOM     32  C   UNL     1      33.971 -16.686 -24.485  0.00  0.00    -0.023 C 
ATOM     33  C   UNL     1      34.400 -18.744 -23.125  0.00  0.00    -0.023 C 
ATOM     34  C   UNL     1      33.639 -18.164 -24.312  0.00  0.00    -0.004 C 
ATOM     35  H   UNL     1      35.539 -16.479 -22.360  0.00  0.00    -0.080 HD
ENDBRANCH  28  29
ENDBRANCH  27  28
ENDBRANCH  26  27
ENDBRANCH  25  26
ENDBRANCH   4  25
TORSDOF 7
ENDMDL
MODEL 7
REMARK VINA RESULT:     -10.4      2.796     10.020
REMARK  Name = 5330197
REMARK  7 active torsions:
REMARK  status: ('A' for Active; 'I' for Inactive)
REMARK    1  A    between atoms: N_1  and  C_16
REMARK    2  A    between atoms: C_4  and  O_25
REMARK    3  A    between atoms: C_5  and  O_23
REMARK    4  A    between atoms: O_25  and  C_26
REMARK    5  A    between atoms: C_26  and  C_27
REMARK    6  A    between atoms: C_27  and  C_28
REMARK    7  A    between atoms: C_28  and  N_29
REMARK                            x       y       z     vdW  Elec       q    Type
REMARK                         _______ _______ _______ _____ _____    ______ ____
ROOT
ATOM      1  N   UNL     1      33.963 -17.976 -21.146  0.00  0.00    -0.295 N 
ATOM      2  N   UNL     1      33.858 -16.573 -25.039  0.00  0.00    -0.248 NA
ATOM      3  N   UNL     1      33.956 -18.393 -23.462  0.00  0.00    -0.230 NA
ATOM      4  C   UNL     1      33.736 -13.384 -23.242  0.00  0.00    +0.156 C 
ATOM      5  C   UNL     1      33.770 -13.810 -21.919  0.00  0.00    +0.169 C 
ATOM      6  C   UNL     1      33.766 -14.320 -24.280  0.00  0.00    +0.112 C 
ATOM      7  C   UNL     1      33.863 -16.106 -22.686  0.00  0.00    +0.048 C 
ATOM      8  C   UNL     1      33.830 -15.688 -24.027  0.00  0.00    +0.066 C 
ATOM      9  C   UNL     1      33.833 -15.171 -21.637  0.00  0.00    +0.044 C 
ATOM     10  C   UNL     1      33.926 -17.480 -22.473  0.00  0.00    +0.131 C 
ATOM     11  C   UNL     1      33.920 -17.878 -24.701  0.00  0.00    +0.252 C 
ATOM     12  H   UNL     1      33.493 -17.406 -20.496  0.00  0.00    +0.154 HD
ENDROOT
BRANCH   1  16
ATOM     13 CL   UNL     1      36.985 -18.275 -21.438  0.00  0.00    -0.081 Cl
ATOM     14  O   UNL     1      32.400 -19.977 -19.767  0.00  0.00    -0.433 OA
ATOM     15  O   UNL     1      33.333 -21.968 -18.781  0.00  0.00    -0.435 OA
ATOM     16  C   UNL     1      34.539 -19.125 -20.580  0.00  0.00    +0.098 C 
ATOM     17  C   UNL     1      33.749 -20.053 -19.933  0.00  0.00    +0.190 C 
ATOM     18  C   UNL     1      34.282 -21.190 -19.369  0.00  0.00    +0.178 C 
ATOM     19  C   UNL     1      35.911 -19.377 -20.648  0.00  0.00    +0.074 C 
ATOM     20  C   UNL     1      35.634 -21.462 -19.422  0.00  0.00    +0.041 C 
ATOM     21  C   UNL     1      32.144 -21.195 -19.038  0.00  0.00    +0.429 C 
ATOM     22  C   UNL     1      36.456 -20.538 -20.072  0.00  0.00    +0.016 C 
ENDBRANCH   1  16
BRANCH   5  23
ATOM     23  O   UNL     1      33.740 -12.910 -20.898  0.00  0.00    -0.469 OA
ATOM     24  C   UNL     1      32.471 -12.649 -20.299  0.00  0.00    +0.253 C 
ENDBRANCH   5  23
BRANCH   4  25
ATOM     25  O   UNL     1      33.673 -12.049 -23.543  0.00  0.00    -0.476 OA
BRANCH  25  26
ATOM     26  C   UNL     1      32.376 -11.484 -23.686  0.00  0.00    +0.203 C 
BRANCH  26  27
ATOM     27  C   UNL     1      32.395 -10.063 -23.142  0.00  0.00    +0.025 C 
BRANCH  27  28
ATOM     28  C   UNL     1      31.136  -9.755 -22.339  0.00  0.00    -0.074 C 
BRANCH  28  29
ATOM     29  N   UNL     1      31.255  -8.451 -21.687  0.00  0.00    +0.387 N 
ATOM     30  C   UNL     1      32.402  -7.708 -22.226  0.00  0.00    -0.077 C 
ATOM     31  C   UNL     1      31.364  -8.612 -20.230  0.00  0.00    -0.077 C 
ATOM     32  C   UNL     1      32.512  -6.322 -21.591  0.00  0.00    -0.023 C 
ATOM     33  C   UNL     1      31.439  -7.255 -19.530  0.00  0.00    -0.023 C 
ATOM     34  C   UNL     1      32.589  -6.413 -20.071  0.00  0.00    -0.004 C 
ATOM     35  H   UNL     1      30.412  -7.910 -21.882  0.00  0.00    -0.080 HD
ENDBRANCH  28  29
ENDBRANCH  27  28
ENDBRANCH  26  27
ENDBRANCH  25  26
ENDBRANCH   4  25
TORSDOF 7
ENDMDL
MODEL 8
REMARK VINA RESULT:     -10.3      3.164      5.526
REMARK  Name = 5330197
REMARK  7 active torsions:
REMARK  status: ('A' for Active; 'I' for Inactive)
REMARK    1  A    between atoms: N_1  and  C_16
REMARK    2  A    between atoms: C_4  and  O_25
REMARK    3  A    between atoms: C_5  and  O_23
REMARK    4  A    between atoms: O_25  and  C_26
REMARK    5  A    between atoms: C_26  and  C_27
REMARK    6  A    between atoms: C_27  and  C_28
REMARK    7  A    between atoms: C_28  and  N_29
REMARK                            x       y       z     vdW  Elec       q    Type
REMARK                         _______ _______ _______ _____ _____    ______ ____
ROOT
ATOM      1  N   UNL     1      31.231  -7.055 -22.802  0.00  0.00    -0.295 N 
ATOM      2  N   UNL     1      31.515  -8.655 -18.996  0.00  0.00    -0.248 NA
ATOM      3  N   UNL     1      31.216  -6.769 -20.467  0.00  0.00    -0.230 NA
ATOM      4  C   UNL     1      31.948 -11.709 -20.971  0.00  0.00    +0.156 C 
ATOM      5  C   UNL     1      31.859 -11.216 -22.267  0.00  0.00    +0.169 C 
ATOM      6  C   UNL     1      31.831 -10.840 -19.881  0.00  0.00    +0.112 C 
ATOM      7  C   UNL     1      31.536  -8.988 -21.371  0.00  0.00    +0.048 C 
ATOM      8  C   UNL     1      31.625  -9.475 -20.056  0.00  0.00    +0.066 C 
ATOM      9  C   UNL     1      31.653  -9.854 -22.472  0.00  0.00    +0.044 C 
ATOM     10  C   UNL     1      31.330  -7.618 -21.506  0.00  0.00    +0.131 C 
ATOM     11  C   UNL     1      31.317  -7.346 -19.259  0.00  0.00    +0.252 C 
ATOM     12  H   UNL     1      30.858  -7.669 -23.475  0.00  0.00    +0.154 HD
ENDROOT
BRANCH   1  16
ATOM     13 CL   UNL     1      29.473  -4.725 -21.914  0.00  0.00    -0.081 Cl
ATOM     14  O   UNL     1      33.451  -6.636 -24.604  0.00  0.00    -0.433 OA
ATOM     15  O   UNL     1      34.058  -4.489 -25.513  0.00  0.00    -0.435 OA
ATOM     16  C   UNL     1      31.560  -5.789 -23.313  0.00  0.00    +0.098 C 
ATOM     17  C   UNL     1      32.629  -5.640 -24.172  0.00  0.00    +0.190 C 
ATOM     18  C   UNL     1      32.976  -4.414 -24.692  0.00  0.00    +0.178 C 
ATOM     19  C   UNL     1      30.831  -4.644 -22.982  0.00  0.00    +0.074 C 
ATOM     20  C   UNL     1      32.273  -3.268 -24.380  0.00  0.00    +0.041 C 
ATOM     21  C   UNL     1      34.353  -5.898 -25.455  0.00  0.00    +0.429 C 
ATOM     22  C   UNL     1      31.185  -3.391 -23.513  0.00  0.00    +0.016 C 
ENDBRANCH   1  16
BRANCH   5  23
ATOM     23  O   UNL     1      31.970 -12.049 -23.338  0.00  0.00    -0.469 OA
ATOM     24  C   UNL     1      33.188 -11.997 -24.079  0.00  0.00    +0.253 C 
ENDBRANCH   5  23
BRANCH   4  25
ATOM     25  O   UNL     1      32.150 -13.046 -20.746  0.00  0.00    -0.476 OA
BRANCH  25  26
ATOM     26  C   UNL     1      33.497 -13.477 -20.607  0.00  0.00    +0.203 C 
BRANCH  26  27
ATOM     27  C   UNL     1      33.592 -14.937 -21.026  0.00  0.00    +0.025 C 
BRANCH  27  28
ATOM     28  C   UNL     1      34.351 -15.094 -22.340  0.00  0.00    -0.074 C 
BRANCH  28  29
ATOM     29  N   UNL     1      34.836 -16.466 -22.486  0.00  0.00    +0.387 N 
ATOM     30  C   UNL     1      33.945 -17.235 -23.365  0.00  0.00    -0.077 C 
ATOM     31  C   UNL     1      34.969 -17.107 -21.171  0.00  0.00    -0.077 C 
ATOM     32  C   UNL     1      34.465 -18.659 -23.570  0.00  0.00    -0.023 C 
ATOM     33  C   UNL     1      35.523 -18.527 -21.304  0.00  0.00    -0.023 C 
ATOM     34  C   UNL     1      34.664 -19.373 -22.237  0.00  0.00    -0.004 C 
ATOM     35  H   UNL     1      35.759 -16.441 -22.919  0.00  0.00    -0.080 HD
ENDBRANCH  28  29
ENDBRANCH  27  28
ENDBRANCH  26  27
ENDBRANCH  25  26
ENDBRANCH   4  25
TORSDOF 7
ENDMDL
MODEL 9
REMARK VINA RESULT:     -10.2      5.728     13.091
REMARK  Name = 5330197
REMARK  7 active torsions:
REMARK  status: ('A' for Active; 'I' for Inactive)
REMARK    1  A    between atoms: N_1  and  C_16
REMARK    2  A    between atoms: C_4  and  O_25
REMARK    3  A    between atoms: C_5  and  O_23
REMARK    4  A    between atoms: O_25  and  C_26
REMARK    5  A    between atoms: C_26  and  C_27
REMARK    6  A    between atoms: C_27  and  C_28
REMARK    7  A    between atoms: C_28  and  N_29
REMARK                            x       y       z     vdW  Elec       q    Type
REMARK                         _______ _______ _______ _____ _____    ______ ____
ROOT
ATOM      1  N   UNL     1      36.062 -22.705 -14.685  0.00  0.00    -0.295 N 
ATOM      2  N   UNL     1      33.254 -23.155 -17.692  0.00  0.00    -0.248 NA
ATOM      3  N   UNL     1      34.152 -23.778 -15.544  0.00  0.00    -0.230 NA
ATOM      4  C   UNL     1      35.283 -20.480 -19.154  0.00  0.00    +0.156 C 
ATOM      5  C   UNL     1      36.248 -20.294 -18.170  0.00  0.00    +0.169 C 
ATOM      6  C   UNL     1      34.284 -21.442 -18.982  0.00  0.00    +0.112 C 
ATOM      7  C   UNL     1      35.202 -22.037 -16.852  0.00  0.00    +0.048 C 
ATOM      8  C   UNL     1      34.223 -22.234 -17.839  0.00  0.00    +0.066 C 
ATOM      9  C   UNL     1      36.211 -21.072 -17.016  0.00  0.00    +0.044 C 
ATOM     10  C   UNL     1      35.108 -22.847 -15.724  0.00  0.00    +0.131 C 
ATOM     11  C   UNL     1      33.272 -23.877 -16.553  0.00  0.00    +0.252 C 
ATOM     12  H   UNL     1      36.422 -21.793 -14.598  0.00  0.00    +0.154 HD
ENDROOT
BRANCH   1  16
ATOM     13 CL   UNL     1      38.722 -24.010 -15.413  0.00  0.00    -0.081 Cl
ATOM     14  O   UNL     1      34.731 -23.334 -12.199  0.00  0.00    -0.433 OA
ATOM     15  O   UNL     1      35.591 -24.887 -10.569  0.00  0.00    -0.435 OA
ATOM     16  C   UNL     1      36.592 -23.614 -13.755  0.00  0.00    +0.098 C 
ATOM     17  C   UNL     1      35.917 -23.882 -12.582  0.00  0.00    +0.190 C 
ATOM     18  C   UNL     1      36.408 -24.769 -11.651  0.00  0.00    +0.178 C 
ATOM     19  C   UNL     1      37.802 -24.277 -13.973  0.00  0.00    +0.074 C 
ATOM     20  C   UNL     1      37.601 -25.436 -11.842  0.00  0.00    +0.041 C 
ATOM     21  C   UNL     1      34.531 -23.977 -10.923  0.00  0.00    +0.429 C 
ATOM     22  C   UNL     1      38.303 -25.183 -13.022  0.00  0.00    +0.016 C 
ENDBRANCH   1  16
BRANCH   5  23
ATOM     23  O   UNL     1      37.226 -19.359 -18.322  0.00  0.00    -0.469 OA
ATOM     24  C   UNL     1      37.969 -19.002 -17.158  0.00  0.00    +0.253 C 
ENDBRANCH   5  23
BRANCH   4  25
ATOM     25  O   UNL     1      35.300 -19.724 -20.298  0.00  0.00    -0.476 OA
BRANCH  25  26
ATOM     26  C   UNL     1      34.044 -19.451 -20.904  0.00  0.00    +0.203 C 
BRANCH  26  27
ATOM     27  C   UNL     1      34.273 -18.612 -22.153  0.00  0.00    +0.025 C 
BRANCH  27  28
ATOM     28  C   UNL     1      35.341 -17.547 -21.924  0.00  0.00    -0.074 C 
BRANCH  28  29
ATOM     29  N   UNL     1      35.002 -16.322 -22.648  0.00  0.00    +0.387 N 
ATOM     30  C   UNL     1      34.273 -15.393 -21.774  0.00  0.00    -0.077 C 
ATOM     31  C   UNL     1      34.225 -16.636 -23.855  0.00  0.00    -0.077 C 
ATOM     32  C   UNL     1      33.954 -14.086 -22.500  0.00  0.00    -0.023 C 
ATOM     33  C   UNL     1      33.905 -15.370 -24.650  0.00  0.00    -0.023 C 
ATOM     34  C   UNL     1      33.179 -14.342 -23.788  0.00  0.00    -0.004 C 
ATOM     35  H   UNL     1      35.866 -15.865 -22.939  0.00  0.00    -0.080 HD
ENDBRANCH  28  29
ENDBRANCH  27  28
ENDBRANCH  26  27
ENDBRANCH  25  26
ENDBRANCH   4  25
TORSDOF 7
ENDMDL
