MODEL 1
REMARK VINA RESULT:     -12.4      0.000      0.000
REMARK  Name = 46892373
REMARK  3 active torsions:
REMARK  status: ('A' for Active; 'I' for Inactive)
REMARK    1  A    between atoms: C_7  and  C_20
REMARK    2  A    between atoms: C_20  and  C_22
REMARK    3  A    between atoms: C_20  and  O_28
REMARK                            x       y       z     vdW  Elec       q    Type
REMARK                         _______ _______ _______ _____ _____    ______ ____
ROOT
ATOM      1  N   UNL     1      33.724 -23.273 -16.949  0.00  0.00    -0.326 NA
ATOM      2  N   UNL     1      34.409 -23.863 -14.776  0.00  0.00    -0.271 N 
ATOM      3  N   UNL     1      31.504 -22.425 -17.351  0.00  0.00    -0.345 NA
ATOM      4  N   UNL     1      37.803 -23.405 -15.345  0.00  0.00    -0.239 N 
ATOM      5  N   UNL     1      36.542 -23.197 -15.759  0.00  0.00    -0.166 NA
ATOM      6  C   UNL     1      32.163 -23.016 -15.121  0.00  0.00    +0.072 C 
ATOM      7  C   UNL     1      32.742 -22.800 -17.732  0.00  0.00    +0.146 C 
ATOM      8  C   UNL     1      33.403 -23.369 -15.645  0.00  0.00    +0.199 C 
ATOM      9  C   UNL     1      31.217 -22.535 -16.042  0.00  0.00    +0.129 C 
ATOM     10  C   UNL     1      31.851 -23.126 -13.756  0.00  0.00    +0.006 C 
ATOM     11  C   UNL     1      29.963 -22.171 -15.555  0.00  0.00    +0.086 C 
ATOM     12  C   UNL     1      35.811 -23.795 -14.814  0.00  0.00    +0.152 C 
ATOM     13  C   UNL     1      30.591 -22.756 -13.297  0.00  0.00    -0.004 C 
ATOM     14  C   UNL     1      29.647 -22.278 -14.198  0.00  0.00    -0.019 C 
ATOM     15  C   UNL     1      36.599 -24.380 -13.806  0.00  0.00    +0.048 C 
ATOM     16  C   UNL     1      37.892 -24.109 -14.181  0.00  0.00    +0.046 C 
ATOM     17  C   UNL     1      39.185 -24.442 -13.563  0.00  0.00    +0.049 C 
ATOM     18  H   UNL     1      34.056 -24.348 -13.996  0.00  0.00    +0.156 HD
ATOM     19  H   UNL     1      38.591 -23.079 -15.839  0.00  0.00    +0.174 HD
ENDROOT
BRANCH   7  20
ATOM     20  C   UNL     1      33.053 -22.676 -19.187  0.00  0.00    +0.243 C 
BRANCH  20  22
ATOM     21  F   UNL     1      36.504 -18.372 -20.422  0.00  0.00    -0.204 F 
ATOM     22  C   UNL     1      33.983 -21.515 -19.520  0.00  0.00    +0.021 C 
ATOM     23  C   UNL     1      33.516 -20.443 -20.280  0.00  0.00    +0.001 C 
ATOM     24  C   UNL     1      35.302 -21.526 -19.065  0.00  0.00    +0.001 C 
ATOM     25  C   UNL     1      34.368 -19.381 -20.585  0.00  0.00    +0.029 C 
ATOM     26  C   UNL     1      36.154 -20.464 -19.370  0.00  0.00    +0.029 C 
ATOM     27  C   UNL     1      35.686 -19.392 -20.130  0.00  0.00    +0.140 C 
ENDBRANCH  20  22
BRANCH  20  28
ATOM     28  O   UNL     1      33.596 -23.891 -19.733  0.00  0.00    -0.366 OA
ATOM     29  H   UNL     1      34.351 -23.681 -20.305  0.00  0.00    +0.212 HD
ENDBRANCH  20  28
ENDBRANCH   7  20
TORSDOF 3
ENDMDL
MODEL 2
REMARK VINA RESULT:     -12.0      1.658      5.323
REMARK  Name = 46892373
REMARK  3 active torsions:
REMARK  status: ('A' for Active; 'I' for Inactive)
REMARK    1  A    between atoms: C_7  and  C_20
REMARK    2  A    between atoms: C_20  and  C_22
REMARK    3  A    between atoms: C_20  and  O_28
REMARK                            x       y       z     vdW  Elec       q    Type
REMARK                         _______ _______ _______ _____ _____    ______ ____
ROOT
ATOM      1  N   UNL     1      31.815 -22.378 -17.145  0.00  0.00    -0.326 NA
ATOM      2  N   UNL     1      30.500 -22.159 -15.206  0.00  0.00    -0.271 N 
ATOM      3  N   UNL     1      34.069 -23.219 -17.014  0.00  0.00    -0.345 NA
ATOM      4  N   UNL     1      27.442 -22.387 -16.833  0.00  0.00    -0.239 N 
ATOM      5  N   UNL     1      28.772 -22.563 -16.882  0.00  0.00    -0.166 NA
ATOM      6  C   UNL     1      32.762 -23.011 -15.013  0.00  0.00    +0.072 C 
ATOM      7  C   UNL     1      32.995 -22.739 -17.673  0.00  0.00    +0.146 C 
ATOM      8  C   UNL     1      31.729 -22.527 -15.810  0.00  0.00    +0.199 C 
ATOM      9  C   UNL     1      33.949 -23.355 -15.681  0.00  0.00    +0.129 C 
ATOM     10  C   UNL     1      32.649 -23.157 -13.621  0.00  0.00    +0.006 C 
ATOM     11  C   UNL     1      35.007 -23.844 -14.918  0.00  0.00    +0.086 C 
ATOM     12  C   UNL     1      29.175 -22.169 -15.671  0.00  0.00    +0.152 C 
ATOM     13  C   UNL     1      33.720 -23.648 -12.882  0.00  0.00    -0.004 C 
ATOM     14  C   UNL     1      34.900 -23.992 -13.532  0.00  0.00    -0.019 C 
ATOM     15  C   UNL     1      28.111 -21.744 -14.855  0.00  0.00    +0.048 C 
ATOM     16  C   UNL     1      26.994 -21.898 -15.641  0.00  0.00    +0.046 C 
ATOM     17  C   UNL     1      25.569 -21.634 -15.386  0.00  0.00    +0.049 C 
ATOM     18  H   UNL     1      30.594 -21.833 -14.282  0.00  0.00    +0.156 HD
ATOM     19  H   UNL     1      26.844 -22.591 -17.589  0.00  0.00    +0.174 HD
ENDROOT
BRANCH   7  20
ATOM     20  C   UNL     1      33.137 -22.591 -19.151  0.00  0.00    +0.243 C 
BRANCH  20  22
ATOM     21  F   UNL     1      36.292 -18.167 -20.710  0.00  0.00    -0.204 F 
ATOM     22  C   UNL     1      33.987 -21.398 -19.571  0.00  0.00    +0.021 C 
ATOM     23  C   UNL     1      33.406 -20.337 -20.265  0.00  0.00    +0.001 C 
ATOM     24  C   UNL     1      35.347 -21.368 -19.262  0.00  0.00    +0.001 C 
ATOM     25  C   UNL     1      34.184 -19.245 -20.649  0.00  0.00    +0.029 C 
ATOM     26  C   UNL     1      36.126 -20.276 -19.647  0.00  0.00    +0.029 C 
ATOM     27  C   UNL     1      35.544 -19.215 -20.341  0.00  0.00    +0.140 C 
ENDBRANCH  20  22
BRANCH  20  28
ATOM     28  O   UNL     1      33.652 -23.783 -19.771  0.00  0.00    -0.366 OA
ATOM     29  H   UNL     1      33.514 -24.541 -19.181  0.00  0.00    +0.212 HD
ENDBRANCH  20  28
ENDBRANCH   7  20
TORSDOF 3
ENDMDL
MODEL 3
REMARK VINA RESULT:     -11.9      3.107      6.779
REMARK  Name = 46892373
REMARK  3 active torsions:
REMARK  status: ('A' for Active; 'I' for Inactive)
REMARK    1  A    between atoms: C_7  and  C_20
REMARK    2  A    between atoms: C_20  and  C_22
REMARK    3  A    between atoms: C_20  and  O_28
REMARK                            x       y       z     vdW  Elec       q    Type
REMARK                         _______ _______ _______ _____ _____    ______ ____
ROOT
ATOM      1  N   UNL     1      35.001 -22.708 -15.983  0.00  0.00    -0.326 NA
ATOM      2  N   UNL     1      32.766 -22.962 -16.673  0.00  0.00    -0.271 N 
ATOM      3  N   UNL     1      36.564 -21.448 -17.317  0.00  0.00    -0.345 NA
ATOM      4  N   UNL     1      31.479 -23.488 -13.491  0.00  0.00    -0.239 N 
ATOM      5  N   UNL     1      32.508 -23.072 -14.248  0.00  0.00    -0.166 NA
ATOM      6  C   UNL     1      34.293 -21.685 -18.056  0.00  0.00    +0.072 C 
ATOM      7  C   UNL     1      36.210 -22.190 -16.248  0.00  0.00    +0.146 C 
ATOM      8  C   UNL     1      34.061 -22.437 -16.908  0.00  0.00    +0.199 C 
ATOM      9  C   UNL     1      35.600 -21.197 -18.222  0.00  0.00    +0.129 C 
ATOM     10  C   UNL     1      33.295 -21.416 -19.008  0.00  0.00    +0.006 C 
ATOM     11  C   UNL     1      35.872 -20.439 -19.359  0.00  0.00    +0.086 C 
ATOM     12  C   UNL     1      32.060 -23.252 -15.493  0.00  0.00    +0.152 C 
ATOM     13  C   UNL     1      33.594 -20.657 -20.134  0.00  0.00    -0.004 C 
ATOM     14  C   UNL     1      34.883 -20.168 -20.309  0.00  0.00    -0.019 C 
ATOM     15  C   UNL     1      30.756 -23.780 -15.532  0.00  0.00    +0.048 C 
ATOM     16  C   UNL     1      30.406 -23.923 -14.211  0.00  0.00    +0.046 C 
ATOM     17  C   UNL     1      29.179 -24.421 -13.568  0.00  0.00    +0.049 C 
ATOM     18  H   UNL     1      32.264 -23.165 -17.495  0.00  0.00    +0.156 HD
ATOM     19  H   UNL     1      31.499 -23.482 -12.506  0.00  0.00    +0.174 HD
ENDROOT
BRANCH   7  20
ATOM     20  C   UNL     1      37.285 -22.464 -15.249  0.00  0.00    +0.243 C 
BRANCH  20  22
ATOM     21  F   UNL     1      35.435 -24.995 -10.545  0.00  0.00    -0.204 F 
ATOM     22  C   UNL     1      36.786 -23.146 -13.981  0.00  0.00    +0.021 C 
ATOM     23  C   UNL     1      36.203 -22.389 -12.965  0.00  0.00    +0.001 C 
ATOM     24  C   UNL     1      36.913 -24.528 -13.835  0.00  0.00    +0.001 C 
ATOM     25  C   UNL     1      35.745 -23.013 -11.804  0.00  0.00    +0.029 C 
ATOM     26  C   UNL     1      36.457 -25.153 -12.674  0.00  0.00    +0.029 C 
ATOM     27  C   UNL     1      35.873 -24.395 -11.659  0.00  0.00    +0.140 C 
ENDBRANCH  20  22
BRANCH  20  28
ATOM     28  O   UNL     1      38.365 -23.234 -15.809  0.00  0.00    -0.366 OA
ATOM     29  H   UNL     1      38.015 -24.057 -16.184  0.00  0.00    +0.212 HD
ENDBRANCH  20  28
ENDBRANCH   7  20
TORSDOF 3
ENDMDL
MODEL 4
REMARK VINA RESULT:     -11.9      2.988      7.197
REMARK  Name = 46892373
REMARK  3 active torsions:
REMARK  status: ('A' for Active; 'I' for Inactive)
REMARK    1  A    between atoms: C_7  and  C_20
REMARK    2  A    between atoms: C_20  and  C_22
REMARK    3  A    between atoms: C_20  and  O_28
REMARK                            x       y       z     vdW  Elec       q    Type
REMARK                         _______ _______ _______ _____ _____    ______ ____
ROOT
ATOM      1  N   UNL     1      33.182 -23.092 -15.397  0.00  0.00    -0.326 NA
ATOM      2  N   UNL     1      31.469 -22.482 -16.891  0.00  0.00    -0.271 N 
ATOM      3  N   UNL     1      35.491 -22.649 -15.927  0.00  0.00    -0.345 NA
ATOM      4  N   UNL     1      28.979 -22.241 -14.483  0.00  0.00    -0.239 N 
ATOM      5  N   UNL     1      30.291 -22.318 -14.759  0.00  0.00    -0.166 NA
ATOM      6  C   UNL     1      33.774 -22.012 -17.477  0.00  0.00    +0.072 C 
ATOM      7  C   UNL     1      34.499 -23.116 -15.142  0.00  0.00    +0.146 C 
ATOM      8  C   UNL     1      32.850 -22.532 -16.575  0.00  0.00    +0.199 C 
ATOM      9  C   UNL     1      35.124 -22.096 -17.098  0.00  0.00    +0.129 C 
ATOM     10  C   UNL     1      33.403 -21.432 -18.702  0.00  0.00    +0.006 C 
ATOM     11  C   UNL     1      36.079 -21.586 -17.974  0.00  0.00    +0.086 C 
ATOM     12  C   UNL     1      30.317 -22.388 -16.092  0.00  0.00    +0.152 C 
ATOM     13  C   UNL     1      34.377 -20.931 -19.559  0.00  0.00    -0.004 C 
ATOM     14  C   UNL     1      35.716 -21.008 -19.194  0.00  0.00    -0.019 C 
ATOM     15  C   UNL     1      29.032 -22.355 -16.663  0.00  0.00    +0.048 C 
ATOM     16  C   UNL     1      28.182 -22.259 -15.589  0.00  0.00    +0.046 C 
ATOM     17  C   UNL     1      26.714 -22.185 -15.499  0.00  0.00    +0.049 C 
ATOM     18  H   UNL     1      31.280 -22.522 -17.856  0.00  0.00    +0.156 HD
ATOM     19  H   UNL     1      28.625 -22.177 -13.566  0.00  0.00    +0.174 HD
ENDROOT
BRANCH   7  20
ATOM     20  C   UNL     1      34.915 -23.728 -13.846  0.00  0.00    +0.243 C 
BRANCH  20  22
ATOM     21  F   UNL     1      40.049 -26.090 -13.980  0.00  0.00    -0.204 F 
ATOM     22  C   UNL     1      36.299 -24.365 -13.882  0.00  0.00    +0.021 C 
ATOM     23  C   UNL     1      36.496 -25.568 -14.560  0.00  0.00    +0.001 C 
ATOM     24  C   UNL     1      37.369 -23.745 -13.237  0.00  0.00    +0.001 C 
ATOM     25  C   UNL     1      37.763 -26.150 -14.594  0.00  0.00    +0.029 C 
ATOM     26  C   UNL     1      38.636 -24.328 -13.269  0.00  0.00    +0.029 C 
ATOM     27  C   UNL     1      38.833 -25.531 -13.949  0.00  0.00    +0.140 C 
ENDBRANCH  20  22
BRANCH  20  28
ATOM     28  O   UNL     1      34.852 -22.791 -12.756  0.00  0.00    -0.366 OA
ATOM     29  H   UNL     1      33.987 -22.855 -12.322  0.00  0.00    +0.212 HD
ENDBRANCH  20  28
ENDBRANCH   7  20
TORSDOF 3
ENDMDL
MODEL 5
REMARK VINA RESULT:     -11.7      2.972      5.859
REMARK  Name = 46892373
REMARK  3 active torsions:
REMARK  status: ('A' for Active; 'I' for Inactive)
REMARK    1  A    between atoms: C_7  and  C_20
REMARK    2  A    between atoms: C_20  and  C_22
REMARK    3  A    between atoms: C_20  and  O_28
REMARK                            x       y       z     vdW  Elec       q    Type
REMARK                         _______ _______ _______ _____ _____    ______ ____
ROOT
ATOM      1  N   UNL     1      32.918 -22.649 -16.427  0.00  0.00    -0.326 NA
ATOM      2  N   UNL     1      35.229 -22.635 -15.986  0.00  0.00    -0.271 N 
ATOM      3  N   UNL     1      32.041 -21.628 -18.427  0.00  0.00    -0.345 NA
ATOM      4  N   UNL     1      35.212 -25.452 -13.957  0.00  0.00    -0.239 N 
ATOM      5  N   UNL     1      34.564 -24.695 -14.858  0.00  0.00    -0.166 NA
ATOM      6  C   UNL     1      34.404 -21.592 -18.014  0.00  0.00    +0.072 C 
ATOM      7  C   UNL     1      31.927 -22.295 -17.260  0.00  0.00    +0.146 C 
ATOM      8  C   UNL     1      34.148 -22.283 -16.833  0.00  0.00    +0.199 C 
ATOM      9  C   UNL     1      33.284 -21.277 -18.801  0.00  0.00    +0.129 C 
ATOM     10  C   UNL     1      35.698 -21.220 -18.416  0.00  0.00    +0.006 C 
ATOM     11  C   UNL     1      33.500 -20.586 -19.992  0.00  0.00    +0.086 C 
ATOM     12  C   UNL     1      35.429 -23.706 -15.100  0.00  0.00    +0.152 C 
ATOM     13  C   UNL     1      35.885 -20.530 -19.609  0.00  0.00    -0.004 C 
ATOM     14  C   UNL     1      34.785 -20.213 -20.398  0.00  0.00    -0.019 C 
ATOM     15  C   UNL     1      36.619 -23.830 -14.360  0.00  0.00    +0.048 C 
ATOM     16  C   UNL     1      36.446 -24.978 -13.625  0.00  0.00    +0.046 C 
ATOM     17  C   UNL     1      37.314 -25.663 -12.653  0.00  0.00    +0.049 C 
ATOM     18  H   UNL     1      35.986 -22.007 -16.026  0.00  0.00    +0.156 HD
ATOM     19  H   UNL     1      34.830 -26.275 -13.572  0.00  0.00    +0.174 HD
ENDROOT
BRANCH   7  20
ATOM     20  C   UNL     1      30.544 -22.680 -16.851  0.00  0.00    +0.243 C 
BRANCH  20  22
ATOM     21  F   UNL     1      30.226 -24.829 -11.632  0.00  0.00    -0.204 F 
ATOM     22  C   UNL     1      30.458 -23.260 -15.444  0.00  0.00    +0.021 C 
ATOM     23  C   UNL     1      29.944 -24.541 -15.248  0.00  0.00    +0.001 C 
ATOM     24  C   UNL     1      30.893 -22.509 -14.353  0.00  0.00    +0.001 C 
ATOM     25  C   UNL     1      29.866 -25.072 -13.960  0.00  0.00    +0.029 C 
ATOM     26  C   UNL     1      30.815 -23.038 -13.064  0.00  0.00    +0.029 C 
ATOM     27  C   UNL     1      30.301 -24.321 -12.869  0.00  0.00    +0.140 C 
ENDBRANCH  20  22
BRANCH  20  28
ATOM     28  O   UNL     1      29.616 -21.587 -16.971  0.00  0.00    -0.366 OA
ATOM     29  H   UNL     1      29.996 -20.900 -17.542  0.00  0.00    +0.212 HD
ENDBRANCH  20  28
ENDBRANCH   7  20
TORSDOF 3
ENDMDL
MODEL 6
REMARK VINA RESULT:     -11.5      2.962      5.617
REMARK  Name = 46892373
REMARK  3 active torsions:
REMARK  status: ('A' for Active; 'I' for Inactive)
REMARK    1  A    between atoms: C_7  and  C_20
REMARK    2  A    between atoms: C_20  and  C_22
REMARK    3  A    between atoms: C_20  and  O_28
REMARK                            x       y       z     vdW  Elec       q    Type
REMARK                         _______ _______ _______ _____ _____    ______ ____
ROOT
ATOM      1  N   UNL     1      34.023 -23.296 -15.111  0.00  0.00    -0.326 NA
ATOM      2  N   UNL     1      36.265 -22.947 -15.732  0.00  0.00    -0.271 N 
ATOM      3  N   UNL     1      32.224 -22.560 -16.536  0.00  0.00    -0.345 NA
ATOM      4  N   UNL     1      37.556 -25.572 -13.862  0.00  0.00    -0.239 N 
ATOM      5  N   UNL     1      36.475 -24.979 -14.397  0.00  0.00    -0.166 NA
ATOM      6  C   UNL     1      34.497 -22.184 -17.204  0.00  0.00    +0.072 C 
ATOM      7  C   UNL     1      32.728 -23.141 -15.428  0.00  0.00    +0.146 C 
ATOM      8  C   UNL     1      34.885 -22.806 -16.021  0.00  0.00    +0.199 C 
ATOM      9  C   UNL     1      33.113 -22.081 -17.424  0.00  0.00    +0.129 C 
ATOM     10  C   UNL     1      35.416 -21.680 -18.140  0.00  0.00    +0.006 C 
ATOM     11  C   UNL     1      32.685 -21.465 -18.598  0.00  0.00    +0.086 C 
ATOM     12  C   UNL     1      36.989 -23.909 -15.008  0.00  0.00    +0.152 C 
ATOM     13  C   UNL     1      34.962 -21.069 -19.304  0.00  0.00    -0.004 C 
ATOM     14  C   UNL     1      33.595 -20.962 -19.533  0.00  0.00    -0.019 C 
ATOM     15  C   UNL     1      38.386 -23.818 -14.865  0.00  0.00    +0.048 C 
ATOM     16  C   UNL     1      38.725 -24.916 -14.112  0.00  0.00    +0.046 C 
ATOM     17  C   UNL     1      40.020 -25.403 -13.612  0.00  0.00    +0.049 C 
ATOM     18  H   UNL     1      36.826 -22.231 -16.109  0.00  0.00    +0.156 HD
ATOM     19  H   UNL     1      37.507 -26.404 -13.336  0.00  0.00    +0.174 HD
ENDROOT
BRANCH   7  20
ATOM     20  C   UNL     1      31.734 -23.669 -14.447  0.00  0.00    +0.243 C 
BRANCH  20  22
ATOM     21  F   UNL     1      26.366 -22.531 -15.806  0.00  0.00    -0.204 F 
ATOM     22  C   UNL     1      30.287 -23.363 -14.813  0.00  0.00    +0.021 C 
ATOM     23  C   UNL     1      29.519 -24.317 -15.481  0.00  0.00    +0.001 C 
ATOM     24  C   UNL     1      29.730 -22.127 -14.482  0.00  0.00    +0.001 C 
ATOM     25  C   UNL     1      28.194 -24.036 -15.815  0.00  0.00    +0.029 C 
ATOM     26  C   UNL     1      28.405 -21.846 -14.817  0.00  0.00    +0.029 C 
ATOM     27  C   UNL     1      27.638 -22.801 -15.484  0.00  0.00    +0.140 C 
ENDBRANCH  20  22
BRANCH  20  28
ATOM     28  O   UNL     1      31.881 -25.084 -14.233  0.00  0.00    -0.366 OA
ATOM     29  H   UNL     1      32.698 -25.255 -13.739  0.00  0.00    +0.212 HD
ENDBRANCH  20  28
ENDBRANCH   7  20
TORSDOF 3
ENDMDL
MODEL 7
REMARK VINA RESULT:     -11.4      2.672      5.498
REMARK  Name = 46892373
REMARK  3 active torsions:
REMARK  status: ('A' for Active; 'I' for Inactive)
REMARK    1  A    between atoms: C_7  and  C_20
REMARK    2  A    between atoms: C_20  and  C_22
REMARK    3  A    between atoms: C_20  and  O_28
REMARK                            x       y       z     vdW  Elec       q    Type
REMARK                         _______ _______ _______ _____ _____    ______ ____
ROOT
ATOM      1  N   UNL     1      32.882 -23.056 -14.935  0.00  0.00    -0.326 NA
ATOM      2  N   UNL     1      31.826 -22.198 -16.855  0.00  0.00    -0.271 N 
ATOM      3  N   UNL     1      31.680 -24.471 -13.399  0.00  0.00    -0.345 NA
ATOM      4  N   UNL     1      34.738 -21.787 -18.699  0.00  0.00    -0.239 N 
ATOM      5  N   UNL     1      34.136 -22.337 -17.632  0.00  0.00    -0.166 NA
ATOM      6  C   UNL     1      30.566 -23.616 -15.344  0.00  0.00    +0.072 C 
ATOM      7  C   UNL     1      32.772 -23.807 -13.829  0.00  0.00    +0.146 C 
ATOM      8  C   UNL     1      31.760 -22.980 -15.675  0.00  0.00    +0.199 C 
ATOM      9  C   UNL     1      30.576 -24.373 -14.161  0.00  0.00    +0.129 C 
ATOM     10  C   UNL     1      29.407 -23.521 -16.132  0.00  0.00    +0.006 C 
ATOM     11  C   UNL     1      29.399 -25.025 -13.796  0.00  0.00    +0.086 C 
ATOM     12  C   UNL     1      32.877 -21.902 -17.737  0.00  0.00    +0.152 C 
ATOM     13  C   UNL     1      28.245 -24.182 -15.745  0.00  0.00    -0.004 C 
ATOM     14  C   UNL     1      28.243 -24.935 -14.576  0.00  0.00    -0.019 C 
ATOM     15  C   UNL     1      32.678 -21.081 -18.863  0.00  0.00    +0.048 C 
ATOM     16  C   UNL     1      33.910 -21.026 -19.469  0.00  0.00    +0.046 C 
ATOM     17  C   UNL     1      34.378 -20.337 -20.682  0.00  0.00    +0.049 C 
ATOM     18  H   UNL     1      30.970 -21.782 -17.105  0.00  0.00    +0.156 HD
ATOM     19  H   UNL     1      35.692 -21.922 -18.907  0.00  0.00    +0.174 HD
ENDROOT
BRANCH   7  20
ATOM     20  C   UNL     1      33.993 -23.921 -12.977  0.00  0.00    +0.243 C 
BRANCH  20  22
ATOM     21  F   UNL     1      38.823 -23.094 -15.796  0.00  0.00    -0.204 F 
ATOM     22  C   UNL     1      35.295 -23.698 -13.738  0.00  0.00    +0.021 C 
ATOM     23  C   UNL     1      36.188 -24.754 -13.915  0.00  0.00    +0.001 C 
ATOM     24  C   UNL     1      35.594 -22.438 -14.255  0.00  0.00    +0.001 C 
ATOM     25  C   UNL     1      37.380 -24.551 -14.611  0.00  0.00    +0.029 C 
ATOM     26  C   UNL     1      36.786 -22.233 -14.950  0.00  0.00    +0.029 C 
ATOM     27  C   UNL     1      37.679 -23.290 -15.128  0.00  0.00    +0.140 C 
ENDBRANCH  20  22
BRANCH  20  28
ATOM     28  O   UNL     1      33.949 -23.038 -11.842  0.00  0.00    -0.366 OA
ATOM     29  H   UNL     1      33.367 -22.287 -12.038  0.00  0.00    +0.212 HD
ENDBRANCH  20  28
ENDBRANCH   7  20
TORSDOF 3
ENDMDL
MODEL 8
REMARK VINA RESULT:     -11.3      2.019      5.370
REMARK  Name = 46892373
REMARK  3 active torsions:
REMARK  status: ('A' for Active; 'I' for Inactive)
REMARK    1  A    between atoms: C_7  and  C_20
REMARK    2  A    between atoms: C_20  and  C_22
REMARK    3  A    between atoms: C_20  and  O_28
REMARK                            x       y       z     vdW  Elec       q    Type
REMARK                         _______ _______ _______ _____ _____    ______ ____
ROOT
ATOM      1  N   UNL     1      35.185 -22.194 -15.400  0.00  0.00    -0.326 NA
ATOM      2  N   UNL     1      33.615 -22.972 -13.830  0.00  0.00    -0.271 N 
ATOM      3  N   UNL     1      37.490 -22.888 -15.283  0.00  0.00    -0.345 NA
ATOM      4  N   UNL     1      30.842 -22.560 -15.878  0.00  0.00    -0.239 N 
ATOM      5  N   UNL     1      32.179 -22.628 -15.774  0.00  0.00    -0.166 NA
ATOM      6  C   UNL     1      35.920 -23.704 -13.662  0.00  0.00    +0.072 C 
ATOM      7  C   UNL     1      36.458 -22.208 -15.824  0.00  0.00    +0.146 C 
ATOM      8  C   UNL     1      34.947 -22.954 -14.315  0.00  0.00    +0.199 C 
ATOM      9  C   UNL     1      37.216 -23.637 -14.199  0.00  0.00    +0.129 C 
ATOM     10  C   UNL     1      35.647 -24.490 -12.530  0.00  0.00    +0.006 C 
ATOM     11  C   UNL     1      38.219 -24.375 -13.573  0.00  0.00    +0.086 C 
ATOM     12  C   UNL     1      32.372 -22.827 -14.468  0.00  0.00    +0.152 C 
ATOM     13  C   UNL     1      36.667 -25.216 -11.923  0.00  0.00    -0.004 C 
ATOM     14  C   UNL     1      37.954 -25.159 -12.446  0.00  0.00    -0.019 C 
ATOM     15  C   UNL     1      31.167 -22.886 -13.743  0.00  0.00    +0.048 C 
ATOM     16  C   UNL     1      30.188 -22.709 -14.691  0.00  0.00    +0.046 C 
ATOM     17  C   UNL     1      28.721 -22.664 -14.592  0.00  0.00    +0.049 C 
ATOM     18  H   UNL     1      33.548 -23.112 -12.858  0.00  0.00    +0.156 HD
ATOM     19  H   UNL     1      30.376 -22.416 -16.734  0.00  0.00    +0.174 HD
ENDROOT
BRANCH   7  20
ATOM     20  C   UNL     1      36.770 -21.380 -17.025  0.00  0.00    +0.243 C 
BRANCH  20  22
ATOM     21  F   UNL     1      32.436 -20.859 -20.619  0.00  0.00    -0.204 F 
ATOM     22  C   UNL     1      35.602 -21.240 -17.995  0.00  0.00    +0.021 C 
ATOM     23  C   UNL     1      35.741 -20.468 -19.148  0.00  0.00    +0.001 C 
ATOM     24  C   UNL     1      34.393 -21.882 -17.727  0.00  0.00    +0.001 C 
ATOM     25  C   UNL     1      34.672 -20.340 -20.035  0.00  0.00    +0.029 C 
ATOM     26  C   UNL     1      33.323 -21.753 -18.614  0.00  0.00    +0.029 C 
ATOM     27  C   UNL     1      33.463 -20.982 -19.768  0.00  0.00    +0.140 C 
ENDBRANCH  20  22
BRANCH  20  28
ATOM     28  O   UNL     1      37.254 -20.071 -16.674  0.00  0.00    -0.366 OA
ATOM     29  H   UNL     1      38.161 -20.141 -16.336  0.00  0.00    +0.212 HD
ENDBRANCH  20  28
ENDBRANCH   7  20
TORSDOF 3
ENDMDL
MODEL 9
REMARK VINA RESULT:     -10.9      3.114      7.331
REMARK  Name = 46892373
REMARK  3 active torsions:
REMARK  status: ('A' for Active; 'I' for Inactive)
REMARK    1  A    between atoms: C_7  and  C_20
REMARK    2  A    between atoms: C_20  and  C_22
REMARK    3  A    between atoms: C_20  and  O_28
REMARK                            x       y       z     vdW  Elec       q    Type
REMARK                         _______ _______ _______ _____ _____    ______ ____
ROOT
ATOM      1  N   UNL     1      32.128 -23.391 -15.470  0.00  0.00    -0.326 NA
ATOM      2  N   UNL     1      30.539 -22.444 -16.924  0.00  0.00    -0.271 N 
ATOM      3  N   UNL     1      34.487 -23.162 -15.909  0.00  0.00    -0.345 NA
ATOM      4  N   UNL     1      28.021 -22.164 -14.550  0.00  0.00    -0.239 N 
ATOM      5  N   UNL     1      29.324 -22.362 -14.808  0.00  0.00    -0.166 NA
ATOM      6  C   UNL     1      32.898 -22.182 -17.417  0.00  0.00    +0.072 C 
ATOM      7  C   UNL     1      33.427 -23.589 -15.194  0.00  0.00    +0.146 C 
ATOM      8  C   UNL     1      31.896 -22.681 -16.590  0.00  0.00    +0.199 C 
ATOM      9  C   UNL     1      34.219 -22.456 -17.023  0.00  0.00    +0.129 C 
ATOM     10  C   UNL     1      32.631 -21.445 -18.582  0.00  0.00    +0.006 C 
ATOM     11  C   UNL     1      35.250 -21.973 -17.824  0.00  0.00    +0.086 C 
ATOM     12  C   UNL     1      29.382 -22.301 -16.141  0.00  0.00    +0.152 C 
ATOM     13  C   UNL     1      33.679 -20.974 -19.365  0.00  0.00    -0.004 C 
ATOM     14  C   UNL     1      34.991 -21.238 -18.985  0.00  0.00    -0.019 C 
ATOM     15  C   UNL     1      28.125 -22.066 -16.730  0.00  0.00    +0.048 C 
ATOM     16  C   UNL     1      27.259 -21.982 -15.667  0.00  0.00    +0.046 C 
ATOM     17  C   UNL     1      25.807 -21.752 -15.597  0.00  0.00    +0.049 C 
ATOM     18  H   UNL     1      30.375 -22.366 -17.891  0.00  0.00    +0.156 HD
ATOM     19  H   UNL     1      27.649 -22.153 -13.638  0.00  0.00    +0.174 HD
ENDROOT
BRANCH   7  20
ATOM     20  C   UNL     1      33.733 -24.371 -13.960  0.00  0.00    +0.243 C 
BRANCH  20  22
ATOM     21  F   UNL     1      38.835 -23.288 -11.780  0.00  0.00    -0.204 F 
ATOM     22  C   UNL     1      35.109 -24.079 -13.373  0.00  0.00    +0.021 C 
ATOM     23  C   UNL     1      36.204 -24.862 -13.739  0.00  0.00    +0.001 C 
ATOM     24  C   UNL     1      35.273 -23.030 -12.468  0.00  0.00    +0.001 C 
ATOM     25  C   UNL     1      37.463 -24.594 -13.202  0.00  0.00    +0.029 C 
ATOM     26  C   UNL     1      36.532 -22.763 -11.929  0.00  0.00    +0.029 C 
ATOM     27  C   UNL     1      37.627 -23.545 -12.297  0.00  0.00    +0.140 C 
ENDBRANCH  20  22
BRANCH  20  28
ATOM     28  O   UNL     1      32.734 -24.192 -12.940  0.00  0.00    -0.366 OA
ATOM     29  H   UNL     1      32.906 -24.804 -12.207  0.00  0.00    +0.212 HD
ENDBRANCH  20  28
ENDBRANCH   7  20
TORSDOF 3
ENDMDL
