MODEL 1
REMARK VINA RESULT:     -12.6      0.000      0.000
REMARK  Name = 4261
REMARK  8 active torsions:
REMARK  status: ('A' for Active; 'I' for Inactive)
REMARK    1  A    between atoms: C_1  and  C_20
REMARK    2  A    between atoms: C_2  and  C_9
REMARK    3  A    between atoms: N_8  and  C_11
REMARK    4  A    between atoms: C_12  and  N_17
REMARK    5  A    between atoms: C_20  and  N_22
REMARK    6  A    between atoms: C_23  and  O_25
REMARK    7  A    between atoms: O_25  and  C_26
REMARK    8  A    between atoms: C_26  and  C_28
REMARK                            x       y       z     vdW  Elec       q    Type
REMARK                         _______ _______ _______ _____ _____    ______ ____
ROOT
ATOM      1  C   UNL     1      34.781 -20.894 -19.488  0.00  0.00    -0.002 C 
ATOM      2  C   UNL     1      35.046 -22.022 -16.960  0.00  0.00    +0.054 C 
ATOM      3  C   UNL     1      33.689 -21.518 -18.895  0.00  0.00    -0.002 C 
ATOM      4  C   UNL     1      36.004 -20.829 -18.830  0.00  0.00    -0.002 C 
ATOM      5  C   UNL     1      33.822 -22.083 -17.628  0.00  0.00    +0.004 C 
ATOM      6  C   UNL     1      36.137 -21.394 -17.562  0.00  0.00    +0.004 C 
ENDROOT
BRANCH   2   9
ATOM      7  O   UNL     1      34.303 -22.404 -14.790  0.00  0.00    -0.270 OA
ATOM      8  N   UNL     1      36.321 -23.409 -15.441  0.00  0.00    -0.279 N 
ATOM      9  C   UNL     1      35.184 -22.612 -15.640  0.00  0.00    +0.250 C 
ATOM     10  H   UNL     1      36.932 -23.481 -16.210  0.00  0.00    +0.155 HD
BRANCH   8  11
ATOM     11  C   UNL     1      36.705 -24.124 -14.281  0.00  0.00    +0.064 C 
ATOM     12  C   UNL     1      36.389 -25.467 -14.149  0.00  0.00    +0.055 C 
ATOM     13  C   UNL     1      37.401 -23.447 -13.292  0.00  0.00    +0.016 C 
ATOM     14  C   UNL     1      36.778 -26.150 -12.996  0.00  0.00    +0.015 C 
ATOM     15  C   UNL     1      37.790 -24.130 -12.140  0.00  0.00    +0.001 C 
ATOM     16  C   UNL     1      37.478 -25.482 -11.992  0.00  0.00    +0.001 C 
BRANCH  12  17
ATOM     17  N   UNL     1      35.681 -26.164 -15.154  0.00  0.00    -0.356 N 
ATOM     18  H   UNL     1      36.058 -26.988 -15.538  0.00  0.00    +0.142 HD
ATOM     19  H   UNL     1      34.813 -25.825 -15.469  0.00  0.00    +0.142 HD
ENDBRANCH  12  17
ENDBRANCH   8  11
ENDBRANCH   2   9
BRANCH   1  20
ATOM     20  C   UNL     1      34.639 -20.284 -20.852  0.00  0.00    +0.119 C 
BRANCH  20  22
ATOM     21  O   UNL     1      36.566 -18.118 -21.020  0.00  0.00    -0.226 OA
ATOM     22  N   UNL     1      34.383 -18.863 -20.785  0.00  0.00    -0.267 N 
ATOM     23  C   UNL     1      35.368 -17.904 -20.874  0.00  0.00    +0.402 C 
ATOM     24  H   UNL     1      33.452 -18.564 -20.668  0.00  0.00    +0.153 HD
BRANCH  23  25
ATOM     25  O   UNL     1      34.810 -16.660 -20.776  0.00  0.00    -0.430 OA
BRANCH  25  26
ATOM     26  C   UNL     1      34.706 -15.923 -22.000  0.00  0.00    +0.238 C 
BRANCH  26  28
ATOM     27  N   UNL     1      32.613 -12.874 -22.726  0.00  0.00    -0.243 NA
ATOM     28  C   UNL     1      33.796 -14.749 -21.789  0.00  0.00    +0.040 C 
ATOM     29  C   UNL     1      33.311 -14.452 -20.527  0.00  0.00    +0.002 C 
ATOM     30  C   UNL     1      33.428 -13.946 -22.847  0.00  0.00    +0.098 C 
ATOM     31  C   UNL     1      32.471 -13.357 -20.362  0.00  0.00    +0.020 C 
ATOM     32  C   UNL     1      32.154 -12.607 -21.483  0.00  0.00    +0.099 C 
ENDBRANCH  26  28
ENDBRANCH  25  26
ENDBRANCH  23  25
ENDBRANCH  20  22
ENDBRANCH   1  20
TORSDOF 8
ENDMDL
MODEL 2
REMARK VINA RESULT:     -12.6      3.142      3.856
REMARK  Name = 4261
REMARK  8 active torsions:
REMARK  status: ('A' for Active; 'I' for Inactive)
REMARK    1  A    between atoms: C_1  and  C_20
REMARK    2  A    between atoms: C_2  and  C_9
REMARK    3  A    between atoms: N_8  and  C_11
REMARK    4  A    between atoms: C_12  and  N_17
REMARK    5  A    between atoms: C_20  and  N_22
REMARK    6  A    between atoms: C_23  and  O_25
REMARK    7  A    between atoms: O_25  and  C_26
REMARK    8  A    between atoms: C_26  and  C_28
REMARK                            x       y       z     vdW  Elec       q    Type
REMARK                         _______ _______ _______ _____ _____    ______ ____
ROOT
ATOM      1  C   UNL     1      34.977 -19.841 -20.283  0.00  0.00    -0.002 C 
ATOM      2  C   UNL     1      33.679 -21.694 -18.666  0.00  0.00    +0.054 C 
ATOM      3  C   UNL     1      33.589 -19.926 -20.311  0.00  0.00    -0.002 C 
ATOM      4  C   UNL     1      35.722 -20.673 -19.454  0.00  0.00    -0.002 C 
ATOM      5  C   UNL     1      32.939 -20.855 -19.500  0.00  0.00    +0.004 C 
ATOM      6  C   UNL     1      35.071 -21.602 -18.644  0.00  0.00    +0.004 C 
ENDROOT
BRANCH   2   9
ATOM      7  O   UNL     1      33.054 -23.867 -18.122  0.00  0.00    -0.270 OA
ATOM      8  N   UNL     1      32.345 -22.143 -16.697  0.00  0.00    -0.279 N 
ATOM      9  C   UNL     1      33.000 -22.664 -17.823  0.00  0.00    +0.250 C 
ATOM     10  H   UNL     1      32.389 -21.165 -16.591  0.00  0.00    +0.155 HD
BRANCH   8  11
ATOM     11  C   UNL     1      31.629 -22.839 -15.693  0.00  0.00    +0.064 C 
ATOM     12  C   UNL     1      30.244 -22.879 -15.720  0.00  0.00    +0.055 C 
ATOM     13  C   UNL     1      32.349 -23.474 -14.693  0.00  0.00    +0.016 C 
ATOM     14  C   UNL     1      29.561 -23.572 -14.720  0.00  0.00    +0.015 C 
ATOM     15  C   UNL     1      31.666 -24.167 -13.693  0.00  0.00    +0.001 C 
ATOM     16  C   UNL     1      30.272 -24.215 -13.707  0.00  0.00    +0.001 C 
BRANCH  12  17
ATOM     17  N   UNL     1      29.504 -22.235 -16.737  0.00  0.00    -0.356 N 
ATOM     18  H   UNL     1      29.974 -21.779 -17.472  0.00  0.00    +0.142 HD
ATOM     19  H   UNL     1      28.521 -22.243 -16.710  0.00  0.00    +0.142 HD
ENDBRANCH  12  17
ENDBRANCH   8  11
ENDBRANCH   2   9
BRANCH   1  20
ATOM     20  C   UNL     1      35.678 -18.840 -21.154  0.00  0.00    +0.119 C 
BRANCH  20  22
ATOM     21  O   UNL     1      34.666 -17.087 -23.237  0.00  0.00    -0.226 OA
ATOM     22  N   UNL     1      35.125 -17.513 -21.004  0.00  0.00    -0.267 N 
ATOM     23  C   UNL     1      34.667 -16.752 -22.058  0.00  0.00    +0.402 C 
ATOM     24  H   UNL     1      35.073 -17.131 -20.098  0.00  0.00    +0.153 HD
BRANCH  23  25
ATOM     25  O   UNL     1      34.208 -15.551 -21.593  0.00  0.00    -0.430 OA
BRANCH  25  26
ATOM     26  C   UNL     1      34.171 -14.484 -22.548  0.00  0.00    +0.238 C 
BRANCH  26  28
ATOM     27  N   UNL     1      32.019 -11.391 -22.514  0.00  0.00    -0.243 NA
ATOM     28  C   UNL     1      33.211 -13.433 -22.071  0.00  0.00    +0.040 C 
ATOM     29  C   UNL     1      32.650 -13.514 -20.809  0.00  0.00    +0.002 C 
ATOM     30  C   UNL     1      32.875 -12.371 -22.882  0.00  0.00    +0.098 C 
ATOM     31  C   UNL     1      31.765 -12.526 -20.395  0.00  0.00    +0.020 C 
ATOM     32  C   UNL     1      31.484 -11.495 -21.277  0.00  0.00    +0.099 C 
ENDBRANCH  26  28
ENDBRANCH  25  26
ENDBRANCH  23  25
ENDBRANCH  20  22
ENDBRANCH   1  20
TORSDOF 8
ENDMDL
MODEL 3
REMARK VINA RESULT:     -12.3      4.346     13.272
REMARK  Name = 4261
REMARK  8 active torsions:
REMARK  status: ('A' for Active; 'I' for Inactive)
REMARK    1  A    between atoms: C_1  and  C_20
REMARK    2  A    between atoms: C_2  and  C_9
REMARK    3  A    between atoms: N_8  and  C_11
REMARK    4  A    between atoms: C_12  and  N_17
REMARK    5  A    between atoms: C_20  and  N_22
REMARK    6  A    between atoms: C_23  and  O_25
REMARK    7  A    between atoms: O_25  and  C_26
REMARK    8  A    between atoms: C_26  and  C_28
REMARK                            x       y       z     vdW  Elec       q    Type
REMARK                         _______ _______ _______ _____ _____    ______ ____
ROOT
ATOM      1  C   UNL     1      33.413 -13.457 -22.794  0.00  0.00    -0.002 C 
ATOM      2  C   UNL     1      32.017 -11.180 -22.019  0.00  0.00    +0.054 C 
ATOM      3  C   UNL     1      33.401 -12.342 -23.624  0.00  0.00    -0.002 C 
ATOM      4  C   UNL     1      32.734 -13.445 -21.581  0.00  0.00    -0.002 C 
ATOM      5  C   UNL     1      32.701 -11.200 -23.235  0.00  0.00    +0.004 C 
ATOM      6  C   UNL     1      32.034 -12.304 -21.192  0.00  0.00    +0.004 C 
ENDROOT
BRANCH   2   9
ATOM      7  O   UNL     1      30.242 -10.119 -20.956  0.00  0.00    -0.270 OA
ATOM      8  N   UNL     1      31.854  -8.765 -21.996  0.00  0.00    -0.279 N 
ATOM      9  C   UNL     1      31.286  -9.991 -21.615  0.00  0.00    +0.250 C 
ATOM     10  H   UNL     1      32.686  -8.824 -22.517  0.00  0.00    +0.155 HD
BRANCH   8  11
ATOM     11  C   UNL     1      31.386  -7.457 -21.726  0.00  0.00    +0.064 C 
ATOM     12  C   UNL     1      31.682  -6.841 -20.520  0.00  0.00    +0.055 C 
ATOM     13  C   UNL     1      30.631  -6.815 -22.696  0.00  0.00    +0.016 C 
ATOM     14  C   UNL     1      31.210  -5.551 -20.278  0.00  0.00    +0.015 C 
ATOM     15  C   UNL     1      30.160  -5.525 -22.453  0.00  0.00    +0.001 C 
ATOM     16  C   UNL     1      30.449  -4.893 -21.244  0.00  0.00    +0.001 C 
BRANCH  12  17
ATOM     17  N   UNL     1      32.452  -7.488 -19.528  0.00  0.00    -0.356 N 
ATOM     18  H   UNL     1      32.311  -8.445 -19.343  0.00  0.00    +0.142 HD
ATOM     19  H   UNL     1      33.128  -6.983 -19.022  0.00  0.00    +0.142 HD
ENDBRANCH  12  17
ENDBRANCH   8  11
ENDBRANCH   2   9
BRANCH   1  20
ATOM     20  C   UNL     1      34.167 -14.686 -23.211  0.00  0.00    +0.119 C 
BRANCH  20  22
ATOM     21  O   UNL     1      34.571 -17.561 -23.279  0.00  0.00    -0.226 OA
ATOM     22  N   UNL     1      34.415 -15.572 -22.097  0.00  0.00    -0.267 N 
ATOM     23  C   UNL     1      34.595 -16.932 -22.227  0.00  0.00    +0.402 C 
ATOM     24  H   UNL     1      34.457 -15.182 -21.194  0.00  0.00    +0.153 HD
BRANCH  23  25
ATOM     25  O   UNL     1      34.808 -17.488 -20.997  0.00  0.00    -0.430 OA
BRANCH  25  26
ATOM     26  C   UNL     1      35.591 -18.688 -20.980  0.00  0.00    +0.238 C 
BRANCH  26  28
ATOM     27  N   UNL     1      34.839 -21.720 -18.873  0.00  0.00    -0.243 NA
ATOM     28  C   UNL     1      34.820 -19.766 -20.277  0.00  0.00    +0.040 C 
ATOM     29  C   UNL     1      33.440 -19.817 -20.367  0.00  0.00    +0.002 C 
ATOM     30  C   UNL     1      35.473 -20.723 -19.530  0.00  0.00    +0.098 C 
ATOM     31  C   UNL     1      32.753 -20.828 -19.705  0.00  0.00    +0.020 C 
ATOM     32  C   UNL     1      33.492 -21.747 -18.978  0.00  0.00    +0.099 C 
ENDBRANCH  26  28
ENDBRANCH  25  26
ENDBRANCH  23  25
ENDBRANCH  20  22
ENDBRANCH   1  20
TORSDOF 8
ENDMDL
MODEL 4
REMARK VINA RESULT:     -11.9      4.283     13.176
REMARK  Name = 4261
REMARK  8 active torsions:
REMARK  status: ('A' for Active; 'I' for Inactive)
REMARK    1  A    between atoms: C_1  and  C_20
REMARK    2  A    between atoms: C_2  and  C_9
REMARK    3  A    between atoms: N_8  and  C_11
REMARK    4  A    between atoms: C_12  and  N_17
REMARK    5  A    between atoms: C_20  and  N_22
REMARK    6  A    between atoms: C_23  and  O_25
REMARK    7  A    between atoms: O_25  and  C_26
REMARK    8  A    between atoms: C_26  and  C_28
REMARK                            x       y       z     vdW  Elec       q    Type
REMARK                         _______ _______ _______ _____ _____    ______ ____
ROOT
ATOM      1  C   UNL     1      33.471 -13.696 -22.776  0.00  0.00    -0.002 C 
ATOM      2  C   UNL     1      32.082 -11.407 -22.023  0.00  0.00    +0.054 C 
ATOM      3  C   UNL     1      32.868 -13.637 -21.524  0.00  0.00    -0.002 C 
ATOM      4  C   UNL     1      33.386 -12.622 -23.655  0.00  0.00    -0.002 C 
ATOM      5  C   UNL     1      32.172 -12.490 -21.147  0.00  0.00    +0.004 C 
ATOM      6  C   UNL     1      32.689 -11.474 -23.277  0.00  0.00    +0.004 C 
ENDROOT
BRANCH   2   9
ATOM      7  O   UNL     1      30.250 -10.330 -21.080  0.00  0.00    -0.270 OA
ATOM      8  N   UNL     1      32.002  -8.992 -21.887  0.00  0.00    -0.279 N 
ATOM      9  C   UNL     1      31.357 -10.211 -21.628  0.00  0.00    +0.250 C 
ATOM     10  H   UNL     1      32.879  -9.058 -22.329  0.00  0.00    +0.155 HD
BRANCH   8  11
ATOM     11  C   UNL     1      31.556  -7.680 -21.595  0.00  0.00    +0.064 C 
ATOM     12  C   UNL     1      30.839  -6.958 -22.535  0.00  0.00    +0.055 C 
ATOM     13  C   UNL     1      31.856  -7.146 -20.351  0.00  0.00    +0.016 C 
ATOM     14  C   UNL     1      30.410  -5.667 -22.223  0.00  0.00    +0.015 C 
ATOM     15  C   UNL     1      31.427  -5.855 -20.040  0.00  0.00    +0.001 C 
ATOM     16  C   UNL     1      30.705  -5.116 -20.977  0.00  0.00    +0.001 C 
BRANCH  12  17
ATOM     17  N   UNL     1      30.528  -7.497 -23.804  0.00  0.00    -0.356 N 
ATOM     18  H   UNL     1      30.759  -8.431 -24.010  0.00  0.00    +0.142 HD
ATOM     19  H   UNL     1      30.082  -6.939 -24.480  0.00  0.00    +0.142 HD
ENDBRANCH  12  17
ENDBRANCH   8  11
ENDBRANCH   2   9
BRANCH   1  20
ATOM     20  C   UNL     1      34.219 -14.931 -23.184  0.00  0.00    +0.119 C 
BRANCH  20  22
ATOM     21  O   UNL     1      34.628 -17.807 -23.154  0.00  0.00    -0.226 OA
ATOM     22  N   UNL     1      34.537 -15.769 -22.050  0.00  0.00    -0.267 N 
ATOM     23  C   UNL     1      34.713 -17.134 -22.133  0.00  0.00    +0.402 C 
ATOM     24  H   UNL     1      34.632 -15.341 -21.168  0.00  0.00    +0.153 HD
BRANCH  23  25
ATOM     25  O   UNL     1      35.002 -17.636 -20.895  0.00  0.00    -0.430 OA
BRANCH  25  26
ATOM     26  C   UNL     1      35.718 -18.877 -20.876  0.00  0.00    +0.238 C 
BRANCH  26  28
ATOM     27  N   UNL     1      34.780 -21.851 -18.761  0.00  0.00    -0.243 NA
ATOM     28  C   UNL     1      34.882 -19.913 -20.182  0.00  0.00    +0.040 C 
ATOM     29  C   UNL     1      33.504 -19.905 -20.308  0.00  0.00    +0.002 C 
ATOM     30  C   UNL     1      35.473 -20.890 -19.410  0.00  0.00    +0.098 C 
ATOM     31  C   UNL     1      32.756 -20.877 -19.655  0.00  0.00    +0.020 C 
ATOM     32  C   UNL     1      33.435 -21.820 -18.900  0.00  0.00    +0.099 C 
ENDBRANCH  26  28
ENDBRANCH  25  26
ENDBRANCH  23  25
ENDBRANCH  20  22
ENDBRANCH   1  20
TORSDOF 8
ENDMDL
MODEL 5
REMARK VINA RESULT:     -11.8      2.578     11.978
REMARK  Name = 4261
REMARK  8 active torsions:
REMARK  status: ('A' for Active; 'I' for Inactive)
REMARK    1  A    between atoms: C_1  and  C_20
REMARK    2  A    between atoms: C_2  and  C_9
REMARK    3  A    between atoms: N_8  and  C_11
REMARK    4  A    between atoms: C_12  and  N_17
REMARK    5  A    between atoms: C_20  and  N_22
REMARK    6  A    between atoms: C_23  and  O_25
REMARK    7  A    between atoms: O_25  and  C_26
REMARK    8  A    between atoms: C_26  and  C_28
REMARK                            x       y       z     vdW  Elec       q    Type
REMARK                         _______ _______ _______ _____ _____    ______ ____
ROOT
ATOM      1  C   UNL     1      34.546 -16.959 -23.162  0.00  0.00    -0.002 C 
ATOM      2  C   UNL     1      33.480 -14.420 -23.549  0.00  0.00    +0.054 C 
ATOM      3  C   UNL     1      34.609 -16.022 -22.136  0.00  0.00    -0.002 C 
ATOM      4  C   UNL     1      33.955 -16.638 -24.379  0.00  0.00    -0.002 C 
ATOM      5  C   UNL     1      34.074 -14.749 -22.330  0.00  0.00    +0.004 C 
ATOM      6  C   UNL     1      33.420 -15.365 -24.573  0.00  0.00    +0.004 C 
ENDROOT
BRANCH   2   9
ATOM      7  O   UNL     1      32.645 -12.724 -24.904  0.00  0.00    -0.270 OA
ATOM      8  N   UNL     1      32.722 -12.330 -22.591  0.00  0.00    -0.279 N 
ATOM      9  C   UNL     1      32.924 -13.092 -23.751  0.00  0.00    +0.250 C 
ATOM     10  H   UNL     1      32.992 -12.757 -21.747  0.00  0.00    +0.155 HD
BRANCH   8  11
ATOM     11  C   UNL     1      32.179 -11.027 -22.476  0.00  0.00    +0.064 C 
ATOM     12  C   UNL     1      32.836  -9.943 -23.035  0.00  0.00    +0.055 C 
ATOM     13  C   UNL     1      30.982 -10.871 -21.794  0.00  0.00    +0.016 C 
ATOM     14  C   UNL     1      32.282  -8.668 -22.908  0.00  0.00    +0.015 C 
ATOM     15  C   UNL     1      30.428  -9.597 -21.668  0.00  0.00    +0.001 C 
ATOM     16  C   UNL     1      31.078  -8.496 -22.225  0.00  0.00    +0.001 C 
BRANCH  12  17
ATOM     17  N   UNL     1      34.056 -10.094 -23.732  0.00  0.00    -0.356 N 
ATOM     18  H   UNL     1      34.858 -10.411 -23.256  0.00  0.00    +0.142 HD
ATOM     19  H   UNL     1      34.104  -9.883 -24.691  0.00  0.00    +0.142 HD
ENDBRANCH  12  17
ENDBRANCH   8  11
ENDBRANCH   2   9
BRANCH   1  20
ATOM     20  C   UNL     1      35.120 -18.329 -22.953  0.00  0.00    +0.119 C 
BRANCH  20  22
ATOM     21  O   UNL     1      36.311 -18.818 -20.349  0.00  0.00    -0.226 OA
ATOM     22  N   UNL     1      34.525 -18.997 -21.818  0.00  0.00    -0.267 N 
ATOM     23  C   UNL     1      35.172 -19.183 -20.615  0.00  0.00    +0.402 C 
ATOM     24  H   UNL     1      33.606 -19.338 -21.909  0.00  0.00    +0.153 HD
BRANCH  23  25
ATOM     25  O   UNL     1      34.348 -19.844 -19.747  0.00  0.00    -0.430 OA
BRANCH  25  26
ATOM     26  C   UNL     1      34.532 -21.263 -19.668  0.00  0.00    +0.238 C 
BRANCH  26  28
ATOM     27  N   UNL     1      34.475 -22.676 -16.175  0.00  0.00    -0.243 NA
ATOM     28  C   UNL     1      34.975 -21.622 -18.280  0.00  0.00    +0.040 C 
ATOM     29  C   UNL     1      36.229 -21.256 -17.824  0.00  0.00    +0.002 C 
ATOM     30  C   UNL     1      34.139 -22.322 -17.436  0.00  0.00    +0.098 C 
ATOM     31  C   UNL     1      36.611 -21.602 -16.534  0.00  0.00    +0.020 C 
ATOM     32  C   UNL     1      35.706 -22.306 -15.756  0.00  0.00    +0.099 C 
ENDBRANCH  26  28
ENDBRANCH  25  26
ENDBRANCH  23  25
ENDBRANCH  20  22
ENDBRANCH   1  20
TORSDOF 8
ENDMDL
MODEL 6
REMARK VINA RESULT:     -11.8      1.989      2.909
REMARK  Name = 4261
REMARK  8 active torsions:
REMARK  status: ('A' for Active; 'I' for Inactive)
REMARK    1  A    between atoms: C_1  and  C_20
REMARK    2  A    between atoms: C_2  and  C_9
REMARK    3  A    between atoms: N_8  and  C_11
REMARK    4  A    between atoms: C_12  and  N_17
REMARK    5  A    between atoms: C_20  and  N_22
REMARK    6  A    between atoms: C_23  and  O_25
REMARK    7  A    between atoms: O_25  and  C_26
REMARK    8  A    between atoms: C_26  and  C_28
REMARK                            x       y       z     vdW  Elec       q    Type
REMARK                         _______ _______ _______ _____ _____    ______ ____
ROOT
ATOM      1  C   UNL     1      34.831 -19.295 -21.249  0.00  0.00    -0.002 C 
ATOM      2  C   UNL     1      34.502 -21.065 -19.130  0.00  0.00    +0.054 C 
ATOM      3  C   UNL     1      35.945 -19.748 -20.551  0.00  0.00    -0.002 C 
ATOM      4  C   UNL     1      33.554 -19.719 -20.898  0.00  0.00    -0.002 C 
ATOM      5  C   UNL     1      35.780 -20.635 -19.488  0.00  0.00    +0.004 C 
ATOM      6  C   UNL     1      33.389 -20.606 -19.836  0.00  0.00    +0.004 C 
ENDROOT
BRANCH   2   9
ATOM      7  O   UNL     1      33.477 -22.887 -18.111  0.00  0.00    -0.270 OA
ATOM      8  N   UNL     1      35.183 -21.795 -16.925  0.00  0.00    -0.279 N 
ATOM      9  C   UNL     1      34.329 -21.989 -18.021  0.00  0.00    +0.250 C 
ATOM     10  H   UNL     1      35.809 -21.039 -16.999  0.00  0.00    +0.155 HD
BRANCH   8  11
ATOM     11  C   UNL     1      35.262 -22.545 -15.726  0.00  0.00    +0.064 C 
ATOM     12  C   UNL     1      36.493 -22.943 -15.229  0.00  0.00    +0.055 C 
ATOM     13  C   UNL     1      34.083 -22.866 -15.072  0.00  0.00    +0.016 C 
ATOM     14  C   UNL     1      36.546 -23.682 -14.047  0.00  0.00    +0.015 C 
ATOM     15  C   UNL     1      34.136 -23.604 -13.890  0.00  0.00    +0.001 C 
ATOM     16  C   UNL     1      35.368 -24.012 -13.377  0.00  0.00    +0.001 C 
BRANCH  12  17
ATOM     17  N   UNL     1      37.699 -22.619 -15.890  0.00  0.00    -0.356 N 
ATOM     18  H   UNL     1      38.544 -22.595 -15.386  0.00  0.00    +0.142 HD
ATOM     19  H   UNL     1      37.694 -22.417 -16.853  0.00  0.00    +0.142 HD
ENDBRANCH  12  17
ENDBRANCH   8  11
ENDBRANCH   2   9
BRANCH   1  20
ATOM     20  C   UNL     1      35.009 -18.341 -22.394  0.00  0.00    +0.119 C 
BRANCH  20  22
ATOM     21  O   UNL     1      34.147 -16.134 -24.073  0.00  0.00    -0.226 OA
ATOM     22  N   UNL     1      34.761 -16.973 -22.000  0.00  0.00    -0.267 N 
ATOM     23  C   UNL     1      34.352 -15.988 -22.873  0.00  0.00    +0.402 C 
ATOM     24  H   UNL     1      34.891 -16.731 -21.054  0.00  0.00    +0.153 HD
BRANCH  23  25
ATOM     25  O   UNL     1      34.204 -14.808 -22.200  0.00  0.00    -0.430 OA
BRANCH  25  26
ATOM     26  C   UNL     1      33.962 -13.652 -23.010  0.00  0.00    +0.238 C 
BRANCH  26  28
ATOM     27  N   UNL     1      31.713 -10.714 -22.294  0.00  0.00    -0.243 NA
ATOM     28  C   UNL     1      32.996 -12.749 -22.299  0.00  0.00    +0.040 C 
ATOM     29  C   UNL     1      32.509 -13.086 -21.048  0.00  0.00    +0.002 C 
ATOM     30  C   UNL     1      32.579 -11.571 -22.880  0.00  0.00    +0.098 C 
ATOM     31  C   UNL     1      31.617 -12.230 -20.413  0.00  0.00    +0.020 C 
ATOM     32  C   UNL     1      31.253 -11.067 -21.072  0.00  0.00    +0.099 C 
ENDBRANCH  26  28
ENDBRANCH  25  26
ENDBRANCH  23  25
ENDBRANCH  20  22
ENDBRANCH   1  20
TORSDOF 8
ENDMDL
MODEL 7
REMARK VINA RESULT:     -11.7      3.898     12.906
REMARK  Name = 4261
REMARK  8 active torsions:
REMARK  status: ('A' for Active; 'I' for Inactive)
REMARK    1  A    between atoms: C_1  and  C_20
REMARK    2  A    between atoms: C_2  and  C_9
REMARK    3  A    between atoms: N_8  and  C_11
REMARK    4  A    between atoms: C_12  and  N_17
REMARK    5  A    between atoms: C_20  and  N_22
REMARK    6  A    between atoms: C_23  and  O_25
REMARK    7  A    between atoms: O_25  and  C_26
REMARK    8  A    between atoms: C_26  and  C_28
REMARK                            x       y       z     vdW  Elec       q    Type
REMARK                         _______ _______ _______ _____ _____    ______ ____
ROOT
ATOM      1  C   UNL     1      33.931 -14.415 -22.647  0.00  0.00    -0.002 C 
ATOM      2  C   UNL     1      32.397 -12.129 -22.250  0.00  0.00    +0.054 C 
ATOM      3  C   UNL     1      33.740 -13.929 -21.358  0.00  0.00    -0.002 C 
ATOM      4  C   UNL     1      33.362 -13.769 -23.739  0.00  0.00    -0.002 C 
ATOM      5  C   UNL     1      32.971 -12.783 -21.160  0.00  0.00    +0.004 C 
ATOM      6  C   UNL     1      32.593 -12.624 -23.541  0.00  0.00    +0.004 C 
ENDROOT
BRANCH   2   9
ATOM      7  O   UNL     1      30.546 -11.017 -21.388  0.00  0.00    -0.270 OA
ATOM      8  N   UNL     1      32.109  -9.751 -22.597  0.00  0.00    -0.279 N 
ATOM      9  C   UNL     1      31.597 -10.934 -22.043  0.00  0.00    +0.250 C 
ATOM     10  H   UNL     1      32.955  -9.842 -23.091  0.00  0.00    +0.155 HD
BRANCH   8  11
ATOM     11  C   UNL     1      31.568  -8.444 -22.537  0.00  0.00    +0.064 C 
ATOM     12  C   UNL     1      31.502  -7.768 -21.329  0.00  0.00    +0.055 C 
ATOM     13  C   UNL     1      31.112  -7.866 -23.712  0.00  0.00    +0.016 C 
ATOM     14  C   UNL     1      30.965  -6.481 -21.296  0.00  0.00    +0.015 C 
ATOM     15  C   UNL     1      30.575  -6.579 -23.678  0.00  0.00    +0.001 C 
ATOM     16  C   UNL     1      30.502  -5.887 -22.469  0.00  0.00    +0.001 C 
BRANCH  12  17
ATOM     17  N   UNL     1      31.966  -8.350 -20.128  0.00  0.00    -0.356 N 
ATOM     18  H   UNL     1      31.778  -9.297 -19.936  0.00  0.00    +0.142 HD
ATOM     19  H   UNL     1      32.477  -7.809 -19.484  0.00  0.00    +0.142 HD
ENDBRANCH  12  17
ENDBRANCH   8  11
ENDBRANCH   2   9
BRANCH   1  20
ATOM     20  C   UNL     1      34.757 -15.649 -22.861  0.00  0.00    +0.119 C 
BRANCH  20  22
ATOM     21  O   UNL     1      36.520 -17.782 -21.976  0.00  0.00    -0.226 OA
ATOM     22  N   UNL     1      34.496 -16.655 -21.856  0.00  0.00    -0.267 N 
ATOM     23  C   UNL     1      35.399 -17.634 -21.501  0.00  0.00    +0.402 C 
ATOM     24  H   UNL     1      33.623 -16.640 -21.400  0.00  0.00    +0.153 HD
BRANCH  23  25
ATOM     25  O   UNL     1      34.859 -18.428 -20.529  0.00  0.00    -0.430 OA
BRANCH  25  26
ATOM     26  C   UNL     1      33.877 -19.373 -20.968  0.00  0.00    +0.238 C 
BRANCH  26  28
ATOM     27  N   UNL     1      32.145 -21.694 -18.556  0.00  0.00    -0.243 NA
ATOM     28  C   UNL     1      33.671 -20.401 -19.893  0.00  0.00    +0.040 C 
ATOM     29  C   UNL     1      34.755 -20.986 -19.263  0.00  0.00    +0.002 C 
ATOM     30  C   UNL     1      32.400 -20.777 -19.516  0.00  0.00    +0.098 C 
ATOM     31  C   UNL     1      34.533 -21.934 -18.271  0.00  0.00    +0.020 C 
ATOM     32  C   UNL     1      33.221 -22.251 -17.957  0.00  0.00    +0.099 C 
ENDBRANCH  26  28
ENDBRANCH  25  26
ENDBRANCH  23  25
ENDBRANCH  20  22
ENDBRANCH   1  20
TORSDOF 8
ENDMDL
MODEL 8
REMARK VINA RESULT:     -11.6      3.095      4.005
REMARK  Name = 4261
REMARK  8 active torsions:
REMARK  status: ('A' for Active; 'I' for Inactive)
REMARK    1  A    between atoms: C_1  and  C_20
REMARK    2  A    between atoms: C_2  and  C_9
REMARK    3  A    between atoms: N_8  and  C_11
REMARK    4  A    between atoms: C_12  and  N_17
REMARK    5  A    between atoms: C_20  and  N_22
REMARK    6  A    between atoms: C_23  and  O_25
REMARK    7  A    between atoms: O_25  and  C_26
REMARK    8  A    between atoms: C_26  and  C_28
REMARK                            x       y       z     vdW  Elec       q    Type
REMARK                         _______ _______ _______ _____ _____    ______ ____
ROOT
ATOM      1  C   UNL     1      35.335 -20.758 -19.294  0.00  0.00    -0.002 C 
ATOM      2  C   UNL     1      34.053 -22.281 -17.352  0.00  0.00    +0.054 C 
ATOM      3  C   UNL     1      34.014 -21.148 -19.487  0.00  0.00    -0.002 C 
ATOM      4  C   UNL     1      36.021 -21.121 -18.141  0.00  0.00    -0.002 C 
ATOM      5  C   UNL     1      33.372 -21.911 -18.513  0.00  0.00    +0.004 C 
ATOM      6  C   UNL     1      35.379 -21.884 -17.167  0.00  0.00    +0.004 C 
ENDROOT
BRANCH   2   9
ATOM      7  O   UNL     1      34.046 -23.894 -15.678  0.00  0.00    -0.270 OA
ATOM      8  N   UNL     1      32.013 -22.831 -16.172  0.00  0.00    -0.279 N 
ATOM      9  C   UNL     1      33.384 -23.077 -16.338  0.00  0.00    +0.250 C 
ATOM     10  H   UNL     1      31.626 -22.152 -16.771  0.00  0.00    +0.155 HD
BRANCH   8  11
ATOM     11  C   UNL     1      31.115 -23.428 -15.256  0.00  0.00    +0.064 C 
ATOM     12  C   UNL     1      31.317 -23.300 -13.891  0.00  0.00    +0.055 C 
ATOM     13  C   UNL     1      30.036 -24.139 -15.760  0.00  0.00    +0.016 C 
ATOM     14  C   UNL     1      30.418 -23.899 -13.008  0.00  0.00    +0.015 C 
ATOM     15  C   UNL     1      29.138 -24.737 -14.877  0.00  0.00    +0.001 C 
ATOM     16  C   UNL     1      29.329 -24.617 -13.501  0.00  0.00    +0.001 C 
BRANCH  12  17
ATOM     17  N   UNL     1      32.413 -22.576 -13.369  0.00  0.00    -0.356 N 
ATOM     18  H   UNL     1      32.848 -22.875 -12.538  0.00  0.00    +0.142 HD
ATOM     19  H   UNL     1      32.741 -21.775 -13.837  0.00  0.00    +0.142 HD
ENDBRANCH  12  17
ENDBRANCH   8  11
ENDBRANCH   2   9
BRANCH   1  20
ATOM     20  C   UNL     1      36.026 -19.935 -20.342  0.00  0.00    +0.119 C 
BRANCH  20  22
ATOM     21  O   UNL     1      34.615 -19.220 -22.778  0.00  0.00    -0.226 OA
ATOM     22  N   UNL     1      35.312 -18.711 -20.626  0.00  0.00    -0.267 N 
ATOM     23  C   UNL     1      34.669 -18.459 -21.818  0.00  0.00    +0.402 C 
ATOM     24  H   UNL     1      35.284 -18.017 -19.927  0.00  0.00    +0.153 HD
BRANCH  23  25
ATOM     25  O   UNL     1      34.090 -17.222 -21.778  0.00  0.00    -0.430 OA
BRANCH  25  26
ATOM     26  C   UNL     1      34.921 -16.129 -22.188  0.00  0.00    +0.238 C 
BRANCH  26  28
ATOM     27  N   UNL     1      33.321 -15.086 -25.436  0.00  0.00    -0.243 NA
ATOM     28  C   UNL     1      34.181 -15.304 -23.200  0.00  0.00    +0.040 C 
ATOM     29  C   UNL     1      33.690 -14.054 -22.865  0.00  0.00    +0.002 C 
ATOM     30  C   UNL     1      33.978 -15.778 -24.478  0.00  0.00    +0.098 C 
ATOM     31  C   UNL     1      33.010 -13.313 -23.823  0.00  0.00    +0.020 C 
ATOM     32  C   UNL     1      32.852 -13.868 -25.083  0.00  0.00    +0.099 C 
ENDBRANCH  26  28
ENDBRANCH  25  26
ENDBRANCH  23  25
ENDBRANCH  20  22
ENDBRANCH   1  20
TORSDOF 8
ENDMDL
MODEL 9
REMARK VINA RESULT:     -11.6      3.374      5.671
REMARK  Name = 4261
REMARK  8 active torsions:
REMARK  status: ('A' for Active; 'I' for Inactive)
REMARK    1  A    between atoms: C_1  and  C_20
REMARK    2  A    between atoms: C_2  and  C_9
REMARK    3  A    between atoms: N_8  and  C_11
REMARK    4  A    between atoms: C_12  and  N_17
REMARK    5  A    between atoms: C_20  and  N_22
REMARK    6  A    between atoms: C_23  and  O_25
REMARK    7  A    between atoms: O_25  and  C_26
REMARK    8  A    between atoms: C_26  and  C_28
REMARK                            x       y       z     vdW  Elec       q    Type
REMARK                         _______ _______ _______ _____ _____    ______ ____
ROOT
ATOM      1  C   UNL     1      33.991 -16.885 -23.628  0.00  0.00    -0.002 C 
ATOM      2  C   UNL     1      34.827 -18.506 -21.529  0.00  0.00    +0.054 C 
ATOM      3  C   UNL     1      34.595 -16.312 -22.514  0.00  0.00    -0.002 C 
ATOM      4  C   UNL     1      33.802 -18.260 -23.702  0.00  0.00    -0.002 C 
ATOM      5  C   UNL     1      35.014 -17.125 -21.462  0.00  0.00    +0.004 C 
ATOM      6  C   UNL     1      34.221 -19.073 -22.650  0.00  0.00    +0.004 C 
ENDROOT
BRANCH   2   9
ATOM      7  O   UNL     1      36.451 -19.312 -20.072  0.00  0.00    -0.270 OA
ATOM      8  N   UNL     1      34.270 -20.148 -19.839  0.00  0.00    -0.279 N 
ATOM      9  C   UNL     1      35.263 -19.353 -20.431  0.00  0.00    +0.250 C 
ATOM     10  H   UNL     1      33.372 -20.072 -20.234  0.00  0.00    +0.155 HD
BRANCH   8  11
ATOM     11  C   UNL     1      34.391 -21.042 -18.749  0.00  0.00    +0.064 C 
ATOM     12  C   UNL     1      33.296 -21.773 -18.318  0.00  0.00    +0.055 C 
ATOM     13  C   UNL     1      35.627 -21.164 -18.132  0.00  0.00    +0.016 C 
ATOM     14  C   UNL     1      33.440 -22.649 -17.241  0.00  0.00    +0.015 C 
ATOM     15  C   UNL     1      35.770 -22.039 -17.056  0.00  0.00    +0.001 C 
ATOM     16  C   UNL     1      34.676 -22.782 -16.610  0.00  0.00    +0.001 C 
BRANCH  12  17
ATOM     17  N   UNL     1      32.034 -21.655 -18.942  0.00  0.00    -0.356 N 
ATOM     18  H   UNL     1      31.213 -21.685 -18.400  0.00  0.00    +0.142 HD
ATOM     19  H   UNL     1      31.976 -21.544 -19.918  0.00  0.00    +0.142 HD
ENDBRANCH  12  17
ENDBRANCH   8  11
ENDBRANCH   2   9
BRANCH   1  20
ATOM     20  C   UNL     1      33.541 -16.011 -24.761  0.00  0.00    +0.119 C 
BRANCH  20  22
ATOM     21  O   UNL     1      32.920 -13.680 -26.380  0.00  0.00    -0.226 OA
ATOM     22  N   UNL     1      33.154 -14.694 -24.308  0.00  0.00    -0.267 N 
ATOM     23  C   UNL     1      32.877 -13.644 -25.156  0.00  0.00    +0.402 C 
ATOM     24  H   UNL     1      33.085 -14.539 -23.337  0.00  0.00    +0.153 HD
BRANCH  23  25
ATOM     25  O   UNL     1      32.543 -12.538 -24.425  0.00  0.00    -0.430 OA
BRANCH  25  26
ATOM     26  C   UNL     1      32.404 -12.740 -23.014  0.00  0.00    +0.238 C 
BRANCH  26  28
ATOM     27  N   UNL     1      31.789  -9.058 -22.500  0.00  0.00    -0.243 NA
ATOM     28  C   UNL     1      31.965 -11.454 -22.376  0.00  0.00    +0.040 C 
ATOM     29  C   UNL     1      31.359 -11.457 -21.132  0.00  0.00    +0.002 C 
ATOM     30  C   UNL     1      32.160 -10.250 -23.018  0.00  0.00    +0.098 C 
ATOM     31  C   UNL     1      30.964 -10.250 -20.566  0.00  0.00    +0.020 C 
ATOM     32  C   UNL     1      31.199  -9.089 -21.284  0.00  0.00    +0.099 C 
ENDBRANCH  26  28
ENDBRANCH  25  26
ENDBRANCH  23  25
ENDBRANCH  20  22
ENDBRANCH   1  20
TORSDOF 8
ENDMDL
