MODEL 1
REMARK VINA RESULT:     -10.4      0.000      0.000
REMARK  Name = 9543496
REMARK  7 active torsions:
REMARK  status: ('A' for Active; 'I' for Inactive)
REMARK    1  A    between atoms: C_2  and  N_18
REMARK    2  A    between atoms: C_3  and  C_7
REMARK    3  A    between atoms: C_5  and  C_15
REMARK    4  A    between atoms: C_9  and  C_12
REMARK    5  A    between atoms: C_15  and  O_16
REMARK    6  A    between atoms: N_18  and  S_20
REMARK    7  A    between atoms: S_20  and  C_23
REMARK                            x       y       z     vdW  Elec       q    Type
REMARK                         _______ _______ _______ _____ _____    ______ ____
ROOT
ATOM      1  S   UNL     1      34.002 -16.103 -23.972  0.00  0.00    -0.079 S 
ATOM      2  C   UNL     1      33.759 -13.931 -22.637  0.00  0.00    +0.078 C 
ATOM      3  C   UNL     1      34.440 -16.122 -22.318  0.00  0.00    +0.037 C 
ATOM      4  C   UNL     1      34.262 -14.893 -21.721  0.00  0.00    +0.024 C 
ATOM      5  C   UNL     1      33.571 -14.447 -23.895  0.00  0.00    +0.120 C 
ENDROOT
BRANCH   3   7
ATOM      6  S   UNL     1      33.843 -18.431 -21.000  0.00  0.00    -0.084 S 
ATOM      7  C   UNL     1      34.924 -17.310 -21.710  0.00  0.00    +0.036 C 
ATOM      8  C   UNL     1      36.235 -17.717 -21.604  0.00  0.00    +0.008 C 
ATOM      9  C   UNL     1      35.129 -19.467 -20.546  0.00  0.00    +0.064 C 
ATOM     10  C   UNL     1      36.355 -18.966 -20.929  0.00  0.00    +0.010 C 
BRANCH   9  12
ATOM     11  O   UNL     1      35.699 -21.506 -19.466  0.00  0.00    -0.291 OA
ATOM     12  C   UNL     1      34.835 -20.679 -19.855  0.00  0.00    +0.179 C 
ATOM     13  C   UNL     1      33.381 -21.047 -19.541  0.00  0.00    +0.078 C 
ENDBRANCH   9  12
ENDBRANCH   3   7
BRANCH   5  15
ATOM     14  O   UNL     1      32.719 -12.626 -25.199  0.00  0.00    -0.244 OA
ATOM     15  C   UNL     1      33.087 -13.809 -25.077  0.00  0.00    +0.345 C 
BRANCH  15  16
ATOM     16  O   UNL     1      33.050 -14.647 -26.162  0.00  0.00    -0.477 OA
ATOM     17  H   UNL     1      33.177 -15.568 -26.047  0.00  0.00    +0.295 HD
ENDBRANCH  15  16
ENDBRANCH   5  15
BRANCH   2  18
ATOM     18  N   UNL     1      33.494 -12.593 -22.260  0.00  0.00    -0.214 N 
ATOM     19  H   UNL     1      34.227 -11.942 -22.347  0.00  0.00    +0.174 HD
BRANCH  18  20
ATOM     20  S   UNL     1      32.000 -12.021 -21.666  0.00  0.00    +0.073 S 
ATOM     21  O   UNL     1      31.949 -12.223 -20.224  0.00  0.00    -0.150 OA
ATOM     22  O   UNL     1      30.923 -12.533 -22.503  0.00  0.00    -0.150 OA
BRANCH  20  23
ATOM     23  C   UNL     1      32.149 -10.303 -21.968  0.00  0.00    +0.121 C 
ATOM     24  C   UNL     1      31.490  -9.370 -21.169  0.00  0.00    -0.003 C 
ATOM     25  C   UNL     1      32.945  -9.875 -23.030  0.00  0.00    +0.020 C 
ATOM     26  C   UNL     1      31.626  -8.007 -21.433  0.00  0.00    -0.007 C 
ATOM     27  C   UNL     1      32.422  -7.577 -22.495  0.00  0.00    -0.022 C 
ATOM     28  C   UNL     1      33.081  -8.512 -23.294  0.00  0.00    -0.003 C 
ATOM     29  C   UNL     1      30.632  -9.796 -20.024  0.00  0.00    +0.032 C 
ATOM     30  C   UNL     1      32.568  -6.120 -22.778  0.00  0.00    +0.031 C 
ENDBRANCH  20  23
ENDBRANCH  18  20
ENDBRANCH   2  18
TORSDOF 7
ENDMDL
MODEL 2
REMARK VINA RESULT:     -10.3      7.478     13.602
REMARK  Name = 9543496
REMARK  7 active torsions:
REMARK  status: ('A' for Active; 'I' for Inactive)
REMARK    1  A    between atoms: C_2  and  N_18
REMARK    2  A    between atoms: C_3  and  C_7
REMARK    3  A    between atoms: C_5  and  C_15
REMARK    4  A    between atoms: C_9  and  C_12
REMARK    5  A    between atoms: C_15  and  O_16
REMARK    6  A    between atoms: N_18  and  S_20
REMARK    7  A    between atoms: S_20  and  C_23
REMARK                            x       y       z     vdW  Elec       q    Type
REMARK                         _______ _______ _______ _____ _____    ______ ____
ROOT
ATOM      1  S   UNL     1      31.933 -22.398 -17.015  0.00  0.00    -0.079 S 
ATOM      2  C   UNL     1      33.359 -23.647 -15.293  0.00  0.00    +0.078 C 
ATOM      3  C   UNL     1      33.636 -22.312 -17.166  0.00  0.00    +0.037 C 
ATOM      4  C   UNL     1      34.279 -23.025 -16.179  0.00  0.00    +0.024 C 
ATOM      5  C   UNL     1      32.052 -23.392 -15.625  0.00  0.00    +0.120 C 
ENDROOT
BRANCH   3   7
ATOM      6  S   UNL     1      33.269 -20.770 -19.383  0.00  0.00    -0.084 S 
ATOM      7  C   UNL     1      34.234 -21.569 -18.217  0.00  0.00    +0.036 C 
ATOM      8  C   UNL     1      35.580 -21.387 -18.446  0.00  0.00    +0.008 C 
ATOM      9  C   UNL     1      34.652 -20.177 -20.201  0.00  0.00    +0.064 C 
ATOM     10  C   UNL     1      35.822 -20.581 -19.596  0.00  0.00    +0.010 C 
BRANCH   9  12
ATOM     11  O   UNL     1      33.435 -19.342 -22.063  0.00  0.00    -0.291 OA
ATOM     12  C   UNL     1      34.479 -19.369 -21.364  0.00  0.00    +0.179 C 
ATOM     13  C   UNL     1      35.614 -18.454 -21.835  0.00  0.00    +0.078 C 
ENDBRANCH   9  12
ENDBRANCH   3   7
BRANCH   5  15
ATOM     14  O   UNL     1      30.749 -24.523 -13.962  0.00  0.00    -0.244 OA
ATOM     15  C   UNL     1      30.850 -23.830 -14.991  0.00  0.00    +0.345 C 
BRANCH  15  16
ATOM     16  O   UNL     1      29.717 -23.403 -15.636  0.00  0.00    -0.477 OA
ATOM     17  H   UNL     1      28.986 -23.090 -15.140  0.00  0.00    +0.295 HD
ENDBRANCH  15  16
ENDBRANCH   5  15
BRANCH   2  18
ATOM     18  N   UNL     1      33.779 -24.435 -14.195  0.00  0.00    -0.214 N 
ATOM     19  H   UNL     1      33.536 -25.388 -14.200  0.00  0.00    +0.174 HD
BRANCH  18  20
ATOM     20  S   UNL     1      34.675 -23.858 -12.862  0.00  0.00    +0.073 S 
ATOM     21  O   UNL     1      34.227 -24.539 -11.654  0.00  0.00    -0.150 OA
ATOM     22  O   UNL     1      34.705 -22.402 -12.898  0.00  0.00    -0.150 OA
BRANCH  20  23
ATOM     23  C   UNL     1      36.278 -24.442 -13.251  0.00  0.00    +0.121 C 
ATOM     24  C   UNL     1      37.407 -23.936 -12.606  0.00  0.00    -0.003 C 
ATOM     25  C   UNL     1      36.415 -25.430 -14.225  0.00  0.00    +0.020 C 
ATOM     26  C   UNL     1      38.673 -24.419 -12.936  0.00  0.00    -0.007 C 
ATOM     27  C   UNL     1      38.811 -25.408 -13.910  0.00  0.00    -0.022 C 
ATOM     28  C   UNL     1      37.681 -25.914 -14.554  0.00  0.00    -0.003 C 
ATOM     29  C   UNL     1      37.294 -22.878 -11.558  0.00  0.00    +0.032 C 
ATOM     30  C   UNL     1      40.164 -25.925 -14.264  0.00  0.00    +0.031 C 
ENDBRANCH  20  23
ENDBRANCH  18  20
ENDBRANCH   2  18
TORSDOF 7
ENDMDL
MODEL 3
REMARK VINA RESULT:     -10.2      5.504     12.250
REMARK  Name = 9543496
REMARK  7 active torsions:
REMARK  status: ('A' for Active; 'I' for Inactive)
REMARK    1  A    between atoms: C_2  and  N_18
REMARK    2  A    between atoms: C_3  and  C_7
REMARK    3  A    between atoms: C_5  and  C_15
REMARK    4  A    between atoms: C_9  and  C_12
REMARK    5  A    between atoms: C_15  and  O_16
REMARK    6  A    between atoms: N_18  and  S_20
REMARK    7  A    between atoms: S_20  and  C_23
REMARK                            x       y       z     vdW  Elec       q    Type
REMARK                         _______ _______ _______ _____ _____    ______ ____
ROOT
ATOM      1  S   UNL     1      32.984 -20.738 -19.570  0.00  0.00    -0.079 S 
ATOM      2  C   UNL     1      34.948 -21.698 -18.237  0.00  0.00    +0.078 C 
ATOM      3  C   UNL     1      34.560 -20.187 -19.950  0.00  0.00    +0.037 C 
ATOM      4  C   UNL     1      35.519 -20.782 -19.160  0.00  0.00    +0.024 C 
ATOM      5  C   UNL     1      33.582 -21.776 -18.346  0.00  0.00    +0.120 C 
ENDROOT
BRANCH   3   7
ATOM      6  S   UNL     1      33.563 -18.939 -22.157  0.00  0.00    -0.084 S 
ATOM      7  C   UNL     1      34.765 -19.227 -20.974  0.00  0.00    +0.036 C 
ATOM      8  C   UNL     1      35.877 -18.436 -21.163  0.00  0.00    +0.008 C 
ATOM      9  C   UNL     1      34.528 -17.753 -22.929  0.00  0.00    +0.064 C 
ATOM     10  C   UNL     1      35.741 -17.583 -22.296  0.00  0.00    +0.010 C 
BRANCH   9  12
ATOM     11  O   UNL     1      33.364 -17.651 -24.998  0.00  0.00    -0.291 OA
ATOM     12  C   UNL     1      34.022 -17.090 -24.086  0.00  0.00    +0.179 C 
ATOM     13  C   UNL     1      34.273 -15.590 -24.279  0.00  0.00    +0.078 C 
ENDBRANCH   9  12
ENDBRANCH   3   7
BRANCH   5  15
ATOM     14  O   UNL     1      31.438 -22.356 -17.447  0.00  0.00    -0.244 OA
ATOM     15  C   UNL     1      32.654 -22.570 -17.607  0.00  0.00    +0.345 C 
BRANCH  15  16
ATOM     16  O   UNL     1      33.230 -23.676 -17.035  0.00  0.00    -0.477 OA
ATOM     17  H   UNL     1      32.719 -24.241 -16.489  0.00  0.00    +0.295 HD
ENDBRANCH  15  16
ENDBRANCH   5  15
BRANCH   2  18
ATOM     18  N   UNL     1      35.732 -22.433 -17.316  0.00  0.00    -0.214 N 
ATOM     19  H   UNL     1      36.098 -23.296 -17.616  0.00  0.00    +0.174 HD
BRANCH  18  20
ATOM     20  S   UNL     1      36.093 -21.938 -15.723  0.00  0.00    +0.073 S 
ATOM     21  O   UNL     1      34.885 -22.018 -14.912  0.00  0.00    -0.150 OA
ATOM     22  O   UNL     1      36.849 -20.693 -15.767  0.00  0.00    -0.150 OA
BRANCH  20  23
ATOM     23  C   UNL     1      37.178 -23.211 -15.209  0.00  0.00    +0.121 C 
ATOM     24  C   UNL     1      36.694 -24.377 -14.616  0.00  0.00    -0.003 C 
ATOM     25  C   UNL     1      38.549 -23.043 -15.400  0.00  0.00    +0.020 C 
ATOM     26  C   UNL     1      37.581 -25.376 -14.216  0.00  0.00    -0.007 C 
ATOM     27  C   UNL     1      38.953 -25.209 -14.408  0.00  0.00    -0.022 C 
ATOM     28  C   UNL     1      39.436 -24.042 -15.000  0.00  0.00    -0.003 C 
ATOM     29  C   UNL     1      35.232 -24.588 -14.399  0.00  0.00    +0.032 C 
ATOM     30  C   UNL     1      39.903 -26.276 -13.979  0.00  0.00    +0.031 C 
ENDBRANCH  20  23
ENDBRANCH  18  20
ENDBRANCH   2  18
TORSDOF 7
ENDMDL
MODEL 4
REMARK VINA RESULT:     -10.1      3.145      5.066
REMARK  Name = 9543496
REMARK  7 active torsions:
REMARK  status: ('A' for Active; 'I' for Inactive)
REMARK    1  A    between atoms: C_2  and  N_18
REMARK    2  A    between atoms: C_3  and  C_7
REMARK    3  A    between atoms: C_5  and  C_15
REMARK    4  A    between atoms: C_9  and  C_12
REMARK    5  A    between atoms: C_15  and  O_16
REMARK    6  A    between atoms: N_18  and  S_20
REMARK    7  A    between atoms: S_20  and  C_23
REMARK                            x       y       z     vdW  Elec       q    Type
REMARK                         _______ _______ _______ _____ _____    ______ ____
ROOT
ATOM      1  S   UNL     1      31.844 -12.009 -21.304  0.00  0.00    -0.079 S 
ATOM      2  C   UNL     1      32.409 -10.149 -22.970  0.00  0.00    +0.078 C 
ATOM      3  C   UNL     1      32.900 -12.382 -22.598  0.00  0.00    +0.037 C 
ATOM      4  C   UNL     1      33.119 -11.296 -23.416  0.00  0.00    +0.024 C 
ATOM      5  C   UNL     1      31.675 -10.390 -21.836  0.00  0.00    +0.120 C 
ENDROOT
BRANCH   3   7
ATOM      6  S   UNL     1      33.865 -14.610 -21.360  0.00  0.00    -0.084 S 
ATOM      7  C   UNL     1      33.444 -13.685 -22.737  0.00  0.00    +0.036 C 
ATOM      8  C   UNL     1      33.698 -14.361 -23.911  0.00  0.00    +0.008 C 
ATOM      9  C   UNL     1      34.390 -15.919 -22.331  0.00  0.00    +0.064 C 
ATOM     10  C   UNL     1      34.247 -15.654 -23.676  0.00  0.00    +0.010 C 
BRANCH   9  12
ATOM     11  O   UNL     1      35.317 -17.141 -20.516  0.00  0.00    -0.291 OA
ATOM     12  C   UNL     1      34.898 -17.093 -21.700  0.00  0.00    +0.179 C 
ATOM     13  C   UNL     1      34.960 -18.413 -22.476  0.00  0.00    +0.078 C 
ENDBRANCH   9  12
ENDBRANCH   3   7
BRANCH   5  15
ATOM     14  O   UNL     1      30.461  -9.639 -19.911  0.00  0.00    -0.244 OA
ATOM     15  C   UNL     1      30.838  -9.506 -21.089  0.00  0.00    +0.345 C 
BRANCH  15  16
ATOM     16  O   UNL     1      30.440  -8.408 -21.809  0.00  0.00    -0.477 OA
ATOM     17  H   UNL     1      30.136  -8.511 -22.690  0.00  0.00    +0.295 HD
ENDBRANCH  15  16
ENDBRANCH   5  15
BRANCH   2  18
ATOM     18  N   UNL     1      32.473  -8.908 -23.648  0.00  0.00    -0.214 N 
ATOM     19  H   UNL     1      31.845  -8.763 -24.392  0.00  0.00    +0.174 HD
BRANCH  18  20
ATOM     20  S   UNL     1      33.555  -7.643 -23.275  0.00  0.00    +0.073 S 
ATOM     21  O   UNL     1      34.916  -8.163 -23.271  0.00  0.00    -0.150 OA
ATOM     22  O   UNL     1      33.060  -6.914 -22.115  0.00  0.00    -0.150 OA
BRANCH  20  23
ATOM     23  C   UNL     1      33.372  -6.613 -24.678  0.00  0.00    +0.121 C 
ATOM     24  C   UNL     1      32.119  -6.140 -25.068  0.00  0.00    -0.003 C 
ATOM     25  C   UNL     1      34.507  -6.268 -25.411  0.00  0.00    +0.020 C 
ATOM     26  C   UNL     1      32.002  -5.321 -26.191  0.00  0.00    -0.007 C 
ATOM     27  C   UNL     1      33.137  -4.975 -26.924  0.00  0.00    -0.022 C 
ATOM     28  C   UNL     1      34.390  -5.449 -26.534  0.00  0.00    -0.003 C 
ATOM     29  C   UNL     1      30.885  -6.490 -24.304  0.00  0.00    +0.032 C 
ATOM     30  C   UNL     1      33.013  -4.100 -28.125  0.00  0.00    +0.031 C 
ENDBRANCH  20  23
ENDBRANCH  18  20
ENDBRANCH   2  18
TORSDOF 7
ENDMDL
MODEL 5
REMARK VINA RESULT:      -9.9      7.538     13.272
REMARK  Name = 9543496
REMARK  7 active torsions:
REMARK  status: ('A' for Active; 'I' for Inactive)
REMARK    1  A    between atoms: C_2  and  N_18
REMARK    2  A    between atoms: C_3  and  C_7
REMARK    3  A    between atoms: C_5  and  C_15
REMARK    4  A    between atoms: C_9  and  C_12
REMARK    5  A    between atoms: C_15  and  O_16
REMARK    6  A    between atoms: N_18  and  S_20
REMARK    7  A    between atoms: S_20  and  C_23
REMARK                            x       y       z     vdW  Elec       q    Type
REMARK                         _______ _______ _______ _____ _____    ______ ____
ROOT
ATOM      1  S   UNL     1      31.484 -22.096 -17.228  0.00  0.00    -0.079 S 
ATOM      2  C   UNL     1      33.486 -23.222 -16.097  0.00  0.00    +0.078 C 
ATOM      3  C   UNL     1      33.037 -21.838 -17.900  0.00  0.00    +0.037 C 
ATOM      4  C   UNL     1      34.020 -22.498 -17.196  0.00  0.00    +0.024 C 
ATOM      5  C   UNL     1      32.124 -23.094 -15.992  0.00  0.00    +0.120 C 
ENDROOT
BRANCH   3   7
ATOM      6  S   UNL     1      34.768 -20.634 -19.627  0.00  0.00    -0.084 S 
ATOM      7  C   UNL     1      33.204 -21.023 -19.050  0.00  0.00    +0.036 C 
ATOM      8  C   UNL     1      32.212 -20.462 -19.824  0.00  0.00    +0.008 C 
ATOM      9  C   UNL     1      34.122 -19.711 -20.916  0.00  0.00    +0.064 C 
ATOM     10  C   UNL     1      32.744 -19.701 -20.905  0.00  0.00    +0.010 C 
BRANCH   9  12
ATOM     11  O   UNL     1      34.826 -18.994 -23.070  0.00  0.00    -0.291 OA
ATOM     12  C   UNL     1      35.013 -19.073 -21.829  0.00  0.00    +0.179 C 
ATOM     13  C   UNL     1      36.303 -18.427 -21.313  0.00  0.00    +0.078 C 
ENDBRANCH   9  12
ENDBRANCH   3   7
BRANCH   5  15
ATOM     14  O   UNL     1      30.195 -24.315 -15.263  0.00  0.00    -0.244 OA
ATOM     15  C   UNL     1      31.228 -23.658 -15.035  0.00  0.00    +0.345 C 
BRANCH  15  16
ATOM     16  O   UNL     1      31.605 -23.415 -13.738  0.00  0.00    -0.477 OA
ATOM     17  H   UNL     1      32.489 -23.574 -13.470  0.00  0.00    +0.295 HD
ENDBRANCH  15  16
ENDBRANCH   5  15
BRANCH   2  18
ATOM     18  N   UNL     1      34.300 -23.980 -15.222  0.00  0.00    -0.214 N 
ATOM     19  H   UNL     1      34.465 -24.922 -15.456  0.00  0.00    +0.174 HD
BRANCH  18  20
ATOM     20  S   UNL     1      35.018 -23.387 -13.792  0.00  0.00    +0.073 S 
ATOM     21  O   UNL     1      34.322 -23.946 -12.640  0.00  0.00    -0.150 OA
ATOM     22  O   UNL     1      35.184 -21.944 -13.901  0.00  0.00    -0.150 OA
BRANCH  20  23
ATOM     23  C   UNL     1      36.604 -24.122 -13.877  0.00  0.00    +0.121 C 
ATOM     24  C   UNL     1      37.578 -23.638 -14.749  0.00  0.00    -0.003 C 
ATOM     25  C   UNL     1      36.885 -25.211 -13.052  0.00  0.00    +0.020 C 
ATOM     26  C   UNL     1      38.834 -24.242 -14.797  0.00  0.00    -0.007 C 
ATOM     27  C   UNL     1      39.116 -25.331 -13.972  0.00  0.00    -0.022 C 
ATOM     28  C   UNL     1      38.141 -25.816 -13.100  0.00  0.00    -0.003 C 
ATOM     29  C   UNL     1      37.309 -22.473 -15.644  0.00  0.00    +0.032 C 
ATOM     30  C   UNL     1      40.458 -25.979 -14.023  0.00  0.00    +0.031 C 
ENDBRANCH  20  23
ENDBRANCH  18  20
ENDBRANCH   2  18
TORSDOF 7
ENDMDL
MODEL 6
REMARK VINA RESULT:      -9.9      7.576     11.056
REMARK  Name = 9543496
REMARK  7 active torsions:
REMARK  status: ('A' for Active; 'I' for Inactive)
REMARK    1  A    between atoms: C_2  and  N_18
REMARK    2  A    between atoms: C_3  and  C_7
REMARK    3  A    between atoms: C_5  and  C_15
REMARK    4  A    between atoms: C_9  and  C_12
REMARK    5  A    between atoms: C_15  and  O_16
REMARK    6  A    between atoms: N_18  and  S_20
REMARK    7  A    between atoms: S_20  and  C_23
REMARK                            x       y       z     vdW  Elec       q    Type
REMARK                         _______ _______ _______ _____ _____    ______ ____
ROOT
ATOM      1  S   UNL     1      33.426 -24.007 -14.436  0.00  0.00    -0.079 S 
ATOM      2  C   UNL     1      33.606 -22.366 -16.393  0.00  0.00    +0.078 C 
ATOM      3  C   UNL     1      34.983 -23.667 -15.061  0.00  0.00    +0.037 C 
ATOM      4  C   UNL     1      34.936 -22.772 -16.108  0.00  0.00    +0.024 C 
ATOM      5  C   UNL     1      32.683 -22.956 -15.567  0.00  0.00    +0.120 C 
ENDROOT
BRANCH   3   7
ATOM      6  S   UNL     1      37.705 -23.772 -14.969  0.00  0.00    -0.084 S 
ATOM      7  C   UNL     1      36.137 -24.279 -14.506  0.00  0.00    +0.036 C 
ATOM      8  C   UNL     1      36.175 -25.297 -13.579  0.00  0.00    +0.008 C 
ATOM      9  C   UNL     1      38.441 -24.916 -13.929  0.00  0.00    +0.064 C 
ATOM     10  C   UNL     1      37.510 -25.667 -13.245  0.00  0.00    +0.010 C 
BRANCH   9  12
ATOM     11  O   UNL     1      40.627 -23.986 -13.855  0.00  0.00    -0.291 OA
ATOM     12  C   UNL     1      39.865 -24.985 -13.869  0.00  0.00    +0.179 C 
ATOM     13  C   UNL     1      40.563 -26.349 -13.818  0.00  0.00    +0.078 C 
ENDBRANCH   9  12
ENDBRANCH   3   7
BRANCH   5  15
ATOM     14  O   UNL     1      30.505 -23.008 -14.569  0.00  0.00    -0.244 OA
ATOM     15  C   UNL     1      31.263 -22.810 -15.536  0.00  0.00    +0.345 C 
BRANCH  15  16
ATOM     16  O   UNL     1      30.740 -22.401 -16.736  0.00  0.00    -0.477 OA
ATOM     17  H   UNL     1      29.914 -21.958 -16.760  0.00  0.00    +0.295 HD
ENDBRANCH  15  16
ENDBRANCH   5  15
BRANCH   2  18
ATOM     18  N   UNL     1      33.300 -21.451 -17.429  0.00  0.00    -0.214 N 
ATOM     19  H   UNL     1      33.219 -20.500 -17.187  0.00  0.00    +0.174 HD
BRANCH  18  20
ATOM     20  S   UNL     1      33.059 -21.869 -19.066  0.00  0.00    +0.073 S 
ATOM     21  O   UNL     1      31.669 -21.624 -19.423  0.00  0.00    -0.150 OA
ATOM     22  O   UNL     1      33.648 -23.178 -19.318  0.00  0.00    -0.150 OA
BRANCH  20  23
ATOM     23  C   UNL     1      34.046 -20.669 -19.872  0.00  0.00    +0.121 C 
ATOM     24  C   UNL     1      35.407 -20.546 -19.591  0.00  0.00    -0.003 C 
ATOM     25  C   UNL     1      33.449 -19.827 -20.809  0.00  0.00    +0.020 C 
ATOM     26  C   UNL     1      36.170 -19.581 -20.248  0.00  0.00    -0.007 C 
ATOM     27  C   UNL     1      35.573 -18.738 -21.186  0.00  0.00    -0.022 C 
ATOM     28  C   UNL     1      34.212 -18.862 -21.466  0.00  0.00    -0.003 C 
ATOM     29  C   UNL     1      36.077 -21.433 -18.594  0.00  0.00    +0.032 C 
ATOM     30  C   UNL     1      36.388 -17.705 -21.888  0.00  0.00    +0.031 C 
ENDBRANCH  20  23
ENDBRANCH  18  20
ENDBRANCH   2  18
TORSDOF 7
ENDMDL
MODEL 7
REMARK VINA RESULT:      -9.8      7.876     12.691
REMARK  Name = 9543496
REMARK  7 active torsions:
REMARK  status: ('A' for Active; 'I' for Inactive)
REMARK    1  A    between atoms: C_2  and  N_18
REMARK    2  A    between atoms: C_3  and  C_7
REMARK    3  A    between atoms: C_5  and  C_15
REMARK    4  A    between atoms: C_9  and  C_12
REMARK    5  A    between atoms: C_15  and  O_16
REMARK    6  A    between atoms: N_18  and  S_20
REMARK    7  A    between atoms: S_20  and  C_23
REMARK                            x       y       z     vdW  Elec       q    Type
REMARK                         _______ _______ _______ _____ _____    ______ ____
ROOT
ATOM      1  S   UNL     1      35.297 -22.487 -16.175  0.00  0.00    -0.079 S 
ATOM      2  C   UNL     1      33.258 -23.728 -15.250  0.00  0.00    +0.078 C 
ATOM      3  C   UNL     1      33.818 -22.348 -17.025  0.00  0.00    +0.037 C 
ATOM      4  C   UNL     1      32.806 -23.063 -16.422  0.00  0.00    +0.024 C 
ATOM      5  C   UNL     1      34.588 -23.506 -14.996  0.00  0.00    +0.120 C 
ENDROOT
BRANCH   3   7
ATOM      6  S   UNL     1      35.142 -20.971 -18.967  0.00  0.00    -0.084 S 
ATOM      7  C   UNL     1      33.730 -21.566 -18.206  0.00  0.00    +0.036 C 
ATOM      8  C   UNL     1      32.585 -21.194 -18.875  0.00  0.00    +0.008 C 
ATOM      9  C   UNL     1      34.225 -20.210 -20.196  0.00  0.00    +0.064 C 
ATOM     10  C   UNL     1      32.871 -20.407 -20.028  0.00  0.00    +0.010 C 
BRANCH   9  12
ATOM     11  O   UNL     1      34.494 -19.375 -22.405  0.00  0.00    -0.291 OA
ATOM     12  C   UNL     1      34.902 -19.484 -21.221  0.00  0.00    +0.179 C 
ATOM     13  C   UNL     1      36.221 -18.770 -20.908  0.00  0.00    +0.078 C 
ENDBRANCH   9  12
ENDBRANCH   3   7
BRANCH   5  15
ATOM     14  O   UNL     1      36.641 -24.123 -13.925  0.00  0.00    -0.244 OA
ATOM     15  C   UNL     1      35.403 -23.992 -13.929  0.00  0.00    +0.345 C 
BRANCH  15  16
ATOM     16  O   UNL     1      34.681 -24.334 -12.814  0.00  0.00    -0.477 OA
ATOM     17  H   UNL     1      33.758 -24.482 -12.882  0.00  0.00    +0.295 HD
ENDBRANCH  15  16
ENDBRANCH   5  15
BRANCH   2  18
ATOM     18  N   UNL     1      32.402 -24.528 -14.457  0.00  0.00    -0.214 N 
ATOM     19  H   UNL     1      32.443 -25.503 -14.583  0.00  0.00    +0.174 HD
BRANCH  18  20
ATOM     20  S   UNL     1      31.302 -23.932 -13.296  0.00  0.00    +0.073 S 
ATOM     21  O   UNL     1      31.874 -22.757 -12.653  0.00  0.00    -0.150 OA
ATOM     22  O   UNL     1      30.822 -25.038 -12.477  0.00  0.00    -0.150 OA
BRANCH  20  23
ATOM     23  C   UNL     1      29.982 -23.404 -14.317  0.00  0.00    +0.121 C 
ATOM     24  C   UNL     1      29.117 -24.322 -14.912  0.00  0.00    -0.003 C 
ATOM     25  C   UNL     1      29.804 -22.037 -14.532  0.00  0.00    +0.020 C 
ATOM     26  C   UNL     1      28.073 -23.873 -15.721  0.00  0.00    -0.007 C 
ATOM     27  C   UNL     1      27.895 -22.506 -15.936  0.00  0.00    -0.022 C 
ATOM     28  C   UNL     1      28.761 -21.589 -15.342  0.00  0.00    -0.003 C 
ATOM     29  C   UNL     1      29.279 -25.791 -14.700  0.00  0.00    +0.032 C 
ATOM     30  C   UNL     1      26.780 -22.026 -16.803  0.00  0.00    +0.031 C 
ENDBRANCH  20  23
ENDBRANCH  18  20
ENDBRANCH   2  18
TORSDOF 7
ENDMDL
MODEL 8
REMARK VINA RESULT:      -9.6      6.101     11.619
REMARK  Name = 9543496
REMARK  7 active torsions:
REMARK  status: ('A' for Active; 'I' for Inactive)
REMARK    1  A    between atoms: C_2  and  N_18
REMARK    2  A    between atoms: C_3  and  C_7
REMARK    3  A    between atoms: C_5  and  C_15
REMARK    4  A    between atoms: C_9  and  C_12
REMARK    5  A    between atoms: C_15  and  O_16
REMARK    6  A    between atoms: N_18  and  S_20
REMARK    7  A    between atoms: S_20  and  C_23
REMARK                            x       y       z     vdW  Elec       q    Type
REMARK                         _______ _______ _______ _____ _____    ______ ____
ROOT
ATOM      1  S   UNL     1      36.558 -21.110 -17.612  0.00  0.00    -0.079 S 
ATOM      2  C   UNL     1      34.416 -22.417 -17.105  0.00  0.00    +0.078 C 
ATOM      3  C   UNL     1      35.227 -20.913 -18.670  0.00  0.00    +0.037 C 
ATOM      4  C   UNL     1      34.143 -21.671 -18.283  0.00  0.00    +0.024 C 
ATOM      5  C   UNL     1      35.687 -22.211 -16.632  0.00  0.00    +0.120 C 
ENDROOT
BRANCH   3   7
ATOM      6  S   UNL     1      33.946 -19.758 -20.780  0.00  0.00    -0.084 S 
ATOM      7  C   UNL     1      35.314 -20.049 -19.792  0.00  0.00    +0.036 C 
ATOM      8  C   UNL     1      36.424 -19.361 -20.230  0.00  0.00    +0.008 C 
ATOM      9  C   UNL     1      34.837 -18.710 -21.799  0.00  0.00    +0.064 C 
ATOM     10  C   UNL     1      36.148 -18.586 -21.393  0.00  0.00    +0.010 C 
BRANCH   9  12
ATOM     11  O   UNL     1      33.449 -18.705 -23.728  0.00  0.00    -0.291 OA
ATOM     12  C   UNL     1      34.183 -18.097 -22.909  0.00  0.00    +0.179 C 
ATOM     13  C   UNL     1      34.356 -16.596 -23.165  0.00  0.00    +0.078 C 
ENDBRANCH   9  12
ENDBRANCH   3   7
BRANCH   5  15
ATOM     14  O   UNL     1      36.952 -22.161 -14.597  0.00  0.00    -0.244 OA
ATOM     15  C   UNL     1      36.334 -22.771 -15.489  0.00  0.00    +0.345 C 
BRANCH  15  16
ATOM     16  O   UNL     1      36.225 -24.137 -15.425  0.00  0.00    -0.477 OA
ATOM     17  H   UNL     1      36.559 -24.666 -16.123  0.00  0.00    +0.295 HD
ENDBRANCH  15  16
ENDBRANCH   5  15
BRANCH   2  18
ATOM     18  N   UNL     1      33.457 -23.272 -16.512  0.00  0.00    -0.214 N 
ATOM     19  H   UNL     1      33.091 -23.999 -17.066  0.00  0.00    +0.174 HD
BRANCH  18  20
ATOM     20  S   UNL     1      32.886 -23.141 -14.909  0.00  0.00    +0.073 S 
ATOM     21  O   UNL     1      33.465 -21.957 -14.290  0.00  0.00    -0.150 OA
ATOM     22  O   UNL     1      33.011 -24.434 -14.248  0.00  0.00    -0.150 OA
BRANCH  20  23
ATOM     23  C   UNL     1      31.184 -22.835 -15.179  0.00  0.00    +0.121 C 
ATOM     24  C   UNL     1      30.269 -22.869 -14.127  0.00  0.00    -0.003 C 
ATOM     25  C   UNL     1      30.749 -22.553 -16.473  0.00  0.00    +0.020 C 
ATOM     26  C   UNL     1      28.918 -22.621 -14.370  0.00  0.00    -0.007 C 
ATOM     27  C   UNL     1      28.482 -22.338 -15.665  0.00  0.00    -0.022 C 
ATOM     28  C   UNL     1      29.398 -22.304 -16.716  0.00  0.00    -0.003 C 
ATOM     29  C   UNL     1      30.703 -23.167 -12.730  0.00  0.00    +0.032 C 
ATOM     30  C   UNL     1      27.037 -22.074 -15.926  0.00  0.00    +0.031 C 
ENDBRANCH  20  23
ENDBRANCH  18  20
ENDBRANCH   2  18
TORSDOF 7
ENDMDL
MODEL 9
REMARK VINA RESULT:      -9.5      3.293      6.195
REMARK  Name = 9543496
REMARK  7 active torsions:
REMARK  status: ('A' for Active; 'I' for Inactive)
REMARK    1  A    between atoms: C_2  and  N_18
REMARK    2  A    between atoms: C_3  and  C_7
REMARK    3  A    between atoms: C_5  and  C_15
REMARK    4  A    between atoms: C_9  and  C_12
REMARK    5  A    between atoms: C_15  and  O_16
REMARK    6  A    between atoms: N_18  and  S_20
REMARK    7  A    between atoms: S_20  and  C_23
REMARK                            x       y       z     vdW  Elec       q    Type
REMARK                         _______ _______ _______ _____ _____    ______ ____
ROOT
ATOM      1  S   UNL     1      31.938 -11.189 -20.965  0.00  0.00    -0.079 S 
ATOM      2  C   UNL     1      31.497  -8.941 -22.110  0.00  0.00    +0.078 C 
ATOM      3  C   UNL     1      32.150 -11.095 -22.661  0.00  0.00    +0.037 C 
ATOM      4  C   UNL     1      31.880  -9.834 -23.146  0.00  0.00    +0.024 C 
ATOM      5  C   UNL     1      31.484  -9.540 -20.875  0.00  0.00    +0.120 C 
ENDROOT
BRANCH   3   7
ATOM      6  S   UNL     1      33.178 -13.618 -22.616  0.00  0.00    -0.084 S 
ATOM      7  C   UNL     1      32.558 -12.232 -23.406  0.00  0.00    +0.036 C 
ATOM      8  C   UNL     1      32.522 -12.388 -24.774  0.00  0.00    +0.008 C 
ATOM      9  C   UNL     1      33.402 -14.433 -24.105  0.00  0.00    +0.064 C 
ATOM     10  C   UNL     1      33.012 -13.663 -25.179  0.00  0.00    +0.010 C 
BRANCH   9  12
ATOM     11  O   UNL     1      33.933 -16.530 -25.089  0.00  0.00    -0.291 OA
ATOM     12  C   UNL     1      33.939 -15.755 -24.100  0.00  0.00    +0.179 C 
ATOM     13  C   UNL     1      34.579 -16.316 -22.826  0.00  0.00    +0.078 C 
ENDBRANCH   9  12
ENDBRANCH   3   7
BRANCH   5  15
ATOM     14  O   UNL     1      30.334  -9.427 -18.776  0.00  0.00    -0.244 OA
ATOM     15  C   UNL     1      31.157  -8.988 -19.599  0.00  0.00    +0.345 C 
BRANCH  15  16
ATOM     16  O   UNL     1      31.865  -7.849 -19.311  0.00  0.00    -0.477 OA
ATOM     17  H   UNL     1      31.634  -7.038 -19.721  0.00  0.00    +0.295 HD
ENDBRANCH  15  16
ENDBRANCH   5  15
BRANCH   2  18
ATOM     18  N   UNL     1      31.169  -7.588 -22.359  0.00  0.00    -0.214 N 
ATOM     19  H   UNL     1      30.239  -7.383 -22.609  0.00  0.00    +0.174 HD
BRANCH  18  20
ATOM     20  S   UNL     1      32.262  -6.280 -22.259  0.00  0.00    +0.073 S 
ATOM     21  O   UNL     1      33.472  -6.719 -21.577  0.00  0.00    -0.150 OA
ATOM     22  O   UNL     1      31.554  -5.099 -21.782  0.00  0.00    -0.150 OA
BRANCH  20  23
ATOM     23  C   UNL     1      32.650  -6.032 -23.948  0.00  0.00    +0.121 C 
ATOM     24  C   UNL     1      31.678  -6.166 -24.939  0.00  0.00    -0.003 C 
ATOM     25  C   UNL     1      33.957  -5.693 -24.294  0.00  0.00    +0.020 C 
ATOM     26  C   UNL     1      32.015  -5.962 -26.277  0.00  0.00    -0.007 C 
ATOM     27  C   UNL     1      33.323  -5.623 -26.624  0.00  0.00    -0.022 C 
ATOM     28  C   UNL     1      34.294  -5.489 -25.632  0.00  0.00    -0.003 C 
ATOM     29  C   UNL     1      30.269  -6.526 -24.601  0.00  0.00    +0.032 C 
ATOM     30  C   UNL     1      33.684  -5.406 -28.055  0.00  0.00    +0.031 C 
ENDBRANCH  20  23
ENDBRANCH  18  20
ENDBRANCH   2  18
TORSDOF 7
ENDMDL
