MODEL 1
REMARK VINA RESULT:     -11.4      0.000      0.000
REMARK  Name = 66359
REMARK  2 active torsions:
REMARK  status: ('A' for Active; 'I' for Inactive)
REMARK    1  A    between atoms: C_5  and  O_20
REMARK    2  A    between atoms: O_20  and  C_22
REMARK                            x       y       z     vdW  Elec       q    Type
REMARK                         _______ _______ _______ _____ _____    ______ ____
ROOT
ATOM      1  O   UNL     1      33.176 -19.198 -21.399  0.00  0.00    -0.291 OA
ATOM      2  C   UNL     1      35.453 -22.338 -14.945  0.00  0.00    +0.011 C 
ATOM      3  C   UNL     1      34.657 -23.523 -14.349  0.00  0.00    +0.056 C 
ATOM      4  C   UNL     1      35.565 -22.450 -16.465  0.00  0.00    +0.023 C 
ATOM      5  C   UNL     1      34.718 -23.119 -12.864  0.00  0.00    +0.172 C 
ATOM      6  C   UNL     1      36.701 -22.275 -14.075  0.00  0.00    +0.004 C 
ATOM      7  C   UNL     1      36.173 -22.633 -12.672  0.00  0.00    +0.044 C 
ATOM      8  C   UNL     1      34.142 -22.413 -17.066  0.00  0.00    -0.027 C 
ATOM      9  C   UNL     1      36.483 -21.374 -17.054  0.00  0.00    +0.009 C 
ATOM     10  C   UNL     1      33.304 -23.542 -15.007  0.00  0.00    -0.024 C 
ATOM     11  C   UNL     1      35.285 -24.920 -14.569  0.00  0.00    +0.008 C 
ATOM     12  C   UNL     1      33.100 -23.053 -16.245  0.00  0.00    -0.009 C 
ATOM     13  C   UNL     1      33.894 -21.800 -18.253  0.00  0.00    -0.030 C 
ATOM     14  C   UNL     1      36.390 -21.409 -18.574  0.00  0.00    +0.026 C 
ATOM     15  C   UNL     1      34.972 -21.141 -19.013  0.00  0.00    -0.024 C 
ATOM     16  C   UNL     1      32.540 -21.741 -18.937  0.00  0.00    +0.034 C 
ATOM     17  C   UNL     1      34.744 -20.305 -20.039  0.00  0.00    +0.033 C 
ATOM     18  C   UNL     1      32.241 -20.369 -19.528  0.00  0.00    +0.074 C 
ATOM     19  C   UNL     1      33.367 -19.920 -20.423  0.00  0.00    +0.173 C 
ENDROOT
BRANCH   5  20
ATOM     20  O   UNL     1      34.416 -24.189 -11.987  0.00  0.00    -0.452 OA
BRANCH  20  22
ATOM     21  O   UNL     1      36.244 -25.424 -11.301  0.00  0.00    -0.250 OA
ATOM     22  C   UNL     1      35.409 -24.549 -11.114  0.00  0.00    +0.317 C 
ATOM     23  C   UNL     1      35.334 -23.711  -9.874  0.00  0.00    +0.121 C 
ENDBRANCH  20  22
ENDBRANCH   5  20
TORSDOF 2
ENDMDL
MODEL 2
REMARK VINA RESULT:     -11.0      1.334      7.608
REMARK  Name = 66359
REMARK  2 active torsions:
REMARK  status: ('A' for Active; 'I' for Inactive)
REMARK    1  A    between atoms: C_5  and  O_20
REMARK    2  A    between atoms: O_20  and  C_22
REMARK                            x       y       z     vdW  Elec       q    Type
REMARK                         _______ _______ _______ _____ _____    ______ ____
ROOT
ATOM      1  O   UNL     1      35.623 -23.411 -11.139  0.00  0.00    -0.291 OA
ATOM      2  C   UNL     1      33.571 -21.366 -18.089  0.00  0.00    +0.011 C 
ATOM      3  C   UNL     1      34.648 -21.202 -19.187  0.00  0.00    +0.056 C 
ATOM      4  C   UNL     1      33.855 -22.580 -17.207  0.00  0.00    +0.023 C 
ATOM      5  C   UNL     1      34.094 -19.936 -19.868  0.00  0.00    +0.172 C 
ATOM      6  C   UNL     1      32.261 -21.251 -18.857  0.00  0.00    +0.004 C 
ATOM      7  C   UNL     1      32.570 -20.184 -19.926  0.00  0.00    +0.044 C 
ATOM      8  C   UNL     1      35.216 -22.370 -16.505  0.00  0.00    -0.027 C 
ATOM      9  C   UNL     1      32.717 -22.850 -16.217  0.00  0.00    +0.009 C 
ATOM     10  C   UNL     1      35.985 -21.093 -18.505  0.00  0.00    -0.024 C 
ATOM     11  C   UNL     1      34.751 -22.372 -20.195  0.00  0.00    +0.008 C 
ATOM     12  C   UNL     1      36.223 -21.648 -17.300  0.00  0.00    -0.009 C 
ATOM     13  C   UNL     1      35.429 -22.803 -15.236  0.00  0.00    -0.030 C 
ATOM     14  C   UNL     1      33.147 -23.934 -15.237  0.00  0.00    +0.026 C 
ATOM     15  C   UNL     1      34.369 -23.487 -14.473  0.00  0.00    -0.024 C 
ATOM     16  C   UNL     1      36.738 -22.672 -14.478  0.00  0.00    +0.034 C 
ATOM     17  C   UNL     1      34.431 -23.694 -13.148  0.00  0.00    +0.033 C 
ATOM     18  C   UNL     1      36.536 -22.251 -13.027  0.00  0.00    +0.074 C 
ATOM     19  C   UNL     1      35.555 -23.164 -12.341  0.00  0.00    +0.173 C 
ENDROOT
BRANCH   5  20
ATOM     20  O   UNL     1      34.628 -19.725 -21.162  0.00  0.00    -0.452 OA
BRANCH  20  22
ATOM     21  O   UNL     1      36.338 -18.269 -20.625  0.00  0.00    -0.250 OA
ATOM     22  C   UNL     1      35.389 -18.597 -21.322  0.00  0.00    +0.317 C 
ATOM     23  C   UNL     1      34.893 -17.803 -22.492  0.00  0.00    +0.121 C 
ENDBRANCH  20  22
ENDBRANCH   5  20
TORSDOF 2
ENDMDL
MODEL 3
REMARK VINA RESULT:     -10.3      1.603      2.272
REMARK  Name = 66359
REMARK  2 active torsions:
REMARK  status: ('A' for Active; 'I' for Inactive)
REMARK    1  A    between atoms: C_5  and  O_20
REMARK    2  A    between atoms: O_20  and  C_22
REMARK                            x       y       z     vdW  Elec       q    Type
REMARK                         _______ _______ _______ _____ _____    ______ ____
ROOT
ATOM      1  O   UNL     1      34.236 -18.607 -21.895  0.00  0.00    -0.291 OA
ATOM      2  C   UNL     1      34.486 -22.343 -15.362  0.00  0.00    +0.011 C 
ATOM      3  C   UNL     1      33.438 -23.441 -15.069  0.00  0.00    +0.056 C 
ATOM      4  C   UNL     1      34.953 -22.391 -16.816  0.00  0.00    +0.023 C 
ATOM      5  C   UNL     1      33.180 -23.126 -13.584  0.00  0.00    +0.172 C 
ATOM      6  C   UNL     1      35.482 -22.489 -14.220  0.00  0.00    +0.004 C 
ATOM      7  C   UNL     1      34.589 -22.846 -13.015  0.00  0.00    +0.044 C 
ATOM      8  C   UNL     1      33.735 -22.137 -17.732  0.00  0.00    -0.027 C 
ATOM      9  C   UNL     1      36.105 -21.417 -17.083  0.00  0.00    +0.009 C 
ATOM     10  C   UNL     1      32.293 -23.249 -16.027  0.00  0.00    -0.024 C 
ATOM     11  C   UNL     1      33.934 -24.896 -15.247  0.00  0.00    +0.008 C 
ATOM     12  C   UNL     1      32.457 -22.675 -17.235  0.00  0.00    -0.009 C 
ATOM     13  C   UNL     1      33.857 -21.438 -18.890  0.00  0.00    -0.030 C 
ATOM     14  C   UNL     1      36.384 -21.362 -18.579  0.00  0.00    +0.026 C 
ATOM     15  C   UNL     1      35.156 -20.889 -19.318  0.00  0.00    -0.024 C 
ATOM     16  C   UNL     1      32.728 -21.166 -19.868  0.00  0.00    +0.034 C 
ATOM     17  C   UNL     1      35.284 -19.978 -20.297  0.00  0.00    +0.033 C 
ATOM     18  C   UNL     1      32.743 -19.738 -20.399  0.00  0.00    +0.074 C 
ATOM     19  C   UNL     1      34.097 -19.397 -20.964  0.00  0.00    +0.173 C 
ENDROOT
BRANCH   5  20
ATOM     20  O   UNL     1      32.551 -24.189 -12.893  0.00  0.00    -0.452 OA
BRANCH  20  22
ATOM     21  O   UNL     1      30.682 -25.358 -13.584  0.00  0.00    -0.250 OA
ATOM     22  C   UNL     1      31.211 -24.352 -13.131  0.00  0.00    +0.317 C 
ATOM     23  C   UNL     1      30.466 -23.109 -12.752  0.00  0.00    +0.121 C 
ENDBRANCH  20  22
ENDBRANCH   5  20
TORSDOF 2
ENDMDL
MODEL 4
REMARK VINA RESULT:     -10.2      2.798      4.266
REMARK  Name = 66359
REMARK  2 active torsions:
REMARK  status: ('A' for Active; 'I' for Inactive)
REMARK    1  A    between atoms: C_5  and  O_20
REMARK    2  A    between atoms: O_20  and  C_22
REMARK                            x       y       z     vdW  Elec       q    Type
REMARK                         _______ _______ _______ _____ _____    ______ ____
ROOT
ATOM      1  O   UNL     1      27.522 -21.663 -15.387  0.00  0.00    -0.291 OA
ATOM      2  C   UNL     1      34.992 -22.610 -15.348  0.00  0.00    +0.011 C 
ATOM      3  C   UNL     1      35.628 -23.625 -14.370  0.00  0.00    +0.056 C 
ATOM      4  C   UNL     1      33.694 -23.152 -15.946  0.00  0.00    +0.023 C 
ATOM      5  C   UNL     1      36.863 -22.804 -13.953  0.00  0.00    +0.172 C 
ATOM      6  C   UNL     1      36.153 -22.205 -16.244  0.00  0.00    +0.004 C 
ATOM      7  C   UNL     1      37.354 -22.177 -15.278  0.00  0.00    +0.044 C 
ATOM      8  C   UNL     1      32.689 -23.397 -14.800  0.00  0.00    -0.027 C 
ATOM      9  C   UNL     1      33.135 -22.230 -17.035  0.00  0.00    +0.009 C 
ATOM     10  C   UNL     1      34.611 -23.936 -13.305  0.00  0.00    -0.024 C 
ATOM     11  C   UNL     1      36.049 -24.976 -14.997  0.00  0.00    +0.008 C 
ATOM     12  C   UNL     1      33.286 -23.845 -13.530  0.00  0.00    -0.009 C 
ATOM     13  C   UNL     1      31.359 -23.176 -14.969  0.00  0.00    -0.030 C 
ATOM     14  C   UNL     1      31.749 -22.712 -17.443  0.00  0.00    +0.026 C 
ATOM     15  C   UNL     1      30.822 -22.690 -16.253  0.00  0.00    -0.024 C 
ATOM     16  C   UNL     1      30.294 -23.419 -13.915  0.00  0.00    +0.034 C 
ATOM     17  C   UNL     1      29.577 -22.207 -16.395  0.00  0.00    +0.033 C 
ATOM     18  C   UNL     1      29.256 -22.304 -13.862  0.00  0.00    +0.074 C 
ATOM     19  C   UNL     1      28.676 -22.054 -15.229  0.00  0.00    +0.173 C 
ENDROOT
BRANCH   5  20
ATOM     20  O   UNL     1      37.875 -23.590 -13.353  0.00  0.00    -0.452 OA
BRANCH  20  22
ATOM     21  O   UNL     1      37.433 -23.201 -11.120  0.00  0.00    -0.250 OA
ATOM     22  C   UNL     1      37.657 -23.961 -12.052  0.00  0.00    +0.317 C 
ATOM     23  C   UNL     1      37.731 -25.451 -11.922  0.00  0.00    +0.121 C 
ENDBRANCH  20  22
ENDBRANCH   5  20
TORSDOF 2
ENDMDL
MODEL 5
REMARK VINA RESULT:     -10.1     11.790     16.610
REMARK  Name = 66359
REMARK  2 active torsions:
REMARK  status: ('A' for Active; 'I' for Inactive)
REMARK    1  A    between atoms: C_5  and  O_20
REMARK    2  A    between atoms: O_20  and  C_22
REMARK                            x       y       z     vdW  Elec       q    Type
REMARK                         _______ _______ _______ _____ _____    ______ ____
ROOT
ATOM      1  O   UNL     1      33.750 -14.898 -21.300  0.00  0.00    -0.291 OA
ATOM      2  C   UNL     1      31.889  -7.601 -21.331  0.00  0.00    +0.011 C 
ATOM      3  C   UNL     1      31.515  -6.914 -22.665  0.00  0.00    +0.056 C 
ATOM      4  C   UNL     1      31.305  -9.011 -21.248  0.00  0.00    +0.023 C 
ATOM      5  C   UNL     1      32.234  -5.570 -22.443  0.00  0.00    +0.172 C 
ATOM      6  C   UNL     1      31.544  -6.553 -20.282  0.00  0.00    +0.004 C 
ATOM      7  C   UNL     1      31.929  -5.227 -20.967  0.00  0.00    +0.044 C 
ATOM      8  C   UNL     1      31.898  -9.857 -22.397  0.00  0.00    -0.027 C 
ATOM      9  C   UNL     1      31.530  -9.646 -19.872  0.00  0.00    +0.009 C 
ATOM     10  C   UNL     1      32.010  -7.788 -23.786  0.00  0.00    -0.024 C 
ATOM     11  C   UNL     1      30.000  -6.698 -22.898  0.00  0.00    +0.008 C 
ATOM     12  C   UNL     1      32.155  -9.120 -23.646  0.00  0.00    -0.009 C 
ATOM     13  C   UNL     1      32.180 -11.175 -22.230  0.00  0.00    -0.030 C 
ATOM     14  C   UNL     1      31.114 -11.111 -19.917  0.00  0.00    +0.026 C 
ATOM     15  C   UNL     1      31.937 -11.851 -20.943  0.00  0.00    -0.024 C 
ATOM     16  C   UNL     1      32.732 -12.092 -23.306  0.00  0.00    +0.034 C 
ATOM     17  C   UNL     1      32.436 -13.060 -20.641  0.00  0.00    +0.033 C 
ATOM     18  C   UNL     1      33.824 -13.018 -22.785  0.00  0.00    +0.074 C 
ATOM     19  C   UNL     1      33.348 -13.768 -21.569  0.00  0.00    +0.173 C 
ENDROOT
BRANCH   5  20
ATOM     20  O   UNL     1      31.779  -4.548 -23.310  0.00  0.00    -0.452 OA
BRANCH  20  22
ATOM     21  O   UNL     1      31.953  -4.128 -25.575  0.00  0.00    -0.250 OA
ATOM     22  C   UNL     1      32.451  -4.423 -24.497  0.00  0.00    +0.317 C 
ATOM     23  C   UNL     1      33.910  -4.699 -24.295  0.00  0.00    +0.121 C 
ENDBRANCH  20  22
ENDBRANCH   5  20
TORSDOF 2
ENDMDL
MODEL 6
REMARK VINA RESULT:      -9.6      2.828      4.721
REMARK  Name = 66359
REMARK  2 active torsions:
REMARK  status: ('A' for Active; 'I' for Inactive)
REMARK    1  A    between atoms: C_5  and  O_20
REMARK    2  A    between atoms: O_20  and  C_22
REMARK                            x       y       z     vdW  Elec       q    Type
REMARK                         _______ _______ _______ _____ _____    ______ ____
ROOT
ATOM      1  O   UNL     1      29.562 -22.430 -16.965  0.00  0.00    -0.291 OA
ATOM      2  C   UNL     1      35.683 -24.409 -13.051  0.00  0.00    +0.011 C 
ATOM      3  C   UNL     1      37.065 -23.845 -13.457  0.00  0.00    +0.056 C 
ATOM      4  C   UNL     1      34.593 -23.343 -13.159  0.00  0.00    +0.023 C 
ATOM      5  C   UNL     1      37.904 -25.121 -13.253  0.00  0.00    +0.172 C 
ATOM      6  C   UNL     1      35.959 -25.108 -11.727  0.00  0.00    +0.004 C 
ATOM      7  C   UNL     1      37.362 -25.713 -11.932  0.00  0.00    +0.044 C 
ATOM      8  C   UNL     1      34.501 -22.882 -14.630  0.00  0.00    -0.027 C 
ATOM      9  C   UNL     1      33.251 -23.837 -12.610  0.00  0.00    +0.009 C 
ATOM     10  C   UNL     1      36.947 -23.310 -14.858  0.00  0.00    -0.024 C 
ATOM     11  C   UNL     1      37.594 -22.689 -12.575  0.00  0.00    +0.008 C 
ATOM     12  C   UNL     1      35.781 -22.861 -15.359  0.00  0.00    -0.009 C 
ATOM     13  C   UNL     1      33.309 -22.557 -15.194  0.00  0.00    -0.030 C 
ATOM     14  C   UNL     1      32.167 -22.815 -12.932  0.00  0.00    +0.026 C 
ATOM     15  C   UNL     1      32.053 -22.635 -14.426  0.00  0.00    -0.024 C 
ATOM     16  C   UNL     1      33.123 -22.063 -16.618  0.00  0.00    +0.034 C 
ATOM     17  C   UNL     1      30.838 -22.585 -14.994  0.00  0.00    +0.033 C 
ATOM     18  C   UNL     1      31.920 -22.696 -17.306  0.00  0.00    +0.074 C 
ATOM     19  C   UNL     1      30.681 -22.531 -16.466  0.00  0.00    +0.173 C 
ENDROOT
BRANCH   5  20
ATOM     20  O   UNL     1      39.293 -24.862 -13.165  0.00  0.00    -0.452 OA
BRANCH  20  22
ATOM     21  O   UNL     1      40.918 -26.456 -13.555  0.00  0.00    -0.250 OA
ATOM     22  C   UNL     1      40.101 -25.638 -13.954  0.00  0.00    +0.317 C 
ATOM     23  C   UNL     1      39.842 -25.346 -15.401  0.00  0.00    +0.121 C 
ENDBRANCH  20  22
ENDBRANCH   5  20
TORSDOF 2
ENDMDL
MODEL 7
REMARK VINA RESULT:      -9.2      2.457      3.456
REMARK  Name = 66359
REMARK  2 active torsions:
REMARK  status: ('A' for Active; 'I' for Inactive)
REMARK    1  A    between atoms: C_5  and  O_20
REMARK    2  A    between atoms: O_20  and  C_22
REMARK                            x       y       z     vdW  Elec       q    Type
REMARK                         _______ _______ _______ _____ _____    ______ ____
ROOT
ATOM      1  O   UNL     1      35.710 -17.356 -22.172  0.00  0.00    -0.291 OA
ATOM      2  C   UNL     1      34.058 -22.054 -16.524  0.00  0.00    +0.011 C 
ATOM      3  C   UNL     1      32.708 -22.811 -16.529  0.00  0.00    +0.056 C 
ATOM      4  C   UNL     1      34.667 -21.993 -17.924  0.00  0.00    +0.023 C 
ATOM      5  C   UNL     1      32.370 -22.691 -15.031  0.00  0.00    +0.172 C 
ATOM      6  C   UNL     1      34.819 -22.694 -15.371  0.00  0.00    +0.004 C 
ATOM      7  C   UNL     1      33.719 -22.961 -14.325  0.00  0.00    +0.044 C 
ATOM      8  C   UNL     1      33.698 -21.223 -18.849  0.00  0.00    -0.027 C 
ATOM      9  C   UNL     1      36.075 -21.389 -17.912  0.00  0.00    +0.009 C 
ATOM     10  C   UNL     1      31.797 -22.114 -17.503  0.00  0.00    -0.024 C 
ATOM     11  C   UNL     1      32.782 -24.294 -16.963  0.00  0.00    +0.008 C 
ATOM     12  C   UNL     1      32.268 -21.419 -18.556  0.00  0.00    -0.009 C 
ATOM     13  C   UNL     1      34.160 -20.407 -19.831  0.00  0.00    -0.030 C 
ATOM     14  C   UNL     1      36.542 -21.166 -19.345  0.00  0.00    +0.026 C 
ATOM     15  C   UNL     1      35.605 -20.218 -20.052  0.00  0.00    -0.024 C 
ATOM     16  C   UNL     1      33.288 -19.637 -20.807  0.00  0.00    +0.034 C 
ATOM     17  C   UNL     1      36.111 -19.237 -20.817  0.00  0.00    +0.033 C 
ATOM     18  C   UNL     1      33.780 -18.214 -21.038  0.00  0.00    +0.074 C 
ATOM     19  C   UNL     1      35.234 -18.213 -21.430  0.00  0.00    +0.173 C 
ENDROOT
BRANCH   5  20
ATOM     20  O   UNL     1      31.380 -23.612 -14.612  0.00  0.00    -0.452 OA
BRANCH  20  22
ATOM     21  O   UNL     1      30.422 -23.256 -12.540  0.00  0.00    -0.250 OA
ATOM     22  C   UNL     1      30.428 -23.124 -13.756  0.00  0.00    +0.317 C 
ATOM     23  C   UNL     1      29.373 -22.389 -14.526  0.00  0.00    +0.121 C 
ENDBRANCH  20  22
ENDBRANCH   5  20
TORSDOF 2
ENDMDL
MODEL 8
REMARK VINA RESULT:      -9.0      3.297      4.999
REMARK  Name = 66359
REMARK  2 active torsions:
REMARK  status: ('A' for Active; 'I' for Inactive)
REMARK    1  A    between atoms: C_5  and  O_20
REMARK    2  A    between atoms: O_20  and  C_22
REMARK                            x       y       z     vdW  Elec       q    Type
REMARK                         _______ _______ _______ _____ _____    ______ ____
ROOT
ATOM      1  O   UNL     1      27.102 -22.820 -15.848  0.00  0.00    -0.291 OA
ATOM      2  C   UNL     1      34.204 -24.000 -13.641  0.00  0.00    +0.011 C 
ATOM      3  C   UNL     1      35.372 -23.531 -14.541  0.00  0.00    +0.056 C 
ATOM      4  C   UNL     1      33.072 -22.974 -13.619  0.00  0.00    +0.023 C 
ATOM      5  C   UNL     1      36.305 -24.743 -14.359  0.00  0.00    +0.172 C 
ATOM      6  C   UNL     1      34.896 -24.424 -12.354  0.00  0.00    +0.004 C 
ATOM      7  C   UNL     1      36.209 -25.061 -12.850  0.00  0.00    +0.044 C 
ATOM      8  C   UNL     1      32.526 -22.813 -15.055  0.00  0.00    -0.027 C 
ATOM      9  C   UNL     1      31.980 -23.346 -12.611  0.00  0.00    +0.009 C 
ATOM     10  C   UNL     1      34.818 -23.282 -15.918  0.00  0.00    -0.024 C 
ATOM     11  C   UNL     1      36.069 -22.224 -14.093  0.00  0.00    +0.008 C 
ATOM     12  C   UNL     1      33.532 -22.939 -16.123  0.00  0.00    -0.009 C 
ATOM     13  C   UNL     1      31.204 -22.603 -15.287  0.00  0.00    -0.030 C 
ATOM     14  C   UNL     1      30.793 -22.406 -12.781  0.00  0.00    +0.026 C 
ATOM     15  C   UNL     1      30.236 -22.524 -14.179  0.00  0.00    -0.024 C 
ATOM     16  C   UNL     1      30.581 -22.400 -16.657  0.00  0.00    +0.034 C 
ATOM     17  C   UNL     1      28.906 -22.586 -14.356  0.00  0.00    +0.033 C 
ATOM     18  C   UNL     1      29.267 -23.154 -16.821  0.00  0.00    +0.074 C 
ATOM     19  C   UNL     1      28.322 -22.823 -15.696  0.00  0.00    +0.173 C 
ENDROOT
BRANCH   5  20
ATOM     20  O   UNL     1      37.642 -24.474 -14.742  0.00  0.00    -0.452 OA
BRANCH  20  22
ATOM     21  O   UNL     1      38.373 -26.654 -14.520  0.00  0.00    -0.250 OA
ATOM     22  C   UNL     1      38.559 -25.447 -14.445  0.00  0.00    +0.317 C 
ATOM     23  C   UNL     1      39.849 -24.823 -14.007  0.00  0.00    +0.121 C 
ENDBRANCH  20  22
ENDBRANCH   5  20
TORSDOF 2
ENDMDL
MODEL 9
REMARK VINA RESULT:      -8.9      1.685      3.007
REMARK  Name = 66359
REMARK  2 active torsions:
REMARK  status: ('A' for Active; 'I' for Inactive)
REMARK    1  A    between atoms: C_5  and  O_20
REMARK    2  A    between atoms: O_20  and  C_22
REMARK                            x       y       z     vdW  Elec       q    Type
REMARK                         _______ _______ _______ _____ _____    ______ ____
ROOT
ATOM      1  O   UNL     1      33.943 -19.420 -22.722  0.00  0.00    -0.291 OA
ATOM      2  C   UNL     1      34.866 -23.340 -16.359  0.00  0.00    +0.011 C 
ATOM      3  C   UNL     1      36.004 -22.957 -15.384  0.00  0.00    +0.056 C 
ATOM      4  C   UNL     1      34.192 -22.100 -16.943  0.00  0.00    +0.023 C 
ATOM      5  C   UNL     1      36.463 -24.375 -14.994  0.00  0.00    +0.172 C 
ATOM      6  C   UNL     1      34.061 -24.370 -15.579  0.00  0.00    +0.004 C 
ATOM      7  C   UNL     1      35.141 -25.153 -14.807  0.00  0.00    +0.044 C 
ATOM      8  C   UNL     1      35.245 -21.296 -17.738  0.00  0.00    -0.027 C 
ATOM      9  C   UNL     1      32.963 -22.457 -17.786  0.00  0.00    +0.009 C 
ATOM     10  C   UNL     1      36.981 -22.094 -16.136  0.00  0.00    -0.024 C 
ATOM     11  C   UNL     1      35.564 -22.156 -14.135  0.00  0.00    +0.008 C 
ATOM     12  C   UNL     1      36.609 -21.336 -17.185  0.00  0.00    -0.009 C 
ATOM     13  C   UNL     1      34.914 -20.637 -18.879  0.00  0.00    -0.030 C 
ATOM     14  C   UNL     1      32.462 -21.210 -18.502  0.00  0.00    +0.026 C 
ATOM     15  C   UNL     1      33.539 -20.665 -19.408  0.00  0.00    -0.024 C 
ATOM     16  C   UNL     1      35.869 -19.797 -19.708  0.00  0.00    +0.034 C 
ATOM     17  C   UNL     1      33.218 -20.263 -20.648  0.00  0.00    +0.033 C 
ATOM     18  C   UNL     1      35.700 -20.021 -21.205  0.00  0.00    +0.074 C 
ATOM     19  C   UNL     1      34.261 -19.836 -21.610  0.00  0.00    +0.173 C 
ENDROOT
BRANCH   5  20
ATOM     20  O   UNL     1      37.243 -24.399 -13.813  0.00  0.00    -0.452 OA
BRANCH  20  22
ATOM     21  O   UNL     1      38.110 -26.522 -14.096  0.00  0.00    -0.250 OA
ATOM     22  C   UNL     1      37.651 -25.636 -13.388  0.00  0.00    +0.317 C 
ATOM     23  C   UNL     1      37.456 -25.762 -11.907  0.00  0.00    +0.121 C 
ENDBRANCH  20  22
ENDBRANCH   5  20
TORSDOF 2
ENDMDL
