MODEL 1
REMARK VINA RESULT:     -12.4      0.000      0.000
REMARK  Name = 16040323
REMARK  5 active torsions:
REMARK  status: ('A' for Active; 'I' for Inactive)
REMARK    1  A    between atoms: C_1  and  C_2
REMARK    2  A    between atoms: C_1  and  C_16
REMARK    3  A    between atoms: C_5  and  C_8
REMARK    4  A    between atoms: C_11  and  O_14
REMARK    5  A    between atoms: C_16  and  C_21
REMARK                            x       y       z     vdW  Elec       q    Type
REMARK                         _______ _______ _______ _____ _____    ______ ____
ROOT
ATOM      1  C   UNL     1      35.728 -22.481 -16.500  0.00  0.00    +0.028 C 
ENDROOT
BRANCH   1   2
ATOM      2  C   UNL     1      34.770 -21.965 -17.542  0.00  0.00    -0.022 C 
ATOM      3  C   UNL     1      35.231 -21.103 -18.526  0.00  0.00    -0.004 C 
ATOM      4  C   UNL     1      33.440 -22.361 -17.501  0.00  0.00    -0.004 C 
ATOM      5  C   UNL     1      34.343 -20.626 -19.491  0.00  0.00    -0.000 C 
ATOM      6  C   UNL     1      32.553 -21.883 -18.465  0.00  0.00    -0.000 C 
ATOM      7  C   UNL     1      33.004 -21.016 -19.461  0.00  0.00    -0.000 C 
BRANCH   5   8
ATOM      8  C   UNL     1      34.811 -19.726 -20.523  0.00  0.00    +0.003 C 
ATOM      9  C   UNL     1      33.979 -19.401 -21.594  0.00  0.00    +0.037 C 
ATOM     10  C   UNL     1      36.093 -19.184 -20.446  0.00  0.00    +0.000 C 
ATOM     11  C   UNL     1      34.429 -18.533 -22.588  0.00  0.00    +0.139 C 
ATOM     12  C   UNL     1      36.544 -18.317 -21.442  0.00  0.00    +0.003 C 
ATOM     13  C   UNL     1      35.712 -17.991 -22.512  0.00  0.00    +0.037 C 
BRANCH  11  14
ATOM     14  O   UNL     1      33.618 -18.214 -23.634  0.00  0.00    -0.471 OA
ATOM     15  C   UNL     1      33.838 -16.955 -24.267  0.00  0.00    +0.252 C 
ENDBRANCH  11  14
ENDBRANCH   5   8
ENDBRANCH   1   2
BRANCH   1  16
ATOM     16  C   UNL     1      35.330 -22.013 -15.106  0.00  0.00    +0.028 C 
BRANCH  16  21
ATOM     17  O   UNL     1      37.617 -22.606 -11.973  0.00  0.00    -0.274 OA
ATOM     18  N   UNL     1      35.375 -24.439 -14.855  0.00  0.00    -0.247 NA
ATOM     19  N   UNL     1      37.404 -24.240 -13.641  0.00  0.00    -0.231 N 
ATOM     20  N   UNL     1      37.032 -25.994 -15.236  0.00  0.00    -0.331 N 
ATOM     21  C   UNL     1      34.904 -23.201 -14.230  0.00  0.00    +0.096 C 
ATOM     22  C   UNL     1      35.436 -23.083 -12.807  0.00  0.00    +0.108 C 
ATOM     23  C   UNL     1      33.371 -23.271 -14.196  0.00  0.00    +0.025 C 
ATOM     24  C   UNL     1      36.933 -23.250 -12.767  0.00  0.00    +0.233 C 
ATOM     25  C   UNL     1      36.568 -24.875 -14.584  0.00  0.00    +0.183 C 
ATOM     26  C   UNL     1      38.816 -24.609 -13.553  0.00  0.00    +0.123 C 
ATOM     27  H   UNL     1      36.462 -26.450 -15.898  0.00  0.00    +0.145 HD
ATOM     28  H   UNL     1      37.933 -26.338 -15.043  0.00  0.00    +0.145 HD
ENDBRANCH  16  21
ENDBRANCH   1  16
TORSDOF 5
ENDMDL
MODEL 2
REMARK VINA RESULT:     -12.3      1.586      2.481
REMARK  Name = 16040323
REMARK  5 active torsions:
REMARK  status: ('A' for Active; 'I' for Inactive)
REMARK    1  A    between atoms: C_1  and  C_2
REMARK    2  A    between atoms: C_1  and  C_16
REMARK    3  A    between atoms: C_5  and  C_8
REMARK    4  A    between atoms: C_11  and  O_14
REMARK    5  A    between atoms: C_16  and  C_21
REMARK                            x       y       z     vdW  Elec       q    Type
REMARK                         _______ _______ _______ _____ _____    ______ ____
ROOT
ATOM      1  C   UNL     1      37.110 -21.745 -16.590  0.00  0.00    +0.028 C 
ENDROOT
BRANCH   1   2
ATOM      2  C   UNL     1      35.938 -21.558 -17.519  0.00  0.00    -0.022 C 
ATOM      3  C   UNL     1      36.057 -20.700 -18.602  0.00  0.00    -0.004 C 
ATOM      4  C   UNL     1      34.759 -22.248 -17.276  0.00  0.00    -0.004 C 
ATOM      5  C   UNL     1      34.972 -20.527 -19.462  0.00  0.00    -0.000 C 
ATOM      6  C   UNL     1      33.674 -22.075 -18.136  0.00  0.00    -0.000 C 
ATOM      7  C   UNL     1      33.781 -21.214 -19.229  0.00  0.00    -0.000 C 
BRANCH   5   8
ATOM      8  C   UNL     1      35.082 -19.635 -20.596  0.00  0.00    +0.003 C 
ATOM      9  C   UNL     1      34.021 -19.514 -21.493  0.00  0.00    +0.037 C 
ATOM     10  C   UNL     1      36.248 -18.896 -20.791  0.00  0.00    +0.000 C 
ATOM     11  C   UNL     1      34.127 -18.653 -22.586  0.00  0.00    +0.139 C 
ATOM     12  C   UNL     1      36.354 -18.036 -21.884  0.00  0.00    +0.003 C 
ATOM     13  C   UNL     1      35.294 -17.914 -22.781  0.00  0.00    +0.037 C 
BRANCH  11  14
ATOM     14  O   UNL     1      33.092 -18.534 -23.463  0.00  0.00    -0.471 OA
ATOM     15  C   UNL     1      33.329 -17.777 -24.648  0.00  0.00    +0.252 C 
ENDBRANCH  11  14
ENDBRANCH   5   8
ENDBRANCH   1   2
BRANCH   1  16
ATOM     16  C   UNL     1      36.648 -21.894 -15.145  0.00  0.00    +0.028 C 
BRANCH  16  21
ATOM     17  O   UNL     1      33.885 -24.513 -14.197  0.00  0.00    -0.274 OA
ATOM     18  N   UNL     1      37.499 -22.947 -13.115  0.00  0.00    -0.247 NA
ATOM     19  N   UNL     1      35.283 -23.585 -12.560  0.00  0.00    -0.231 N 
ATOM     20  N   UNL     1      36.841 -22.798 -10.913  0.00  0.00    -0.331 N 
ATOM     21  C   UNL     1      37.193 -23.190 -14.527  0.00  0.00    +0.096 C 
ATOM     22  C   UNL     1      36.214 -24.349 -14.670  0.00  0.00    +0.108 C 
ATOM     23  C   UNL     1      38.516 -23.554 -15.216  0.00  0.00    +0.025 C 
ATOM     24  C   UNL     1      34.992 -24.143 -13.813  0.00  0.00    +0.233 C 
ATOM     25  C   UNL     1      36.567 -23.106 -12.225  0.00  0.00    +0.183 C 
ATOM     26  C   UNL     1      34.198 -23.510 -11.583  0.00  0.00    +0.123 C 
ATOM     27  H   UNL     1      37.732 -22.461 -10.661  0.00  0.00    +0.145 HD
ATOM     28  H   UNL     1      36.146 -22.912 -10.225  0.00  0.00    +0.145 HD
ENDBRANCH  16  21
ENDBRANCH   1  16
TORSDOF 5
ENDMDL
MODEL 3
REMARK VINA RESULT:     -12.0     10.136     14.601
REMARK  Name = 16040323
REMARK  5 active torsions:
REMARK  status: ('A' for Active; 'I' for Inactive)
REMARK    1  A    between atoms: C_1  and  C_2
REMARK    2  A    between atoms: C_1  and  C_16
REMARK    3  A    between atoms: C_5  and  C_8
REMARK    4  A    between atoms: C_11  and  O_14
REMARK    5  A    between atoms: C_16  and  C_21
REMARK                            x       y       z     vdW  Elec       q    Type
REMARK                         _______ _______ _______ _____ _____    ______ ____
ROOT
ATOM      1  C   UNL     1      32.366  -9.760 -23.460  0.00  0.00    +0.028 C 
ENDROOT
BRANCH   1   2
ATOM      2  C   UNL     1      32.298 -10.935 -22.519  0.00  0.00    -0.022 C 
ATOM      3  C   UNL     1      32.940 -12.117 -22.856  0.00  0.00    -0.004 C 
ATOM      4  C   UNL     1      31.593 -10.816 -21.329  0.00  0.00    -0.004 C 
ATOM      5  C   UNL     1      32.877 -13.205 -21.984  0.00  0.00    -0.000 C 
ATOM      6  C   UNL     1      31.530 -11.903 -20.458  0.00  0.00    -0.000 C 
ATOM      7  C   UNL     1      32.172 -13.098 -20.785  0.00  0.00    -0.000 C 
BRANCH   5   8
ATOM      8  C   UNL     1      33.542 -14.444 -22.323  0.00  0.00    +0.003 C 
ATOM      9  C   UNL     1      34.114 -15.226 -21.320  0.00  0.00    +0.037 C 
ATOM     10  C   UNL     1      33.611 -14.857 -23.653  0.00  0.00    +0.000 C 
ATOM     11  C   UNL     1      34.755 -16.421 -21.646  0.00  0.00    +0.139 C 
ATOM     12  C   UNL     1      34.252 -16.052 -23.980  0.00  0.00    +0.003 C 
ATOM     13  C   UNL     1      34.823 -16.834 -22.977  0.00  0.00    +0.037 C 
BRANCH  11  14
ATOM     14  O   UNL     1      35.314 -17.184 -20.667  0.00  0.00    -0.471 OA
ATOM     15  C   UNL     1      36.101 -18.298 -21.083  0.00  0.00    +0.252 C 
ENDBRANCH  11  14
ENDBRANCH   5   8
ENDBRANCH   1   2
BRANCH   1  16
ATOM     16  C   UNL     1      31.787  -8.505 -22.817  0.00  0.00    +0.028 C 
BRANCH  16  21
ATOM     17  O   UNL     1      31.585  -5.930 -19.863  0.00  0.00    -0.274 OA
ATOM     18  N   UNL     1      32.207  -6.350 -23.879  0.00  0.00    -0.247 NA
ATOM     19  N   UNL     1      31.110  -5.283 -22.066  0.00  0.00    -0.231 N 
ATOM     20  N   UNL     1      30.824  -4.566 -24.339  0.00  0.00    -0.331 N 
ATOM     21  C   UNL     1      32.764  -7.326 -22.940  0.00  0.00    +0.096 C 
ATOM     22  C   UNL     1      33.046  -6.673 -21.593  0.00  0.00    +0.108 C 
ATOM     23  C   UNL     1      34.080  -7.831 -23.547  0.00  0.00    +0.025 C 
ATOM     24  C   UNL     1      31.831  -5.953 -21.068  0.00  0.00    +0.233 C 
ATOM     25  C   UNL     1      31.405  -5.428 -23.438  0.00  0.00    +0.183 C 
ATOM     26  C   UNL     1      30.019  -4.406 -21.643  0.00  0.00    +0.123 C 
ATOM     27  H   UNL     1      31.018  -4.653 -25.301  0.00  0.00    +0.145 HD
ATOM     28  H   UNL     1      30.213  -3.861 -24.022  0.00  0.00    +0.145 HD
ENDBRANCH  16  21
ENDBRANCH   1  16
TORSDOF 5
ENDMDL
MODEL 4
REMARK VINA RESULT:     -11.5      1.716      2.920
REMARK  Name = 16040323
REMARK  5 active torsions:
REMARK  status: ('A' for Active; 'I' for Inactive)
REMARK    1  A    between atoms: C_1  and  C_2
REMARK    2  A    between atoms: C_1  and  C_16
REMARK    3  A    between atoms: C_5  and  C_8
REMARK    4  A    between atoms: C_11  and  O_14
REMARK    5  A    between atoms: C_16  and  C_21
REMARK                            x       y       z     vdW  Elec       q    Type
REMARK                         _______ _______ _______ _____ _____    ______ ____
ROOT
ATOM      1  C   UNL     1      33.139 -21.827 -18.522  0.00  0.00    +0.028 C 
ENDROOT
BRANCH   1   2
ATOM      2  C   UNL     1      34.197 -20.994 -19.200  0.00  0.00    -0.022 C 
ATOM      3  C   UNL     1      33.839 -20.157 -20.247  0.00  0.00    -0.004 C 
ATOM      4  C   UNL     1      35.512 -21.078 -18.768  0.00  0.00    -0.004 C 
ATOM      5  C   UNL     1      34.818 -19.385 -20.874  0.00  0.00    -0.000 C 
ATOM      6  C   UNL     1      36.491 -20.308 -19.395  0.00  0.00    -0.000 C 
ATOM      7  C   UNL     1      36.144 -19.461 -20.449  0.00  0.00    -0.000 C 
BRANCH   5   8
ATOM      8  C   UNL     1      34.458 -18.507 -21.966  0.00  0.00    +0.003 C 
ATOM      9  C   UNL     1      34.730 -17.142 -21.882  0.00  0.00    +0.037 C 
ATOM     10  C   UNL     1      33.840 -19.027 -23.103  0.00  0.00    +0.000 C 
ATOM     11  C   UNL     1      34.384 -16.296 -22.936  0.00  0.00    +0.139 C 
ATOM     12  C   UNL     1      33.493 -18.180 -24.156  0.00  0.00    +0.003 C 
ATOM     13  C   UNL     1      33.766 -16.815 -24.073  0.00  0.00    +0.037 C 
BRANCH  11  14
ATOM     14  O   UNL     1      34.649 -14.963 -22.854  0.00  0.00    -0.471 OA
ATOM     15  C   UNL     1      33.893 -14.207 -21.910  0.00  0.00    +0.252 C 
ENDBRANCH  11  14
ENDBRANCH   5   8
ENDBRANCH   1   2
BRANCH   1  16
ATOM     16  C   UNL     1      33.761 -22.992 -17.762  0.00  0.00    +0.028 C 
BRANCH  16  21
ATOM     17  O   UNL     1      36.414 -21.250 -15.454  0.00  0.00    -0.274 OA
ATOM     18  N   UNL     1      33.652 -24.253 -15.677  0.00  0.00    -0.247 NA
ATOM     19  N   UNL     1      35.841 -23.504 -15.151  0.00  0.00    -0.231 N 
ATOM     20  N   UNL     1      35.112 -25.746 -14.704  0.00  0.00    -0.331 N 
ATOM     21  C   UNL     1      33.372 -22.947 -16.277  0.00  0.00    +0.096 C 
ATOM     22  C   UNL     1      34.106 -21.843 -15.526  0.00  0.00    +0.108 C 
ATOM     23  C   UNL     1      31.858 -22.718 -16.165  0.00  0.00    +0.025 C 
ATOM     24  C   UNL     1      35.577 -22.150 -15.403  0.00  0.00    +0.233 C 
ATOM     25  C   UNL     1      34.834 -24.491 -15.193  0.00  0.00    +0.183 C 
ATOM     26  C   UNL     1      37.218 -23.879 -14.836  0.00  0.00    +0.123 C 
ATOM     27  H   UNL     1      34.421 -26.448 -14.725  0.00  0.00    +0.145 HD
ATOM     28  H   UNL     1      36.003 -25.944 -14.333  0.00  0.00    +0.145 HD
ENDBRANCH  16  21
ENDBRANCH   1  16
TORSDOF 5
ENDMDL
MODEL 5
REMARK VINA RESULT:     -11.4      8.628     13.555
REMARK  Name = 16040323
REMARK  5 active torsions:
REMARK  status: ('A' for Active; 'I' for Inactive)
REMARK    1  A    between atoms: C_1  and  C_2
REMARK    2  A    between atoms: C_1  and  C_16
REMARK    3  A    between atoms: C_5  and  C_8
REMARK    4  A    between atoms: C_11  and  O_14
REMARK    5  A    between atoms: C_16  and  C_21
REMARK                            x       y       z     vdW  Elec       q    Type
REMARK                         _______ _______ _______ _____ _____    ______ ____
ROOT
ATOM      1  C   UNL     1      33.022 -11.167 -22.315  0.00  0.00    +0.028 C 
ENDROOT
BRANCH   1   2
ATOM      2  C   UNL     1      33.074 -12.288 -23.321  0.00  0.00    -0.022 C 
ATOM      3  C   UNL     1      33.457 -13.556 -22.909  0.00  0.00    -0.004 C 
ATOM      4  C   UNL     1      32.738 -12.035 -24.643  0.00  0.00    -0.004 C 
ATOM      5  C   UNL     1      33.505 -14.595 -23.840  0.00  0.00    -0.000 C 
ATOM      6  C   UNL     1      32.787 -13.072 -25.574  0.00  0.00    -0.000 C 
ATOM      7  C   UNL     1      33.170 -14.353 -25.172  0.00  0.00    -0.000 C 
BRANCH   5   8
ATOM      8  C   UNL     1      33.902 -15.922 -23.425  0.00  0.00    +0.003 C 
ATOM      9  C   UNL     1      34.605 -16.099 -22.233  0.00  0.00    +0.037 C 
ATOM     10  C   UNL     1      33.582 -17.025 -24.216  0.00  0.00    +0.000 C 
ATOM     11  C   UNL     1      34.987 -17.379 -21.831  0.00  0.00    +0.139 C 
ATOM     12  C   UNL     1      33.965 -18.305 -23.815  0.00  0.00    +0.003 C 
ATOM     13  C   UNL     1      34.666 -18.482 -22.623  0.00  0.00    +0.037 C 
BRANCH  11  14
ATOM     14  O   UNL     1      35.672 -17.552 -20.668  0.00  0.00    -0.471 OA
ATOM     15  C   UNL     1      36.446 -18.744 -20.542  0.00  0.00    +0.252 C 
ENDBRANCH  11  14
ENDBRANCH   5   8
ENDBRANCH   1   2
BRANCH   1  16
ATOM     16  C   UNL     1      32.435  -9.903 -22.931  0.00  0.00    +0.028 C 
BRANCH  16  21
ATOM     17  O   UNL     1      30.919  -6.518 -24.214  0.00  0.00    -0.274 OA
ATOM     18  N   UNL     1      31.799  -8.725 -20.891  0.00  0.00    -0.247 NA
ATOM     19  N   UNL     1      31.890  -6.678 -22.086  0.00  0.00    -0.231 N 
ATOM     20  N   UNL     1      32.694  -6.885 -19.834  0.00  0.00    -0.331 N 
ATOM     21  C   UNL     1      31.263  -9.377 -22.089  0.00  0.00    +0.096 C 
ATOM     22  C   UNL     1      30.381  -8.413 -22.873  0.00  0.00    +0.108 C 
ATOM     23  C   UNL     1      30.418 -10.566 -21.612  0.00  0.00    +0.025 C 
ATOM     24  C   UNL     1      31.101  -7.120 -23.158  0.00  0.00    +0.233 C 
ATOM     25  C   UNL     1      32.118  -7.467 -20.939  0.00  0.00    +0.183 C 
ATOM     26  C   UNL     1      32.487  -5.348 -22.186  0.00  0.00    +0.123 C 
ATOM     27  H   UNL     1      32.861  -7.421 -19.025  0.00  0.00    +0.145 HD
ATOM     28  H   UNL     1      32.942  -5.932 -19.853  0.00  0.00    +0.145 HD
ENDBRANCH  16  21
ENDBRANCH   1  16
TORSDOF 5
ENDMDL
MODEL 6
REMARK VINA RESULT:     -11.2     10.303     15.062
REMARK  Name = 16040323
REMARK  5 active torsions:
REMARK  status: ('A' for Active; 'I' for Inactive)
REMARK    1  A    between atoms: C_1  and  C_2
REMARK    2  A    between atoms: C_1  and  C_16
REMARK    3  A    between atoms: C_5  and  C_8
REMARK    4  A    between atoms: C_11  and  O_14
REMARK    5  A    between atoms: C_16  and  C_21
REMARK                            x       y       z     vdW  Elec       q    Type
REMARK                         _______ _______ _______ _____ _____    ______ ____
ROOT
ATOM      1  C   UNL     1      31.981  -9.111 -23.216  0.00  0.00    +0.028 C 
ENDROOT
BRANCH   1   2
ATOM      2  C   UNL     1      31.944 -10.318 -22.314  0.00  0.00    -0.022 C 
ATOM      3  C   UNL     1      32.607 -11.475 -22.695  0.00  0.00    -0.004 C 
ATOM      4  C   UNL     1      31.247 -10.253 -21.116  0.00  0.00    -0.004 C 
ATOM      5  C   UNL     1      32.573 -12.592 -21.859  0.00  0.00    -0.000 C 
ATOM      6  C   UNL     1      31.212 -11.369 -20.281  0.00  0.00    -0.000 C 
ATOM      7  C   UNL     1      31.876 -12.539 -20.653  0.00  0.00    -0.000 C 
BRANCH   5   8
ATOM      8  C   UNL     1      33.261 -13.805 -22.244  0.00  0.00    +0.003 C 
ATOM      9  C   UNL     1      33.783 -14.651 -21.266  0.00  0.00    +0.037 C 
ATOM     10  C   UNL     1      33.399 -14.129 -23.594  0.00  0.00    +0.000 C 
ATOM     11  C   UNL     1      34.446 -15.821 -21.638  0.00  0.00    +0.139 C 
ATOM     12  C   UNL     1      34.062 -15.299 -23.965  0.00  0.00    +0.003 C 
ATOM     13  C   UNL     1      34.585 -16.145 -22.987  0.00  0.00    +0.037 C 
BRANCH  11  14
ATOM     14  O   UNL     1      34.956 -16.647 -20.683  0.00  0.00    -0.471 OA
ATOM     15  C   UNL     1      35.605 -17.835 -21.133  0.00  0.00    +0.252 C 
ENDBRANCH  11  14
ENDBRANCH   5   8
ENDBRANCH   1   2
BRANCH   1  16
ATOM     16  C   UNL     1      31.203  -7.948 -22.612  0.00  0.00    +0.028 C 
BRANCH  16  21
ATOM     17  O   UNL     1      30.060  -4.448 -23.967  0.00  0.00    -0.274 OA
ATOM     18  N   UNL     1      33.292  -6.812 -23.156  0.00  0.00    -0.247 NA
ATOM     19  N   UNL     1      32.095  -5.398 -24.639  0.00  0.00    -0.231 N 
ATOM     20  N   UNL     1      34.268  -6.268 -25.170  0.00  0.00    -0.331 N 
ATOM     21  C   UNL     1      32.145  -6.792 -22.245  0.00  0.00    +0.096 C 
ATOM     22  C   UNL     1      31.442  -5.441 -22.298  0.00  0.00    +0.108 C 
ATOM     23  C   UNL     1      32.692  -7.024 -20.830  0.00  0.00    +0.025 C 
ATOM     24  C   UNL     1      31.096  -5.059 -23.715  0.00  0.00    +0.233 C 
ATOM     25  C   UNL     1      33.218  -6.177 -24.287  0.00  0.00    +0.183 C 
ATOM     26  C   UNL     1      31.945  -4.914 -26.009  0.00  0.00    +0.123 C 
ATOM     27  H   UNL     1      35.060  -6.808 -24.941  0.00  0.00    +0.145 HD
ATOM     28  H   UNL     1      34.229  -5.794 -26.032  0.00  0.00    +0.145 HD
ENDBRANCH  16  21
ENDBRANCH   1  16
TORSDOF 5
ENDMDL
MODEL 7
REMARK VINA RESULT:     -10.9      2.015      3.384
REMARK  Name = 16040323
REMARK  5 active torsions:
REMARK  status: ('A' for Active; 'I' for Inactive)
REMARK    1  A    between atoms: C_1  and  C_2
REMARK    2  A    between atoms: C_1  and  C_16
REMARK    3  A    between atoms: C_5  and  C_8
REMARK    4  A    between atoms: C_11  and  O_14
REMARK    5  A    between atoms: C_16  and  C_21
REMARK                            x       y       z     vdW  Elec       q    Type
REMARK                         _______ _______ _______ _____ _____    ______ ____
ROOT
ATOM      1  C   UNL     1      34.678 -23.689 -14.463  0.00  0.00    +0.028 C 
ENDROOT
BRANCH   1   2
ATOM      2  C   UNL     1      33.565 -23.229 -15.368  0.00  0.00    -0.022 C 
ATOM      3  C   UNL     1      33.869 -22.497 -16.507  0.00  0.00    -0.004 C 
ATOM      4  C   UNL     1      32.252 -23.545 -15.049  0.00  0.00    -0.004 C 
ATOM      5  C   UNL     1      32.838 -22.072 -17.345  0.00  0.00    -0.000 C 
ATOM      6  C   UNL     1      31.221 -23.120 -15.887  0.00  0.00    -0.000 C 
ATOM      7  C   UNL     1      31.514 -22.383 -17.035  0.00  0.00    -0.000 C 
BRANCH   5   8
ATOM      8  C   UNL     1      33.141 -21.309 -18.536  0.00  0.00    +0.003 C 
ATOM      9  C   UNL     1      34.467 -21.037 -18.871  0.00  0.00    +0.037 C 
ATOM     10  C   UNL     1      32.107 -20.845 -19.349  0.00  0.00    +0.000 C 
ATOM     11  C   UNL     1      34.760 -20.302 -20.020  0.00  0.00    +0.139 C 
ATOM     12  C   UNL     1      32.400 -20.109 -20.497  0.00  0.00    +0.003 C 
ATOM     13  C   UNL     1      33.726 -19.838 -20.833  0.00  0.00    +0.037 C 
BRANCH  11  14
ATOM     14  O   UNL     1      36.055 -20.036 -20.348  0.00  0.00    -0.471 OA
ATOM     15  C   UNL     1      36.328 -18.764 -20.932  0.00  0.00    +0.252 C 
ENDBRANCH  11  14
ENDBRANCH   5   8
ENDBRANCH   1   2
BRANCH   1  16
ATOM     16  C   UNL     1      35.924 -24.051 -15.263  0.00  0.00    +0.028 C 
BRANCH  16  21
ATOM     17  O   UNL     1      38.799 -25.990 -13.427  0.00  0.00    -0.274 OA
ATOM     18  N   UNL     1      36.765 -22.453 -13.622  0.00  0.00    -0.247 NA
ATOM     19  N   UNL     1      37.631 -24.262 -12.356  0.00  0.00    -0.231 N 
ATOM     20  N   UNL     1      36.583 -22.364 -11.328  0.00  0.00    -0.331 N 
ATOM     21  C   UNL     1      37.114 -23.172 -14.850  0.00  0.00    +0.096 C 
ATOM     22  C   UNL     1      38.385 -23.987 -14.649  0.00  0.00    +0.108 C 
ATOM     23  C   UNL     1      37.353 -22.115 -15.936  0.00  0.00    +0.025 C 
ATOM     24  C   UNL     1      38.282 -24.875 -13.436  0.00  0.00    +0.233 C 
ATOM     25  C   UNL     1      36.987 -23.012 -12.471  0.00  0.00    +0.183 C 
ATOM     26  C   UNL     1      37.634 -24.965 -11.074  0.00  0.00    +0.123 C 
ATOM     27  H   UNL     1      36.132 -21.490 -11.390  0.00  0.00    +0.145 HD
ATOM     28  H   UNL     1      36.744 -22.773 -10.447  0.00  0.00    +0.145 HD
ENDBRANCH  16  21
ENDBRANCH   1  16
TORSDOF 5
ENDMDL
MODEL 8
REMARK VINA RESULT:     -10.8     10.757     15.254
REMARK  Name = 16040323
REMARK  5 active torsions:
REMARK  status: ('A' for Active; 'I' for Inactive)
REMARK    1  A    between atoms: C_1  and  C_2
REMARK    2  A    between atoms: C_1  and  C_16
REMARK    3  A    between atoms: C_5  and  C_8
REMARK    4  A    between atoms: C_11  and  O_14
REMARK    5  A    between atoms: C_16  and  C_21
REMARK                            x       y       z     vdW  Elec       q    Type
REMARK                         _______ _______ _______ _____ _____    ______ ____
ROOT
ATOM      1  C   UNL     1      32.087  -9.034 -23.796  0.00  0.00    +0.028 C 
ENDROOT
BRANCH   1   2
ATOM      2  C   UNL     1      31.904 -10.070 -22.717  0.00  0.00    -0.022 C 
ATOM      3  C   UNL     1      32.581 -11.277 -22.808  0.00  0.00    -0.004 C 
ATOM      4  C   UNL     1      31.060  -9.801 -21.649  0.00  0.00    -0.004 C 
ATOM      5  C   UNL     1      32.412 -12.237 -21.809  0.00  0.00    -0.000 C 
ATOM      6  C   UNL     1      30.890 -10.760 -20.651  0.00  0.00    -0.000 C 
ATOM      7  C   UNL     1      31.566 -11.978 -20.731  0.00  0.00    -0.000 C 
BRANCH   5   8
ATOM      8  C   UNL     1      33.113 -13.499 -21.892  0.00  0.00    +0.003 C 
ATOM      9  C   UNL     1      33.369 -14.075 -23.136  0.00  0.00    +0.037 C 
ATOM     10  C   UNL     1      33.533 -14.141 -20.727  0.00  0.00    +0.000 C 
ATOM     11  C   UNL     1      34.046 -15.292 -23.215  0.00  0.00    +0.139 C 
ATOM     12  C   UNL     1      34.208 -15.358 -20.806  0.00  0.00    +0.003 C 
ATOM     13  C   UNL     1      34.466 -15.933 -22.050  0.00  0.00    +0.037 C 
BRANCH  11  14
ATOM     14  O   UNL     1      34.297 -15.854 -24.430  0.00  0.00    -0.471 OA
ATOM     15  C   UNL     1      33.603 -17.061 -24.742  0.00  0.00    +0.252 C 
ENDBRANCH  11  14
ENDBRANCH   5   8
ENDBRANCH   1   2
BRANCH   1  16
ATOM     16  C   UNL     1      31.631  -7.659 -23.321  0.00  0.00    +0.028 C 
BRANCH  16  21
ATOM     17  O   UNL     1      31.366  -5.194 -20.279  0.00  0.00    -0.274 OA
ATOM     18  N   UNL     1      32.671  -5.606 -24.129  0.00  0.00    -0.247 NA
ATOM     19  N   UNL     1      31.473  -4.392 -22.480  0.00  0.00    -0.231 N 
ATOM     20  N   UNL     1      31.788  -3.559 -24.708  0.00  0.00    -0.331 N 
ATOM     21  C   UNL     1      32.827  -6.707 -23.175  0.00  0.00    +0.096 C 
ATOM     22  C   UNL     1      32.963  -6.170 -21.756  0.00  0.00    +0.108 C 
ATOM     23  C   UNL     1      34.111  -7.455 -23.560  0.00  0.00    +0.025 C 
ATOM     24  C   UNL     1      31.835  -5.230 -21.415  0.00  0.00    +0.233 C 
ATOM     25  C   UNL     1      31.997  -4.552 -23.780  0.00  0.00    +0.183 C 
ATOM     26  C   UNL     1      30.516  -3.321 -22.206  0.00  0.00    +0.123 C 
ATOM     27  H   UNL     1      32.147  -3.654 -25.621  0.00  0.00    +0.145 HD
ATOM     28  H   UNL     1      31.279  -2.753 -24.461  0.00  0.00    +0.145 HD
ENDBRANCH  16  21
ENDBRANCH   1  16
TORSDOF 5
ENDMDL
MODEL 9
REMARK VINA RESULT:     -10.6      3.884      6.311
REMARK  Name = 16040323
REMARK  5 active torsions:
REMARK  status: ('A' for Active; 'I' for Inactive)
REMARK    1  A    between atoms: C_1  and  C_2
REMARK    2  A    between atoms: C_1  and  C_16
REMARK    3  A    between atoms: C_5  and  C_8
REMARK    4  A    between atoms: C_11  and  O_14
REMARK    5  A    between atoms: C_16  and  C_21
REMARK                            x       y       z     vdW  Elec       q    Type
REMARK                         _______ _______ _______ _____ _____    ______ ____
ROOT
ATOM      1  C   UNL     1      35.972 -22.436 -15.779  0.00  0.00    +0.028 C 
ENDROOT
BRANCH   1   2
ATOM      2  C   UNL     1      34.619 -22.386 -16.441  0.00  0.00    -0.022 C 
ATOM      3  C   UNL     1      33.505 -22.844 -15.754  0.00  0.00    -0.004 C 
ATOM      4  C   UNL     1      34.509 -21.882 -17.730  0.00  0.00    -0.004 C 
ATOM      5  C   UNL     1      32.253 -22.796 -16.367  0.00  0.00    -0.000 C 
ATOM      6  C   UNL     1      33.257 -21.834 -18.343  0.00  0.00    -0.000 C 
ATOM      7  C   UNL     1      32.129 -22.292 -17.661  0.00  0.00    -0.000 C 
BRANCH   5   8
ATOM      8  C   UNL     1      31.082 -23.270 -15.661  0.00  0.00    +0.003 C 
ATOM      9  C   UNL     1      29.814 -23.087 -16.211  0.00  0.00    +0.037 C 
ATOM     10  C   UNL     1      31.223 -23.911 -14.430  0.00  0.00    +0.000 C 
ATOM     11  C   UNL     1      28.686 -23.545 -15.531  0.00  0.00    +0.139 C 
ATOM     12  C   UNL     1      30.095 -24.368 -13.749  0.00  0.00    +0.003 C 
ATOM     13  C   UNL     1      28.826 -24.186 -14.300  0.00  0.00    +0.037 C 
BRANCH  11  14
ATOM     14  O   UNL     1      27.447 -23.367 -16.067  0.00  0.00    -0.471 OA
ATOM     15  C   UNL     1      27.066 -22.031 -16.390  0.00  0.00    +0.252 C 
ENDBRANCH  11  14
ENDBRANCH   5   8
ENDBRANCH   1   2
BRANCH   1  16
ATOM     16  C   UNL     1      36.226 -23.802 -15.152  0.00  0.00    +0.028 C 
BRANCH  16  21
ATOM     17  O   UNL     1      36.453 -26.611 -12.421  0.00  0.00    -0.274 OA
ATOM     18  N   UNL     1      37.466 -22.759 -13.329  0.00  0.00    -0.247 NA
ATOM     19  N   UNL     1      36.529 -24.343 -11.832  0.00  0.00    -0.231 N 
ATOM     20  N   UNL     1      36.814 -22.034 -11.241  0.00  0.00    -0.331 N 
ATOM     21  C   UNL     1      37.539 -23.802 -14.354  0.00  0.00    +0.096 C 
ATOM     22  C   UNL     1      37.824 -25.157 -13.720  0.00  0.00    +0.108 C 
ATOM     23  C   UNL     1      38.693 -23.427 -15.294  0.00  0.00    +0.025 C 
ATOM     24  C   UNL     1      36.845 -25.462 -12.615  0.00  0.00    +0.233 C 
ATOM     25  C   UNL     1      36.951 -23.040 -12.170  0.00  0.00    +0.183 C 
ATOM     26  C   UNL     1      35.732 -24.562 -10.626  0.00  0.00    +0.123 C 
ATOM     27  H   UNL     1      37.103 -21.118 -11.460  0.00  0.00    +0.145 HD
ATOM     28  H   UNL     1      36.426 -22.229 -10.358  0.00  0.00    +0.145 HD
ENDBRANCH  16  21
ENDBRANCH   1  16
TORSDOF 5
ENDMDL
