MODEL 1
REMARK VINA RESULT:     -14.0      0.000      0.000
REMARK  Name = 119057475
REMARK  5 active torsions:
REMARK  status: ('A' for Active; 'I' for Inactive)
REMARK    1  A    between atoms: N_1  and  C_22
REMARK    2  A    between atoms: C_2  and  N_8
REMARK    3  A    between atoms: N_8  and  C_11
REMARK    4  A    between atoms: C_11  and  C_16
REMARK    5  A    between atoms: C_22  and  C_26
REMARK                            x       y       z     vdW  Elec       q    Type
REMARK                         _______ _______ _______ _____ _____    ______ ____
ROOT
ATOM      1  N   UNL     1      34.416 -21.271 -18.377  0.00  0.00    +0.387 N 
ATOM      2  C   UNL     1      34.356 -20.032 -21.027  0.00  0.00    -0.066 C 
ATOM      3  C   UNL     1      33.211 -21.360 -19.212  0.00  0.00    -0.079 C 
ATOM      4  C   UNL     1      35.632 -21.217 -19.201  0.00  0.00    -0.079 C 
ATOM      5  C   UNL     1      33.104 -20.159 -20.157  0.00  0.00    -0.044 C 
ATOM      6  C   UNL     1      35.607 -20.012 -20.144  0.00  0.00    -0.044 C 
ATOM      7  H   UNL     1      34.362 -20.406 -17.839  0.00  0.00    -0.080 HD
ENDROOT
BRANCH   2   8
ATOM      8  N   UNL     1      34.279 -18.829 -21.853  0.00  0.00    +0.389 N 
ATOM      9  H   UNL     1      33.322 -18.474 -21.837  0.00  0.00    -0.084 HD
ATOM     10  H   UNL     1      34.552 -19.069 -22.806  0.00  0.00    -0.084 HD
BRANCH   8  11
ATOM     11  C   UNL     1      35.179 -17.801 -21.355  0.00  0.00    -0.032 C 
BRANCH  11  16
ATOM     12  O   UNL     1      33.596 -14.212 -24.221  0.00  0.00    -0.467 OA
ATOM     13  O   UNL     1      33.144 -12.652 -21.846  0.00  0.00    -0.453 OA
ATOM     14  N   UNL     1      34.368 -15.689 -20.450  0.00  0.00    -0.151 NA
ATOM     15  N   UNL     1      33.865 -14.431 -20.580  0.00  0.00    -0.107 NA
ATOM     16  C   UNL     1      34.617 -16.419 -21.557  0.00  0.00    +0.062 C 
ATOM     17  C   UNL     1      34.374 -15.951 -22.833  0.00  0.00    +0.056 C 
ATOM     18  C   UNL     1      33.851 -14.675 -22.961  0.00  0.00    +0.194 C 
ATOM     19  C   UNL     1      33.626 -13.936 -21.813  0.00  0.00    +0.278 C 
ATOM     20  C   UNL     1      32.781 -13.036 -24.202  0.00  0.00    +0.253 C 
ATOM     21  C   UNL     1      33.276 -12.069 -23.144  0.00  0.00    +0.254 C 
ENDBRANCH  11  16
ENDBRANCH   8  11
ENDBRANCH   2   8
BRANCH   1  22
ATOM     22  C   UNL     1      34.478 -22.398 -17.446  0.00  0.00    -0.071 C 
BRANCH  22  26
ATOM     23  F   UNL     1      32.175 -22.138 -15.120  0.00  0.00    -0.204 F 
ATOM     24  O   UNL     1      38.971 -23.683 -14.774  0.00  0.00    -0.270 OA
ATOM     25  N   UNL     1      36.705 -23.218 -14.823  0.00  0.00    -0.255 N 
ATOM     26  C   UNL     1      35.067 -21.971 -16.109  0.00  0.00    +0.025 C 
ATOM     27  C   UNL     1      36.577 -22.338 -15.992  0.00  0.00    +0.101 C 
ATOM     28  C   UNL     1      34.468 -22.711 -14.945  0.00  0.00    +0.018 C 
ATOM     29  C   UNL     1      35.453 -23.394 -14.253  0.00  0.00    +0.052 C 
ATOM     30  C   UNL     1      35.233 -24.169 -13.132  0.00  0.00    +0.014 C 
ATOM     31  C   UNL     1      33.164 -22.788 -14.494  0.00  0.00    +0.137 C 
ATOM     32  C   UNL     1      37.840 -23.806 -14.311  0.00  0.00    +0.253 C 
ATOM     33  C   UNL     1      33.922 -24.255 -12.675  0.00  0.00    +0.004 C 
ATOM     34  C   UNL     1      32.895 -23.565 -13.355  0.00  0.00    +0.029 C 
ATOM     35  C   UNL     1      36.399 -24.819 -12.542  0.00  0.00    +0.006 C 
ATOM     36  C   UNL     1      37.616 -24.653 -13.088  0.00  0.00    +0.058 C 
ENDBRANCH  22  26
ENDBRANCH   1  22
TORSDOF 5
ENDMDL
MODEL 2
REMARK VINA RESULT:     -13.5      2.331     11.437
REMARK  Name = 119057475
REMARK  5 active torsions:
REMARK  status: ('A' for Active; 'I' for Inactive)
REMARK    1  A    between atoms: N_1  and  C_22
REMARK    2  A    between atoms: C_2  and  N_8
REMARK    3  A    between atoms: N_8  and  C_11
REMARK    4  A    between atoms: C_11  and  C_16
REMARK    5  A    between atoms: C_22  and  C_26
REMARK                            x       y       z     vdW  Elec       q    Type
REMARK                         _______ _______ _______ _____ _____    ______ ____
ROOT
ATOM      1  N   UNL     1      35.152 -17.943 -21.181  0.00  0.00    +0.387 N 
ATOM      2  C   UNL     1      35.227 -20.652 -20.076  0.00  0.00    -0.066 C 
ATOM      3  C   UNL     1      36.432 -18.648 -21.025  0.00  0.00    -0.079 C 
ATOM      4  C   UNL     1      34.055 -18.885 -21.444  0.00  0.00    -0.079 C 
ATOM      5  C   UNL     1      36.371 -19.656 -19.873  0.00  0.00    -0.044 C 
ATOM      6  C   UNL     1      33.913 -19.900 -20.306  0.00  0.00    -0.044 C 
ATOM      7  H   UNL     1      34.950 -17.463 -20.304  0.00  0.00    -0.080 HD
ENDROOT
BRANCH   2   8
ATOM      8  N   UNL     1      35.124 -21.545 -18.924  0.00  0.00    +0.389 N 
ATOM      9  H   UNL     1      35.317 -22.501 -19.225  0.00  0.00    -0.084 HD
ATOM     10  H   UNL     1      34.181 -21.478 -18.541  0.00  0.00    -0.084 HD
BRANCH   8  11
ATOM     11  C   UNL     1      36.076 -21.169 -17.890  0.00  0.00    -0.032 C 
BRANCH  11  16
ATOM     12  O   UNL     1      38.056 -23.233 -13.964  0.00  0.00    -0.467 OA
ATOM     13  O   UNL     1      35.581 -24.652 -13.588  0.00  0.00    -0.453 OA
ATOM     14  N   UNL     1      34.838 -22.734 -16.493  0.00  0.00    -0.151 NA
ATOM     15  N   UNL     1      34.725 -23.581 -15.434  0.00  0.00    -0.107 NA
ATOM     16  C   UNL     1      36.004 -22.089 -16.701  0.00  0.00    +0.062 C 
ATOM     17  C   UNL     1      37.101 -22.238 -15.876  0.00  0.00    +0.056 C 
ATOM     18  C   UNL     1      36.979 -23.092 -14.792  0.00  0.00    +0.194 C 
ATOM     19  C   UNL     1      35.781 -23.761 -14.612  0.00  0.00    +0.278 C 
ATOM     20  C   UNL     1      37.704 -23.878 -12.736  0.00  0.00    +0.253 C 
ATOM     21  C   UNL     1      36.816 -25.077 -13.006  0.00  0.00    +0.254 C 
ENDBRANCH  11  16
ENDBRANCH   8  11
ENDBRANCH   2   8
BRANCH   1  22
ATOM     22  C   UNL     1      35.241 -16.950 -22.251  0.00  0.00    -0.071 C 
BRANCH  22  26
ATOM     23  F   UNL     1      33.998 -15.406 -19.633  0.00  0.00    -0.204 F 
ATOM     24  O   UNL     1      33.161 -14.349 -26.480  0.00  0.00    -0.270 OA
ATOM     25  N   UNL     1      33.427 -14.619 -24.197  0.00  0.00    -0.255 N 
ATOM     26  C   UNL     1      33.878 -16.340 -22.546  0.00  0.00    +0.025 C 
ATOM     27  C   UNL     1      33.681 -16.060 -24.065  0.00  0.00    +0.101 C 
ATOM     28  C   UNL     1      33.709 -14.972 -21.945  0.00  0.00    +0.018 C 
ATOM     29  C   UNL     1      33.451 -14.041 -22.936  0.00  0.00    +0.052 C 
ATOM     30  C   UNL     1      33.244 -12.695 -22.717  0.00  0.00    +0.014 C 
ATOM     31  C   UNL     1      33.761 -14.546 -20.631  0.00  0.00    +0.137 C 
ATOM     32  C   UNL     1      33.194 -13.889 -25.341  0.00  0.00    +0.253 C 
ATOM     33  C   UNL     1      33.298 -12.258 -21.396  0.00  0.00    +0.004 C 
ATOM     34  C   UNL     1      33.555 -13.182 -20.362  0.00  0.00    +0.029 C 
ATOM     35  C   UNL     1      32.989 -11.867 -23.892  0.00  0.00    +0.006 C 
ATOM     36  C   UNL     1      32.965 -12.419 -25.117  0.00  0.00    +0.058 C 
ENDBRANCH  22  26
ENDBRANCH   1  22
TORSDOF 5
ENDMDL
MODEL 3
REMARK VINA RESULT:     -13.5      1.433      2.146
REMARK  Name = 119057475
REMARK  5 active torsions:
REMARK  status: ('A' for Active; 'I' for Inactive)
REMARK    1  A    between atoms: N_1  and  C_22
REMARK    2  A    between atoms: C_2  and  N_8
REMARK    3  A    between atoms: N_8  and  C_11
REMARK    4  A    between atoms: C_11  and  C_16
REMARK    5  A    between atoms: C_22  and  C_26
REMARK                            x       y       z     vdW  Elec       q    Type
REMARK                         _______ _______ _______ _____ _____    ______ ____
ROOT
ATOM      1  N   UNL     1      34.065 -21.988 -19.177  0.00  0.00    +0.387 N 
ATOM      2  C   UNL     1      34.566 -19.411 -20.470  0.00  0.00    -0.066 C 
ATOM      3  C   UNL     1      35.365 -21.319 -19.025  0.00  0.00    -0.079 C 
ATOM      4  C   UNL     1      32.979 -21.010 -19.334  0.00  0.00    -0.079 C 
ATOM      5  C   UNL     1      35.677 -20.437 -20.237  0.00  0.00    -0.044 C 
ATOM      6  C   UNL     1      33.211 -20.118 -20.556  0.00  0.00    -0.044 C 
ATOM      7  H   UNL     1      34.102 -22.555 -20.024  0.00  0.00    -0.080 HD
ENDROOT
BRANCH   2   8
ATOM      8  N   UNL     1      34.834 -18.641 -21.683  0.00  0.00    +0.389 N 
ATOM      9  H   UNL     1      34.080 -18.802 -22.352  0.00  0.00    -0.084 HD
ATOM     10  H   UNL     1      35.726 -18.945 -22.073  0.00  0.00    -0.084 HD
BRANCH   8  11
ATOM     11  C   UNL     1      34.915 -17.219 -21.386  0.00  0.00    -0.032 C 
BRANCH  11  16
ATOM     12  O   UNL     1      33.387 -12.999 -23.244  0.00  0.00    -0.467 OA
ATOM     13  O   UNL     1      33.102 -14.333 -25.777  0.00  0.00    -0.453 OA
ATOM     14  N   UNL     1      34.323 -16.984 -23.738  0.00  0.00    -0.151 NA
ATOM     15  N   UNL     1      33.883 -16.267 -24.808  0.00  0.00    -0.107 NA
ATOM     16  C   UNL     1      34.429 -16.378 -22.537  0.00  0.00    +0.062 C 
ATOM     17  C   UNL     1      34.119 -15.048 -22.338  0.00  0.00    +0.056 C 
ATOM     18  C   UNL     1      33.683 -14.319 -23.431  0.00  0.00    +0.194 C 
ATOM     19  C   UNL     1      33.559 -14.966 -24.648  0.00  0.00    +0.278 C 
ATOM     20  C   UNL     1      33.258 -12.299 -24.485  0.00  0.00    +0.253 C 
ATOM     21  C   UNL     1      32.431 -13.110 -25.463  0.00  0.00    +0.254 C 
ENDBRANCH  11  16
ENDBRANCH   8  11
ENDBRANCH   2   8
BRANCH   1  22
ATOM     22  C   UNL     1      33.804 -22.865 -18.036  0.00  0.00    -0.071 C 
BRANCH  22  26
ATOM     23  F   UNL     1      30.878 -22.488 -16.594  0.00  0.00    -0.204 F 
ATOM     24  O   UNL     1      37.327 -22.933 -13.966  0.00  0.00    -0.270 OA
ATOM     25  N   UNL     1      35.160 -22.820 -14.769  0.00  0.00    -0.255 N 
ATOM     26  C   UNL     1      33.911 -22.102 -16.723  0.00  0.00    +0.025 C 
ATOM     27  C   UNL     1      35.333 -22.216 -16.097  0.00  0.00    +0.101 C 
ATOM     28  C   UNL     1      33.039 -22.676 -15.641  0.00  0.00    +0.018 C 
ATOM     29  C   UNL     1      33.809 -23.060 -14.558  0.00  0.00    +0.052 C 
ATOM     30  C   UNL     1      33.313 -23.622 -13.399  0.00  0.00    +0.014 C 
ATOM     31  C   UNL     1      31.670 -22.851 -15.578  0.00  0.00    +0.137 C 
ATOM     32  C   UNL     1      36.121 -23.125 -13.832  0.00  0.00    +0.253 C 
ATOM     33  C   UNL     1      31.935 -23.805 -13.330  0.00  0.00    +0.004 C 
ATOM     34  C   UNL     1      31.121 -23.420 -14.416  0.00  0.00    +0.029 C 
ATOM     35  C   UNL     1      34.284 -23.966 -12.365  0.00  0.00    +0.006 C 
ATOM     36  C   UNL     1      35.594 -23.737 -12.562  0.00  0.00    +0.058 C 
ENDBRANCH  22  26
ENDBRANCH   1  22
TORSDOF 5
ENDMDL
MODEL 4
REMARK VINA RESULT:     -13.4      2.690      3.800
REMARK  Name = 119057475
REMARK  5 active torsions:
REMARK  status: ('A' for Active; 'I' for Inactive)
REMARK    1  A    between atoms: N_1  and  C_22
REMARK    2  A    between atoms: C_2  and  N_8
REMARK    3  A    between atoms: N_8  and  C_11
REMARK    4  A    between atoms: C_11  and  C_16
REMARK    5  A    between atoms: C_22  and  C_26
REMARK                            x       y       z     vdW  Elec       q    Type
REMARK                         _______ _______ _______ _____ _____    ______ ____
ROOT
ATOM      1  N   UNL     1      34.411 -21.349 -18.967  0.00  0.00    +0.387 N 
ATOM      2  C   UNL     1      34.092 -19.342 -21.072  0.00  0.00    -0.066 C 
ATOM      3  C   UNL     1      35.558 -20.540 -19.404  0.00  0.00    -0.079 C 
ATOM      4  C   UNL     1      33.152 -20.603 -19.099  0.00  0.00    -0.079 C 
ATOM      5  C   UNL     1      35.402 -20.104 -20.863  0.00  0.00    -0.044 C 
ATOM      6  C   UNL     1      32.915 -20.170 -20.549  0.00  0.00    -0.044 C 
ATOM      7  H   UNL     1      34.357 -22.168 -19.574  0.00  0.00    -0.080 HD
ENDROOT
BRANCH   2   8
ATOM      8  N   UNL     1      33.915 -19.016 -22.486  0.00  0.00    +0.389 N 
ATOM      9  H   UNL     1      33.001 -18.582 -22.616  0.00  0.00    -0.084 HD
ATOM     10  H   UNL     1      33.981 -19.876 -23.030  0.00  0.00    -0.084 HD
BRANCH   8  11
ATOM     11  C   UNL     1      34.949 -18.097 -22.938  0.00  0.00    -0.032 C 
BRANCH  11  16
ATOM     12  O   UNL     1      33.927 -13.386 -22.350  0.00  0.00    -0.467 OA
ATOM     13  O   UNL     1      32.700 -13.430 -24.952  0.00  0.00    -0.453 OA
ATOM     14  N   UNL     1      33.820 -16.798 -24.662  0.00  0.00    -0.151 NA
ATOM     15  N   UNL     1      33.276 -15.648 -25.148  0.00  0.00    -0.107 NA
ATOM     16  C   UNL     1      34.368 -16.798 -23.429  0.00  0.00    +0.062 C 
ATOM     17  C   UNL     1      34.415 -15.675 -22.629  0.00  0.00    +0.056 C 
ATOM     18  C   UNL     1      33.871 -14.504 -23.131  0.00  0.00    +0.194 C 
ATOM     19  C   UNL     1      33.294 -14.532 -24.389  0.00  0.00    +0.278 C 
ATOM     20  C   UNL     1      33.627 -12.200 -23.092  0.00  0.00    +0.253 C 
ATOM     21  C   UNL     1      32.416 -12.425 -23.976  0.00  0.00    +0.254 C 
ENDBRANCH  11  16
ENDBRANCH   8  11
ENDBRANCH   2   8
BRANCH   1  22
ATOM     22  C   UNL     1      34.597 -21.800 -17.588  0.00  0.00    -0.071 C 
BRANCH  22  26
ATOM     23  F   UNL     1      35.886 -23.870 -15.389  0.00  0.00    -0.204 F 
ATOM     24  O   UNL     1      29.284 -22.081 -16.771  0.00  0.00    -0.270 OA
ATOM     25  N   UNL     1      31.452 -22.686 -16.235  0.00  0.00    -0.255 N 
ATOM     26  C   UNL     1      33.642 -22.936 -17.250  0.00  0.00    +0.025 C 
ATOM     27  C   UNL     1      32.157 -22.548 -17.515  0.00  0.00    +0.101 C 
ATOM     28  C   UNL     1      33.628 -23.269 -15.784  0.00  0.00    +0.018 C 
ATOM     29  C   UNL     1      32.353 -23.111 -15.269  0.00  0.00    +0.052 C 
ATOM     30  C   UNL     1      32.002 -23.339 -13.954  0.00  0.00    +0.014 C 
ATOM     31  C   UNL     1      34.637 -23.692 -14.940  0.00  0.00    +0.137 C 
ATOM     32  C   UNL     1      30.123 -22.456 -15.956  0.00  0.00    +0.253 C 
ATOM     33  C   UNL     1      33.014 -23.762 -13.097  0.00  0.00    +0.004 C 
ATOM     34  C   UNL     1      34.324 -23.937 -13.592  0.00  0.00    +0.029 C 
ATOM     35  C   UNL     1      30.604 -23.113 -13.597  0.00  0.00    +0.006 C 
ATOM     36  C   UNL     1      29.725 -22.702 -14.526  0.00  0.00    +0.058 C 
ENDBRANCH  22  26
ENDBRANCH   1  22
TORSDOF 5
ENDMDL
MODEL 5
REMARK VINA RESULT:     -13.3      1.502      1.808
REMARK  Name = 119057475
REMARK  5 active torsions:
REMARK  status: ('A' for Active; 'I' for Inactive)
REMARK    1  A    between atoms: N_1  and  C_22
REMARK    2  A    between atoms: C_2  and  N_8
REMARK    3  A    between atoms: N_8  and  C_11
REMARK    4  A    between atoms: C_11  and  C_16
REMARK    5  A    between atoms: C_22  and  C_26
REMARK                            x       y       z     vdW  Elec       q    Type
REMARK                         _______ _______ _______ _____ _____    ______ ____
ROOT
ATOM      1  N   UNL     1      34.787 -20.698 -18.996  0.00  0.00    +0.387 N 
ATOM      2  C   UNL     1      35.105 -19.138 -21.451  0.00  0.00    -0.066 C 
ATOM      3  C   UNL     1      33.731 -20.696 -20.018  0.00  0.00    -0.079 C 
ATOM      4  C   UNL     1      36.115 -20.526 -19.602  0.00  0.00    -0.079 C 
ATOM      5  C   UNL     1      33.736 -19.388 -20.814  0.00  0.00    -0.044 C 
ATOM      6  C   UNL     1      36.200 -19.212 -20.383  0.00  0.00    -0.044 C 
ATOM      7  H   UNL     1      34.621 -19.907 -18.373  0.00  0.00    -0.080 HD
ENDROOT
BRANCH   2   8
ATOM      8  N   UNL     1      35.120 -17.842 -22.127  0.00  0.00    +0.389 N 
ATOM      9  H   UNL     1      36.076 -17.626 -22.412  0.00  0.00    -0.084 HD
ATOM     10  H   UNL     1      34.774 -17.132 -21.481  0.00  0.00    -0.084 HD
BRANCH   8  11
ATOM     11  C   UNL     1      34.263 -17.861 -23.302  0.00  0.00    -0.032 C 
BRANCH  11  16
ATOM     12  O   UNL     1      33.724 -13.107 -22.465  0.00  0.00    -0.467 OA
ATOM     13  O   UNL     1      32.813 -12.835 -25.181  0.00  0.00    -0.453 OA
ATOM     14  N   UNL     1      33.500 -16.326 -25.032  0.00  0.00    -0.151 NA
ATOM     15  N   UNL     1      33.151 -15.090 -25.484  0.00  0.00    -0.107 NA
ATOM     16  C   UNL     1      33.896 -16.472 -23.751  0.00  0.00    +0.062 C 
ATOM     17  C   UNL     1      33.976 -15.416 -22.866  0.00  0.00    +0.056 C 
ATOM     18  C   UNL     1      33.633 -14.158 -23.332  0.00  0.00    +0.194 C 
ATOM     19  C   UNL     1      33.207 -14.035 -24.643  0.00  0.00    +0.278 C 
ATOM     20  C   UNL     1      33.650 -11.848 -23.142  0.00  0.00    +0.253 C 
ATOM     21  C   UNL     1      32.533 -11.867 -24.167  0.00  0.00    +0.254 C 
ENDBRANCH  11  16
ENDBRANCH   8  11
ENDBRANCH   2   8
BRANCH   1  22
ATOM     22  C   UNL     1      34.738 -21.931 -18.211  0.00  0.00    -0.071 C 
BRANCH  22  26
ATOM     23  F   UNL     1      32.084 -22.024 -16.280  0.00  0.00    -0.204 F 
ATOM     24  O   UNL     1      38.797 -23.449 -15.018  0.00  0.00    -0.270 OA
ATOM     25  N   UNL     1      36.550 -23.031 -15.380  0.00  0.00    -0.255 N 
ATOM     26  C   UNL     1      35.087 -21.666 -16.754  0.00  0.00    +0.025 C 
ATOM     27  C   UNL     1      36.572 -22.012 -16.437  0.00  0.00    +0.101 C 
ATOM     28  C   UNL     1      34.342 -22.563 -15.803  0.00  0.00    +0.018 C 
ATOM     29  C   UNL     1      35.231 -23.307 -15.049  0.00  0.00    +0.052 C 
ATOM     30  C   UNL     1      34.869 -24.224 -14.083  0.00  0.00    +0.014 C 
ATOM     31  C   UNL     1      32.987 -22.726 -15.585  0.00  0.00    +0.137 C 
ATOM     32  C   UNL     1      37.613 -23.655 -14.765  0.00  0.00    +0.253 C 
ATOM     33  C   UNL     1      33.506 -24.397 -13.861  0.00  0.00    +0.004 C 
ATOM     34  C   UNL     1      32.573 -23.649 -14.610  0.00  0.00    +0.029 C 
ATOM     35  C   UNL     1      35.953 -24.918 -13.394  0.00  0.00    +0.006 C 
ATOM     36  C   UNL     1      37.233 -24.657 -13.709  0.00  0.00    +0.058 C 
ENDBRANCH  22  26
ENDBRANCH   1  22
TORSDOF 5
ENDMDL
MODEL 6
REMARK VINA RESULT:     -13.2      3.161     10.979
REMARK  Name = 119057475
REMARK  5 active torsions:
REMARK  status: ('A' for Active; 'I' for Inactive)
REMARK    1  A    between atoms: N_1  and  C_22
REMARK    2  A    between atoms: C_2  and  N_8
REMARK    3  A    between atoms: N_8  and  C_11
REMARK    4  A    between atoms: C_11  and  C_16
REMARK    5  A    between atoms: C_22  and  C_26
REMARK                            x       y       z     vdW  Elec       q    Type
REMARK                         _______ _______ _______ _____ _____    ______ ____
ROOT
ATOM      1  N   UNL     1      35.364 -18.440 -22.124  0.00  0.00    +0.387 N 
ATOM      2  C   UNL     1      34.859 -20.184 -19.829  0.00  0.00    -0.066 C 
ATOM      3  C   UNL     1      33.987 -18.746 -21.711  0.00  0.00    -0.079 C 
ATOM      4  C   UNL     1      36.277 -18.439 -20.973  0.00  0.00    -0.079 C 
ATOM      5  C   UNL     1      33.908 -20.113 -21.026  0.00  0.00    -0.044 C 
ATOM      6  C   UNL     1      36.275 -19.795 -20.263  0.00  0.00    -0.044 C 
ATOM      7  H   UNL     1      35.669 -19.172 -22.765  0.00  0.00    -0.080 HD
ENDROOT
BRANCH   2   8
ATOM      8  N   UNL     1      34.840 -21.524 -19.246  0.00  0.00    +0.389 N 
ATOM      9  H   UNL     1      35.285 -21.494 -18.328  0.00  0.00    -0.084 HD
ATOM     10  H   UNL     1      35.345 -22.158 -19.865  0.00  0.00    -0.084 HD
BRANCH   8  11
ATOM     11  C   UNL     1      33.475 -22.005 -19.099  0.00  0.00    -0.032 C 
BRANCH  11  16
ATOM     12  O   UNL     1      30.322 -22.659 -15.463  0.00  0.00    -0.467 OA
ATOM     13  O   UNL     1      32.558 -23.330 -13.780  0.00  0.00    -0.453 OA
ATOM     14  N   UNL     1      34.193 -22.714 -16.882  0.00  0.00    -0.151 NA
ATOM     15  N   UNL     1      33.957 -23.042 -15.582  0.00  0.00    -0.107 NA
ATOM     16  C   UNL     1      33.157 -22.364 -17.673  0.00  0.00    +0.062 C 
ATOM     17  C   UNL     1      31.851 -22.331 -17.226  0.00  0.00    +0.056 C 
ATOM     18  C   UNL     1      31.614 -22.677 -15.906  0.00  0.00    +0.194 C 
ATOM     19  C   UNL     1      32.694 -23.009 -15.108  0.00  0.00    +0.278 C 
ATOM     20  C   UNL     1      30.180 -23.327 -14.205  0.00  0.00    +0.253 C 
ATOM     21  C   UNL     1      31.293 -22.913 -13.261  0.00  0.00    +0.254 C 
ENDBRANCH  11  16
ENDBRANCH   8  11
ENDBRANCH   2   8
BRANCH   1  22
ATOM     22  C   UNL     1      35.416 -17.155 -22.821  0.00  0.00    -0.071 C 
BRANCH  22  26
ATOM     23  F   UNL     1      34.338 -15.938 -19.968  0.00  0.00    -0.204 F 
ATOM     24  O   UNL     1      33.003 -14.151 -26.580  0.00  0.00    -0.270 OA
ATOM     25  N   UNL     1      33.434 -14.665 -24.366  0.00  0.00    -0.255 N 
ATOM     26  C   UNL     1      34.027 -16.547 -22.951  0.00  0.00    +0.025 C 
ATOM     27  C   UNL     1      33.718 -16.106 -24.413  0.00  0.00    +0.101 C 
ATOM     28  C   UNL     1      33.880 -15.258 -22.191  0.00  0.00    +0.018 C 
ATOM     29  C   UNL     1      33.538 -14.230 -23.052  0.00  0.00    +0.052 C 
ATOM     30  C   UNL     1      33.328 -12.921 -22.670  0.00  0.00    +0.014 C 
ATOM     31  C   UNL     1      34.019 -14.979 -20.845  0.00  0.00    +0.137 C 
ATOM     32  C   UNL     1      33.109 -13.819 -25.402  0.00  0.00    +0.253 C 
ATOM     33  C   UNL     1      33.469 -12.631 -21.316  0.00  0.00    +0.004 C 
ATOM     34  C   UNL     1      33.812 -13.658 -20.411  0.00  0.00    +0.029 C 
ATOM     35  C   UNL     1      32.978 -11.974 -23.725  0.00  0.00    +0.006 C 
ATOM     36  C   UNL     1      32.875 -12.388 -25.000  0.00  0.00    +0.058 C 
ENDBRANCH  22  26
ENDBRANCH   1  22
TORSDOF 5
ENDMDL
MODEL 7
REMARK VINA RESULT:     -12.7      3.791     12.077
REMARK  Name = 119057475
REMARK  5 active torsions:
REMARK  status: ('A' for Active; 'I' for Inactive)
REMARK    1  A    between atoms: N_1  and  C_22
REMARK    2  A    between atoms: C_2  and  N_8
REMARK    3  A    between atoms: N_8  and  C_11
REMARK    4  A    between atoms: C_11  and  C_16
REMARK    5  A    between atoms: C_22  and  C_26
REMARK                            x       y       z     vdW  Elec       q    Type
REMARK                         _______ _______ _______ _____ _____    ______ ____
ROOT
ATOM      1  N   UNL     1      33.514 -14.019 -22.710  0.00  0.00    +0.387 N 
ATOM      2  C   UNL     1      34.565 -16.749 -22.717  0.00  0.00    -0.066 C 
ATOM      3  C   UNL     1      34.195 -14.557 -21.524  0.00  0.00    -0.079 C 
ATOM      4  C   UNL     1      34.052 -14.606 -23.945  0.00  0.00    -0.079 C 
ATOM      5  C   UNL     1      34.044 -16.079 -21.445  0.00  0.00    -0.044 C 
ATOM      6  C   UNL     1      33.897 -16.129 -23.947  0.00  0.00    -0.044 C 
ATOM      7  H   UNL     1      32.528 -14.271 -22.647  0.00  0.00    -0.080 HD
ENDROOT
BRANCH   2   8
ATOM      8  N   UNL     1      34.328 -18.190 -22.664  0.00  0.00    +0.389 N 
ATOM      9  H   UNL     1      34.518 -18.594 -23.582  0.00  0.00    -0.084 HD
ATOM     10  H   UNL     1      33.357 -18.353 -22.399  0.00  0.00    -0.084 HD
BRANCH   8  11
ATOM     11  C   UNL     1      35.192 -18.821 -21.677  0.00  0.00    -0.032 C 
BRANCH  11  16
ATOM     12  O   UNL     1      34.961 -21.987 -18.001  0.00  0.00    -0.467 OA
ATOM     13  O   UNL     1      32.096 -21.913 -18.250  0.00  0.00    -0.453 OA
ATOM     14  N   UNL     1      33.067 -19.621 -20.796  0.00  0.00    -0.151 NA
ATOM     15  N   UNL     1      32.317 -20.379 -19.949  0.00  0.00    -0.107 NA
ATOM     16  C   UNL     1      34.412 -19.673 -20.712  0.00  0.00    +0.062 C 
ATOM     17  C   UNL     1      35.076 -20.458 -19.791  0.00  0.00    +0.056 C 
ATOM     18  C   UNL     1      34.310 -21.218 -18.923  0.00  0.00    +0.194 C 
ATOM     19  C   UNL     1      32.933 -21.168 -19.043  0.00  0.00    +0.278 C 
ATOM     20  C   UNL     1      34.076 -22.464 -16.983  0.00  0.00    +0.253 C 
ATOM     21  C   UNL     1      32.792 -22.980 -17.601  0.00  0.00    +0.254 C 
ENDBRANCH  11  16
ENDBRANCH   8  11
ENDBRANCH   2   8
BRANCH   1  22
ATOM     22  C   UNL     1      33.623 -12.561 -22.746  0.00  0.00    -0.071 C 
BRANCH  22  26
ATOM     23  F   UNL     1      31.965 -13.015 -19.949  0.00  0.00    -0.204 F 
ATOM     24  O   UNL     1      31.771  -7.892 -24.682  0.00  0.00    -0.270 OA
ATOM     25  N   UNL     1      31.815  -9.536 -23.055  0.00  0.00    -0.255 N 
ATOM     26  C   UNL     1      32.248 -11.910 -22.789  0.00  0.00    +0.025 C 
ATOM     27  C   UNL     1      32.189 -10.737 -23.813  0.00  0.00    +0.101 C 
ATOM     28  C   UNL     1      31.886 -11.225 -21.500  0.00  0.00    +0.018 C 
ATOM     29  C   UNL     1      31.648  -9.881 -21.721  0.00  0.00    +0.052 C 
ATOM     30  C   UNL     1      31.291  -8.973 -20.744  0.00  0.00    +0.014 C 
ATOM     31  C   UNL     1      31.756 -11.721 -20.217  0.00  0.00    +0.137 C 
ATOM     32  C   UNL     1      31.637  -8.250 -23.515  0.00  0.00    +0.253 C 
ATOM     33  C   UNL     1      31.162  -9.464 -19.448  0.00  0.00    +0.004 C 
ATOM     34  C   UNL     1      31.393 -10.832 -19.190  0.00  0.00    +0.029 C 
ATOM     35  C   UNL     1      31.086  -7.592 -21.171  0.00  0.00    +0.006 C 
ATOM     36  C   UNL     1      31.247  -7.251 -22.461  0.00  0.00    +0.058 C 
ENDBRANCH  22  26
ENDBRANCH   1  22
TORSDOF 5
ENDMDL
MODEL 8
REMARK VINA RESULT:     -12.4      4.541     12.724
REMARK  Name = 119057475
REMARK  5 active torsions:
REMARK  status: ('A' for Active; 'I' for Inactive)
REMARK    1  A    between atoms: N_1  and  C_22
REMARK    2  A    between atoms: C_2  and  N_8
REMARK    3  A    between atoms: N_8  and  C_11
REMARK    4  A    between atoms: C_11  and  C_16
REMARK    5  A    between atoms: C_22  and  C_26
REMARK                            x       y       z     vdW  Elec       q    Type
REMARK                         _______ _______ _______ _____ _____    ______ ____
ROOT
ATOM      1  N   UNL     1      32.939 -12.229 -22.948  0.00  0.00    +0.387 N 
ATOM      2  C   UNL     1      33.932 -14.981 -23.027  0.00  0.00    -0.066 C 
ATOM      3  C   UNL     1      33.852 -12.721 -21.906  0.00  0.00    -0.079 C 
ATOM      4  C   UNL     1      33.195 -12.892 -24.235  0.00  0.00    -0.079 C 
ATOM      5  C   UNL     1      33.703 -14.233 -21.712  0.00  0.00    -0.044 C 
ATOM      6  C   UNL     1      33.024 -14.409 -24.119  0.00  0.00    -0.044 C 
ATOM      7  H   UNL     1      31.987 -12.455 -22.662  0.00  0.00    -0.080 HD
ENDROOT
BRANCH   2   8
ATOM      8  N   UNL     1      33.695 -16.411 -22.844  0.00  0.00    +0.389 N 
ATOM      9  H   UNL     1      32.996 -16.722 -23.520  0.00  0.00    -0.084 HD
ATOM     10  H   UNL     1      33.363 -16.569 -21.893  0.00  0.00    -0.084 HD
BRANCH   8  11
ATOM     11  C   UNL     1      34.921 -17.168 -23.042  0.00  0.00    -0.032 C 
BRANCH  11  16
ATOM     12  O   UNL     1      33.611 -20.879 -20.195  0.00  0.00    -0.467 OA
ATOM     13  O   UNL     1      36.093 -20.539 -18.781  0.00  0.00    -0.453 OA
ATOM     14  N   UNL     1      36.358 -17.993 -21.256  0.00  0.00    -0.151 NA
ATOM     15  N   UNL     1      36.638 -18.827 -20.216  0.00  0.00    -0.107 NA
ATOM     16  C   UNL     1      35.182 -18.120 -21.905  0.00  0.00    +0.062 C 
ATOM     17  C   UNL     1      34.240 -19.072 -21.571  0.00  0.00    +0.056 C 
ATOM     18  C   UNL     1      34.533 -19.926 -20.521  0.00  0.00    +0.194 C 
ATOM     19  C   UNL     1      35.735 -19.763 -19.854  0.00  0.00    +0.278 C 
ATOM     20  C   UNL     1      34.157 -21.876 -19.325  0.00  0.00    +0.253 C 
ATOM     21  C   UNL     1      34.969 -21.224 -18.223  0.00  0.00    +0.254 C 
ENDBRANCH  11  16
ENDBRANCH   8  11
ENDBRANCH   2   8
BRANCH   1  22
ATOM     22  C   UNL     1      33.056 -10.778 -23.087  0.00  0.00    -0.071 C 
BRANCH  22  26
ATOM     23  F   UNL     1      31.731 -11.785 -20.257  0.00  0.00    -0.204 F 
ATOM     24  O   UNL     1      31.253  -5.745 -23.719  0.00  0.00    -0.270 OA
ATOM     25  N   UNL     1      31.401  -7.707 -22.501  0.00  0.00    -0.255 N 
ATOM     26  C   UNL     1      31.726 -10.093 -22.807  0.00  0.00    +0.025 C 
ATOM     27  C   UNL     1      31.610  -8.723 -23.540  0.00  0.00    +0.101 C 
ATOM     28  C   UNL     1      31.565  -9.697 -21.365  0.00  0.00    +0.018 C 
ATOM     29  C   UNL     1      31.380  -8.330 -21.261  0.00  0.00    +0.052 C 
ATOM     30  C   UNL     1      31.199  -7.649 -20.075  0.00  0.00    +0.014 C 
ATOM     31  C   UNL     1      31.565 -10.458 -20.212  0.00  0.00    +0.137 C 
ATOM     32  C   UNL     1      31.243  -6.347 -22.648  0.00  0.00    +0.253 C 
ATOM     33  C   UNL     1      31.202  -8.407 -18.908  0.00  0.00    +0.004 C 
ATOM     34  C   UNL     1      31.384  -9.805 -18.980  0.00  0.00    +0.029 C 
ATOM     35  C   UNL     1      31.024  -6.202 -20.165  0.00  0.00    +0.006 C 
ATOM     36  C   UNL     1      31.044  -5.591 -21.362  0.00  0.00    +0.058 C 
ENDBRANCH  22  26
ENDBRANCH   1  22
TORSDOF 5
ENDMDL
MODEL 9
REMARK VINA RESULT:     -12.3      6.854     15.569
REMARK  Name = 119057475
REMARK  5 active torsions:
REMARK  status: ('A' for Active; 'I' for Inactive)
REMARK    1  A    between atoms: N_1  and  C_22
REMARK    2  A    between atoms: C_2  and  N_8
REMARK    3  A    between atoms: N_8  and  C_11
REMARK    4  A    between atoms: C_11  and  C_16
REMARK    5  A    between atoms: C_22  and  C_26
REMARK                            x       y       z     vdW  Elec       q    Type
REMARK                         _______ _______ _______ _____ _____    ______ ____
ROOT
ATOM      1  N   UNL     1      31.418  -8.751 -22.073  0.00  0.00    +0.387 N 
ATOM      2  C   UNL     1      31.621 -11.652 -21.753  0.00  0.00    -0.066 C 
ATOM      3  C   UNL     1      31.677  -9.612 -23.236  0.00  0.00    -0.079 C 
ATOM      4  C   UNL     1      30.605  -9.447 -21.067  0.00  0.00    -0.079 C 
ATOM      5  C   UNL     1      32.408 -10.892 -22.822  0.00  0.00    -0.044 C 
ATOM      6  C   UNL     1      31.299 -10.722 -20.580  0.00  0.00    -0.044 C 
ATOM      7  H   UNL     1      32.315  -8.521 -21.648  0.00  0.00    -0.080 HD
ENDROOT
BRANCH   2   8
ATOM      8  N   UNL     1      32.377 -12.820 -21.303  0.00  0.00    +0.389 N 
ATOM      9  H   UNL     1      31.798 -13.653 -21.412  0.00  0.00    -0.084 HD
ATOM     10  H   UNL     1      32.629 -12.688 -20.323  0.00  0.00    -0.084 HD
BRANCH   8  11
ATOM     11  C   UNL     1      33.595 -12.979 -22.081  0.00  0.00    -0.032 C 
BRANCH  11  16
ATOM     12  O   UNL     1      34.888 -17.434 -20.641  0.00  0.00    -0.467 OA
ATOM     13  O   UNL     1      34.685 -18.271 -23.386  0.00  0.00    -0.453 OA
ATOM     14  N   UNL     1      33.769 -14.840 -23.644  0.00  0.00    -0.151 NA
ATOM     15  N   UNL     1      34.034 -16.139 -23.952  0.00  0.00    -0.107 NA
ATOM     16  C   UNL     1      33.894 -14.427 -22.365  0.00  0.00    +0.062 C 
ATOM     17  C   UNL     1      34.271 -15.269 -21.339  0.00  0.00    +0.056 C 
ATOM     18  C   UNL     1      34.527 -16.593 -21.654  0.00  0.00    +0.194 C 
ATOM     19  C   UNL     1      34.416 -16.989 -22.976  0.00  0.00    +0.278 C 
ATOM     20  C   UNL     1      34.815 -18.808 -21.035  0.00  0.00    +0.253 C 
ATOM     21  C   UNL     1      35.434 -18.994 -22.407  0.00  0.00    +0.254 C 
ENDBRANCH  11  16
ENDBRANCH   8  11
ENDBRANCH   2   8
BRANCH   1  22
ATOM     22  C   UNL     1      30.765  -7.511 -22.490  0.00  0.00    -0.071 C 
BRANCH  22  26
ATOM     23  F   UNL     1      33.788  -7.552 -23.771  0.00  0.00    -0.204 F 
ATOM     24  O   UNL     1      29.615  -2.286 -21.886  0.00  0.00    -0.270 OA
ATOM     25  N   UNL     1      31.031  -3.984 -22.568  0.00  0.00    -0.255 N 
ATOM     26  C   UNL     1      31.577  -6.295 -22.067  0.00  0.00    +0.025 C 
ATOM     27  C   UNL     1      30.668  -5.092 -21.676  0.00  0.00    +0.101 C 
ATOM     28  C   UNL     1      32.399  -5.722 -23.189  0.00  0.00    +0.018 C 
ATOM     29  C   UNL     1      32.042  -4.406 -23.420  0.00  0.00    +0.052 C 
ATOM     30  C   UNL     1      32.609  -3.595 -24.382  0.00  0.00    +0.014 C 
ATOM     31  C   UNL     1      33.398  -6.286 -23.959  0.00  0.00    +0.137 C 
ATOM     32  C   UNL     1      30.508  -2.711 -22.615  0.00  0.00    +0.253 C 
ATOM     33  C   UNL     1      33.613  -4.156 -25.165  0.00  0.00    +0.004 C 
ATOM     34  C   UNL     1      34.004  -5.495 -24.951  0.00  0.00    +0.029 C 
ATOM     35  C   UNL     1      32.096  -2.231 -24.479  0.00  0.00    +0.006 C 
ATOM     36  C   UNL     1      31.117  -1.815 -23.658  0.00  0.00    +0.058 C 
ENDBRANCH  22  26
ENDBRANCH   1  22
TORSDOF 5
ENDMDL
