MODEL 1
REMARK VINA RESULT:     -12.1      0.000      0.000
REMARK  Name = 15942655
REMARK  5 active torsions:
REMARK  status: ('A' for Active; 'I' for Inactive)
REMARK    1  A    between atoms: C_1  and  C_9
REMARK    2  A    between atoms: C_2  and  C_17
REMARK    3  A    between atoms: C_3  and  O_31
REMARK    4  A    between atoms: C_19  and  C_23
REMARK    5  A    between atoms: C_23  and  N_25
REMARK                            x       y       z     vdW  Elec       q    Type
REMARK                         _______ _______ _______ _____ _____    ______ ____
ROOT
ATOM      1  C   UNL     1      33.370 -14.494 -23.436  0.00  0.00    +0.047 C 
ATOM      2  C   UNL     1      34.247 -16.696 -22.958  0.00  0.00    +0.034 C 
ATOM      3  C   UNL     1      33.841 -15.436 -22.520  0.00  0.00    +0.135 C 
ATOM      4  C   UNL     1      33.306 -14.817 -24.793  0.00  0.00    +0.004 C 
ATOM      5  C   UNL     1      34.182 -17.017 -24.314  0.00  0.00    +0.003 C 
ATOM      6  C   UNL     1      33.712 -16.077 -25.231  0.00  0.00    +0.000 C 
ENDROOT
BRANCH   1   9
ATOM      7  N   UNL     1      32.200 -13.000 -21.873  0.00  0.00    -0.312 N 
ATOM      8  N   UNL     1      31.713  -8.924 -21.844  0.00  0.00    -0.242 NA
ATOM      9  C   UNL     1      32.945 -13.184 -23.006  0.00  0.00    +0.051 C 
ATOM     10  C   UNL     1      31.932 -11.661 -21.694  0.00  0.00    +0.051 C 
ATOM     11  C   UNL     1      32.530 -10.977 -22.754  0.00  0.00    +0.034 C 
ATOM     12  C   UNL     1      33.165 -11.951 -23.574  0.00  0.00    +0.017 C 
ATOM     13  C   UNL     1      31.219 -11.009 -20.692  0.00  0.00    +0.035 C 
ATOM     14  C   UNL     1      32.402  -9.586 -22.805  0.00  0.00    +0.100 C 
ATOM     15  C   UNL     1      31.153  -9.633 -20.837  0.00  0.00    +0.100 C 
ATOM     16  H   UNL     1      31.900 -13.719 -21.272  0.00  0.00    +0.152 HD
ENDBRANCH   1   9
BRANCH   2  17
ATOM     17  C   UNL     1      34.739 -17.689 -22.024  0.00  0.00    +0.003 C 
ATOM     18  C   UNL     1      33.866 -18.637 -21.494  0.00  0.00    -0.003 C 
ATOM     19  C   UNL     1      34.339 -19.593 -20.594  0.00  0.00    -0.003 C 
ATOM     20  C   UNL     1      36.082 -17.693 -21.658  0.00  0.00    +0.000 C 
ATOM     21  C   UNL     1      35.684 -19.598 -20.227  0.00  0.00    -0.003 C 
ATOM     22  C   UNL     1      36.556 -18.648 -20.759  0.00  0.00    -0.000 C 
BRANCH  19  23
ATOM     23  C   UNL     1      33.407 -20.610 -20.027  0.00  0.00    +0.118 C 
BRANCH  23  25
ATOM     24  O   UNL     1      31.979 -22.148 -18.026  0.00  0.00    -0.253 OA
ATOM     25  N   UNL     1      33.961 -21.277 -18.875  0.00  0.00    -0.285 N 
ATOM     26  N   UNL     1      33.970 -22.537 -16.951  0.00  0.00    -0.313 N 
ATOM     27  C   UNL     1      33.197 -21.996 -17.963  0.00  0.00    +0.298 C 
ATOM     28  H   UNL     1      34.932 -21.220 -18.728  0.00  0.00    +0.151 HD
ATOM     29  H   UNL     1      33.546 -23.070 -16.240  0.00  0.00    +0.146 HD
ATOM     30  H   UNL     1      34.943 -22.389 -16.942  0.00  0.00    +0.146 HD
ENDBRANCH  23  25
ENDBRANCH  19  23
ENDBRANCH   2  17
BRANCH   3  31
ATOM     31  O   UNL     1      33.904 -15.122 -21.192  0.00  0.00    -0.505 OA
ATOM     32  H   UNL     1      33.148 -14.783 -20.754  0.00  0.00    +0.292 HD
ENDBRANCH   3  31
TORSDOF 5
ENDMDL
MODEL 2
REMARK VINA RESULT:     -11.5      4.120     10.731
REMARK  Name = 15942655
REMARK  5 active torsions:
REMARK  status: ('A' for Active; 'I' for Inactive)
REMARK    1  A    between atoms: C_1  and  C_9
REMARK    2  A    between atoms: C_2  and  C_17
REMARK    3  A    between atoms: C_3  and  O_31
REMARK    4  A    between atoms: C_19  and  C_23
REMARK    5  A    between atoms: C_23  and  N_25
REMARK                            x       y       z     vdW  Elec       q    Type
REMARK                         _______ _______ _______ _____ _____    ______ ____
ROOT
ATOM      1  C   UNL     1      34.636 -22.270 -16.817  0.00  0.00    +0.047 C 
ATOM      2  C   UNL     1      34.380 -21.057 -18.892  0.00  0.00    +0.034 C 
ATOM      3  C   UNL     1      35.155 -21.415 -17.789  0.00  0.00    +0.135 C 
ATOM      4  C   UNL     1      33.339 -22.769 -16.951  0.00  0.00    +0.004 C 
ATOM      5  C   UNL     1      33.084 -21.556 -19.025  0.00  0.00    +0.003 C 
ATOM      6  C   UNL     1      32.564 -22.412 -18.054  0.00  0.00    +0.000 C 
ENDROOT
BRANCH   1   9
ATOM      7  N   UNL     1      36.572 -23.383 -15.786  0.00  0.00    -0.312 N 
ATOM      8  N   UNL     1      37.738 -23.752 -11.868  0.00  0.00    -0.242 NA
ATOM      9  C   UNL     1      35.419 -22.654 -15.667  0.00  0.00    +0.051 C 
ATOM     10  C   UNL     1      37.119 -23.611 -14.544  0.00  0.00    +0.051 C 
ATOM     11  C   UNL     1      36.280 -23.003 -13.607  0.00  0.00    +0.034 C 
ATOM     12  C   UNL     1      35.211 -22.405 -14.330  0.00  0.00    +0.017 C 
ATOM     13  C   UNL     1      38.274 -24.295 -14.177  0.00  0.00    +0.035 C 
ATOM     14  C   UNL     1      36.619 -23.092 -12.254  0.00  0.00    +0.100 C 
ATOM     15  C   UNL     1      38.518 -24.322 -12.813  0.00  0.00    +0.100 C 
ATOM     16  H   UNL     1      36.955 -23.698 -16.637  0.00  0.00    +0.152 HD
ENDBRANCH   1   9
BRANCH   2  17
ATOM     17  C   UNL     1      34.899 -20.169 -19.914  0.00  0.00    +0.003 C 
ATOM     18  C   UNL     1      34.114 -19.847 -21.019  0.00  0.00    -0.003 C 
ATOM     19  C   UNL     1      34.614 -18.994 -22.003  0.00  0.00    -0.003 C 
ATOM     20  C   UNL     1      36.182 -19.642 -19.789  0.00  0.00    +0.000 C 
ATOM     21  C   UNL     1      35.898 -18.464 -21.879  0.00  0.00    -0.003 C 
ATOM     22  C   UNL     1      36.682 -18.788 -20.772  0.00  0.00    -0.000 C 
BRANCH  19  23
ATOM     23  C   UNL     1      33.775 -18.645 -23.186  0.00  0.00    +0.118 C 
BRANCH  23  25
ATOM     24  O   UNL     1      32.286 -17.190 -25.205  0.00  0.00    -0.253 OA
ATOM     25  N   UNL     1      34.004 -17.297 -23.641  0.00  0.00    -0.285 N 
ATOM     26  N   UNL     1      33.662 -15.384 -24.872  0.00  0.00    -0.313 N 
ATOM     27  C   UNL     1      33.236 -16.675 -24.619  0.00  0.00    +0.298 C 
ATOM     28  H   UNL     1      34.744 -16.789 -23.237  0.00  0.00    +0.151 HD
ATOM     29  H   UNL     1      33.199 -14.836 -25.546  0.00  0.00    +0.146 HD
ATOM     30  H   UNL     1      34.429 -15.013 -24.377  0.00  0.00    +0.146 HD
ENDBRANCH  23  25
ENDBRANCH  19  23
ENDBRANCH   2  17
BRANCH   3  31
ATOM     31  O   UNL     1      36.424 -20.926 -17.660  0.00  0.00    -0.505 OA
ATOM     32  H   UNL     1      37.121 -21.494 -17.394  0.00  0.00    +0.292 HD
ENDBRANCH   3  31
TORSDOF 5
ENDMDL
MODEL 3
REMARK VINA RESULT:     -11.3      5.332      9.004
REMARK  Name = 15942655
REMARK  5 active torsions:
REMARK  status: ('A' for Active; 'I' for Inactive)
REMARK    1  A    between atoms: C_1  and  C_9
REMARK    2  A    between atoms: C_2  and  C_17
REMARK    3  A    between atoms: C_3  and  O_31
REMARK    4  A    between atoms: C_19  and  C_23
REMARK    5  A    between atoms: C_23  and  N_25
REMARK                            x       y       z     vdW  Elec       q    Type
REMARK                         _______ _______ _______ _____ _____    ______ ____
ROOT
ATOM      1  C   UNL     1      33.590 -21.560 -18.121  0.00  0.00    +0.047 C 
ATOM      2  C   UNL     1      34.102 -22.796 -16.107  0.00  0.00    +0.034 C 
ATOM      3  C   UNL     1      34.516 -21.998 -17.174  0.00  0.00    +0.135 C 
ATOM      4  C   UNL     1      32.247 -21.922 -17.998  0.00  0.00    +0.004 C 
ATOM      5  C   UNL     1      32.760 -23.157 -15.986  0.00  0.00    +0.003 C 
ATOM      6  C   UNL     1      31.833 -22.720 -16.932  0.00  0.00    +0.000 C 
ENDROOT
BRANCH   1   9
ATOM      7  N   UNL     1      35.265 -20.236 -19.341  0.00  0.00    -0.312 N 
ATOM      8  N   UNL     1      35.043 -18.132 -22.858  0.00  0.00    -0.242 NA
ATOM      9  C   UNL     1      33.995 -20.733 -19.232  0.00  0.00    +0.051 C 
ATOM     10  C   UNL     1      35.383 -19.485 -20.489  0.00  0.00    +0.051 C 
ATOM     11  C   UNL     1      34.142 -19.509 -21.126  0.00  0.00    +0.034 C 
ATOM     12  C   UNL     1      33.275 -20.300 -20.322  0.00  0.00    +0.017 C 
ATOM     13  C   UNL     1      36.476 -18.796 -21.008  0.00  0.00    +0.035 C 
ATOM     14  C   UNL     1      33.997 -18.811 -22.329  0.00  0.00    +0.100 C 
ATOM     15  C   UNL     1      36.226 -18.140 -22.203  0.00  0.00    +0.100 C 
ATOM     16  H   UNL     1      35.990 -20.394 -18.694  0.00  0.00    +0.152 HD
ENDBRANCH   1   9
BRANCH   2  17
ATOM     17  C   UNL     1      35.048 -23.261 -15.111  0.00  0.00    +0.003 C 
ATOM     18  C   UNL     1      35.643 -24.513 -15.250  0.00  0.00    -0.003 C 
ATOM     19  C   UNL     1      36.553 -24.962 -14.292  0.00  0.00    -0.003 C 
ATOM     20  C   UNL     1      35.359 -22.455 -14.019  0.00  0.00    +0.000 C 
ATOM     21  C   UNL     1      36.865 -24.156 -13.197  0.00  0.00    -0.003 C 
ATOM     22  C   UNL     1      36.268 -22.903 -13.061  0.00  0.00    -0.000 C 
BRANCH  19  23
ATOM     23  C   UNL     1      37.193 -26.301 -14.438  0.00  0.00    +0.118 C 
BRANCH  23  25
ATOM     24  O   UNL     1      39.680 -25.468 -15.674  0.00  0.00    -0.253 OA
ATOM     25  N   UNL     1      38.513 -26.342 -13.862  0.00  0.00    -0.285 N 
ATOM     26  N   UNL     1      40.794 -26.063 -13.757  0.00  0.00    -0.313 N 
ATOM     27  C   UNL     1      39.656 -25.919 -14.531  0.00  0.00    +0.298 C 
ATOM     28  H   UNL     1      38.610 -26.688 -12.946  0.00  0.00    +0.151 HD
ATOM     29  H   UNL     1      41.671 -25.799 -14.118  0.00  0.00    +0.146 HD
ATOM     30  H   UNL     1      40.726 -26.430 -12.846  0.00  0.00    +0.146 HD
ENDBRANCH  23  25
ENDBRANCH  19  23
ENDBRANCH   2  17
BRANCH   3  31
ATOM     31  O   UNL     1      35.831 -21.644 -17.291  0.00  0.00    -0.505 OA
ATOM     32  H   UNL     1      36.495 -22.168 -16.888  0.00  0.00    +0.292 HD
ENDBRANCH   3  31
TORSDOF 5
ENDMDL
MODEL 4
REMARK VINA RESULT:     -11.2      2.602      5.050
REMARK  Name = 15942655
REMARK  5 active torsions:
REMARK  status: ('A' for Active; 'I' for Inactive)
REMARK    1  A    between atoms: C_1  and  C_9
REMARK    2  A    between atoms: C_2  and  C_17
REMARK    3  A    between atoms: C_3  and  O_31
REMARK    4  A    between atoms: C_19  and  C_23
REMARK    5  A    between atoms: C_23  and  N_25
REMARK                            x       y       z     vdW  Elec       q    Type
REMARK                         _______ _______ _______ _____ _____    ______ ____
ROOT
ATOM      1  C   UNL     1      31.954 -10.358 -22.165  0.00  0.00    +0.047 C 
ATOM      2  C   UNL     1      32.534 -12.704 -22.116  0.00  0.00    +0.034 C 
ATOM      3  C   UNL     1      32.543 -11.470 -22.767  0.00  0.00    +0.135 C 
ATOM      4  C   UNL     1      31.356 -10.482 -20.909  0.00  0.00    +0.004 C 
ATOM      5  C   UNL     1      31.936 -12.827 -20.862  0.00  0.00    +0.003 C 
ATOM      6  C   UNL     1      31.347 -11.715 -20.259  0.00  0.00    +0.000 C 
ENDROOT
BRANCH   1   9
ATOM      7  N   UNL     1      33.111  -8.435 -23.173  0.00  0.00    -0.312 N 
ATOM      8  N   UNL     1      31.687  -4.989 -24.888  0.00  0.00    -0.242 NA
ATOM      9  C   UNL     1      31.951  -9.071 -22.819  0.00  0.00    +0.051 C 
ATOM     10  C   UNL     1      32.826  -7.232 -23.777  0.00  0.00    +0.051 C 
ATOM     11  C   UNL     1      31.436  -7.104 -23.804  0.00  0.00    +0.034 C 
ATOM     12  C   UNL     1      30.897  -8.271 -23.196  0.00  0.00    +0.017 C 
ATOM     13  C   UNL     1      33.675  -6.259 -24.296  0.00  0.00    +0.035 C 
ATOM     14  C   UNL     1      30.885  -5.953 -24.375  0.00  0.00    +0.100 C 
ATOM     15  C   UNL     1      33.027  -5.160 -24.838  0.00  0.00    +0.100 C 
ATOM     16  H   UNL     1      34.017  -8.788 -23.019  0.00  0.00    +0.152 HD
ENDBRANCH   1   9
BRANCH   2  17
ATOM     17  C   UNL     1      33.140 -13.873 -22.723  0.00  0.00    +0.003 C 
ATOM     18  C   UNL     1      33.918 -14.732 -21.950  0.00  0.00    -0.003 C 
ATOM     19  C   UNL     1      34.502 -15.857 -22.534  0.00  0.00    -0.003 C 
ATOM     20  C   UNL     1      32.944 -14.133 -24.077  0.00  0.00    +0.000 C 
ATOM     21  C   UNL     1      34.306 -16.119 -23.890  0.00  0.00    -0.003 C 
ATOM     22  C   UNL     1      33.527 -15.257 -24.661  0.00  0.00    -0.000 C 
BRANCH  19  23
ATOM     23  C   UNL     1      35.335 -16.780 -21.710  0.00  0.00    +0.118 C 
BRANCH  23  25
ATOM     24  O   UNL     1      34.530 -19.413 -22.621  0.00  0.00    -0.253 OA
ATOM     25  N   UNL     1      34.537 -17.747 -20.998  0.00  0.00    -0.285 N 
ATOM     26  N   UNL     1      33.428 -19.729 -20.633  0.00  0.00    -0.313 N 
ATOM     27  C   UNL     1      34.198 -18.992 -21.515  0.00  0.00    +0.298 C 
ATOM     28  H   UNL     1      34.216 -17.513 -20.098  0.00  0.00    +0.151 HD
ATOM     29  H   UNL     1      33.122 -20.631 -20.882  0.00  0.00    +0.146 HD
ATOM     30  H   UNL     1      33.186 -19.350 -19.757  0.00  0.00    +0.146 HD
ENDBRANCH  23  25
ENDBRANCH  19  23
ENDBRANCH   2  17
BRANCH   3  31
ATOM     31  O   UNL     1      33.129 -11.351 -23.995  0.00  0.00    -0.505 OA
ATOM     32  H   UNL     1      32.794 -10.733 -24.616  0.00  0.00    +0.292 HD
ENDBRANCH   3  31
TORSDOF 5
ENDMDL
MODEL 5
REMARK VINA RESULT:     -11.2      2.489      9.537
REMARK  Name = 15942655
REMARK  5 active torsions:
REMARK  status: ('A' for Active; 'I' for Inactive)
REMARK    1  A    between atoms: C_1  and  C_9
REMARK    2  A    between atoms: C_2  and  C_17
REMARK    3  A    between atoms: C_3  and  O_31
REMARK    4  A    between atoms: C_19  and  C_23
REMARK    5  A    between atoms: C_23  and  N_25
REMARK                            x       y       z     vdW  Elec       q    Type
REMARK                         _______ _______ _______ _____ _____    ______ ____
ROOT
ATOM      1  C   UNL     1      33.764 -21.516 -18.251  0.00  0.00    +0.047 C 
ATOM      2  C   UNL     1      34.632 -20.173 -20.064  0.00  0.00    +0.034 C 
ATOM      3  C   UNL     1      33.549 -20.671 -19.340  0.00  0.00    +0.135 C 
ATOM      4  C   UNL     1      35.068 -21.860 -17.886  0.00  0.00    +0.004 C 
ATOM      5  C   UNL     1      35.933 -20.518 -19.699  0.00  0.00    +0.003 C 
ATOM      6  C   UNL     1      36.150 -21.362 -18.610  0.00  0.00    +0.000 C 
ENDROOT
BRANCH   1   9
ATOM      7  N   UNL     1      31.367 -21.660 -17.721  0.00  0.00    -0.312 N 
ATOM      8  N   UNL     1      29.320 -23.863 -14.928  0.00  0.00    -0.242 NA
ATOM      9  C   UNL     1      32.660 -22.044 -17.486  0.00  0.00    +0.051 C 
ATOM     10  C   UNL     1      30.516 -22.311 -16.857  0.00  0.00    +0.051 C 
ATOM     11  C   UNL     1      31.301 -23.135 -16.049  0.00  0.00    +0.034 C 
ATOM     12  C   UNL     1      32.652 -22.956 -16.457  0.00  0.00    +0.017 C 
ATOM     13  C   UNL     1      29.132 -22.238 -16.728  0.00  0.00    +0.035 C 
ATOM     14  C   UNL     1      30.666 -23.913 -15.076  0.00  0.00    +0.100 C 
ATOM     15  C   UNL     1      28.604 -23.049 -15.736  0.00  0.00    +0.100 C 
ATOM     16  H   UNL     1      31.087 -21.012 -18.407  0.00  0.00    +0.152 HD
ENDBRANCH   1   9
BRANCH   2  17
ATOM     17  C   UNL     1      34.430 -19.293 -21.199  0.00  0.00    +0.003 C 
ATOM     18  C   UNL     1      34.549 -17.915 -21.040  0.00  0.00    -0.003 C 
ATOM     19  C   UNL     1      34.354 -17.068 -22.132  0.00  0.00    -0.003 C 
ATOM     20  C   UNL     1      34.117 -19.830 -22.446  0.00  0.00    +0.000 C 
ATOM     21  C   UNL     1      34.041 -17.604 -23.381  0.00  0.00    -0.003 C 
ATOM     22  C   UNL     1      33.923 -18.984 -23.538  0.00  0.00    -0.000 C 
BRANCH  19  23
ATOM     23  C   UNL     1      34.483 -15.591 -21.965  0.00  0.00    +0.118 C 
BRANCH  23  25
ATOM     24  O   UNL     1      32.702 -13.315 -21.730  0.00  0.00    -0.253 OA
ATOM     25  N   UNL     1      33.848 -14.863 -23.034  0.00  0.00    -0.285 N 
ATOM     26  N   UNL     1      32.527 -13.257 -24.018  0.00  0.00    -0.313 N 
ATOM     27  C   UNL     1      33.004 -13.777 -22.828  0.00  0.00    +0.298 C 
ATOM     28  H   UNL     1      34.022 -15.150 -23.959  0.00  0.00    +0.151 HD
ATOM     29  H   UNL     1      31.919 -12.484 -24.008  0.00  0.00    +0.146 HD
ATOM     30  H   UNL     1      32.797 -13.661 -24.875  0.00  0.00    +0.146 HD
ENDBRANCH  23  25
ENDBRANCH  19  23
ENDBRANCH   2  17
BRANCH   3  31
ATOM     31  O   UNL     1      32.274 -20.333 -19.698  0.00  0.00    -0.505 OA
ATOM     32  H   UNL     1      31.592 -20.328 -19.055  0.00  0.00    +0.292 HD
ENDBRANCH   3  31
TORSDOF 5
ENDMDL
MODEL 6
REMARK VINA RESULT:     -11.0      4.348     11.264
REMARK  Name = 15942655
REMARK  5 active torsions:
REMARK  status: ('A' for Active; 'I' for Inactive)
REMARK    1  A    between atoms: C_1  and  C_9
REMARK    2  A    between atoms: C_2  and  C_17
REMARK    3  A    between atoms: C_3  and  O_31
REMARK    4  A    between atoms: C_19  and  C_23
REMARK    5  A    between atoms: C_23  and  N_25
REMARK                            x       y       z     vdW  Elec       q    Type
REMARK                         _______ _______ _______ _____ _____    ______ ____
ROOT
ATOM      1  C   UNL     1      32.138 -11.407 -22.132  0.00  0.00    +0.047 C 
ATOM      2  C   UNL     1      32.004  -9.010 -22.418  0.00  0.00    +0.034 C 
ATOM      3  C   UNL     1      32.582 -10.236 -22.748  0.00  0.00    +0.135 C 
ATOM      4  C   UNL     1      31.114 -11.349 -21.185  0.00  0.00    +0.004 C 
ATOM      5  C   UNL     1      30.981  -8.953 -21.472  0.00  0.00    +0.003 C 
ATOM      6  C   UNL     1      30.536 -10.123 -20.855  0.00  0.00    +0.000 C 
ENDROOT
BRANCH   1   9
ATOM      7  N   UNL     1      32.549 -13.271 -23.684  0.00  0.00    -0.312 N 
ATOM      8  N   UNL     1      34.671 -16.758 -23.255  0.00  0.00    -0.242 NA
ATOM      9  C   UNL     1      32.720 -12.687 -22.457  0.00  0.00    +0.051 C 
ATOM     10  C   UNL     1      33.206 -14.480 -23.729  0.00  0.00    +0.051 C 
ATOM     11  C   UNL     1      33.813 -14.665 -22.486  0.00  0.00    +0.034 C 
ATOM     12  C   UNL     1      33.498 -13.526 -21.693  0.00  0.00    +0.017 C 
ATOM     13  C   UNL     1      33.311 -15.412 -24.757  0.00  0.00    +0.035 C 
ATOM     14  C   UNL     1      34.551 -15.833 -22.273  0.00  0.00    +0.100 C 
ATOM     15  C   UNL     1      34.064 -16.532 -24.443  0.00  0.00    +0.100 C 
ATOM     16  H   UNL     1      32.032 -12.882 -24.426  0.00  0.00    +0.152 HD
ENDBRANCH   1   9
BRANCH   2  17
ATOM     17  C   UNL     1      32.450  -7.782 -23.046  0.00  0.00    +0.003 C 
ATOM     18  C   UNL     1      31.514  -6.856 -23.502  0.00  0.00    -0.003 C 
ATOM     19  C   UNL     1      31.942  -5.674 -24.107  0.00  0.00    -0.003 C 
ATOM     20  C   UNL     1      33.812  -7.531 -23.193  0.00  0.00    +0.000 C 
ATOM     21  C   UNL     1      33.306  -5.421 -24.254  0.00  0.00    -0.003 C 
ATOM     22  C   UNL     1      34.240  -6.350 -23.797  0.00  0.00    -0.000 C 
BRANCH  19  23
ATOM     23  C   UNL     1      30.943  -4.679 -24.595  0.00  0.00    +0.118 C 
BRANCH  23  25
ATOM     24  O   UNL     1      31.675  -2.207 -23.268  0.00  0.00    -0.253 OA
ATOM     25  N   UNL     1      30.248  -4.027 -23.514  0.00  0.00    -0.285 N 
ATOM     26  N   UNL     1      29.831  -2.422 -21.919  0.00  0.00    -0.313 N 
ATOM     27  C   UNL     1      30.673  -2.836 -22.935  0.00  0.00    +0.298 C 
ATOM     28  H   UNL     1      29.429  -4.447 -23.167  0.00  0.00    +0.151 HD
ATOM     29  H   UNL     1      30.023  -1.591 -21.429  0.00  0.00    +0.146 HD
ATOM     30  H   UNL     1      29.039  -2.960 -21.687  0.00  0.00    +0.146 HD
ENDBRANCH  23  25
ENDBRANCH  19  23
ENDBRANCH   2  17
BRANCH   3  31
ATOM     31  O   UNL     1      33.584 -10.291 -23.675  0.00  0.00    -0.505 OA
ATOM     32  H   UNL     1      34.374  -9.805 -23.541  0.00  0.00    +0.292 HD
ENDBRANCH   3  31
TORSDOF 5
ENDMDL
MODEL 7
REMARK VINA RESULT:     -10.9      4.595     11.545
REMARK  Name = 15942655
REMARK  5 active torsions:
REMARK  status: ('A' for Active; 'I' for Inactive)
REMARK    1  A    between atoms: C_1  and  C_9
REMARK    2  A    between atoms: C_2  and  C_17
REMARK    3  A    between atoms: C_3  and  O_31
REMARK    4  A    between atoms: C_19  and  C_23
REMARK    5  A    between atoms: C_23  and  N_25
REMARK                            x       y       z     vdW  Elec       q    Type
REMARK                         _______ _______ _______ _____ _____    ______ ____
ROOT
ATOM      1  C   UNL     1      34.000 -23.347 -15.671  0.00  0.00    +0.047 C 
ATOM      2  C   UNL     1      32.978 -22.074 -17.454  0.00  0.00    +0.034 C 
ATOM      3  C   UNL     1      34.119 -22.572 -16.824  0.00  0.00    +0.135 C 
ATOM      4  C   UNL     1      32.736 -23.626 -15.148  0.00  0.00    +0.004 C 
ATOM      5  C   UNL     1      31.715 -22.352 -16.931  0.00  0.00    +0.003 C 
ATOM      6  C   UNL     1      31.595 -23.128 -15.778  0.00  0.00    +0.000 C 
ENDROOT
BRANCH   1   9
ATOM      7  N   UNL     1      36.436 -23.533 -15.384  0.00  0.00    -0.312 N 
ATOM      8  N   UNL     1      38.713 -25.672 -12.723  0.00  0.00    -0.242 NA
ATOM      9  C   UNL     1      35.166 -23.873 -15.002  0.00  0.00    +0.051 C 
ATOM     10  C   UNL     1      37.358 -24.171 -14.586  0.00  0.00    +0.051 C 
ATOM     11  C   UNL     1      36.643 -24.941 -13.667  0.00  0.00    +0.034 C 
ATOM     12  C   UNL     1      35.261 -24.744 -13.942  0.00  0.00    +0.017 C 
ATOM     13  C   UNL     1      38.749 -24.127 -14.601  0.00  0.00    +0.035 C 
ATOM     14  C   UNL     1      37.358 -25.695 -12.731  0.00  0.00    +0.100 C 
ATOM     15  C   UNL     1      39.359 -24.909 -13.633  0.00  0.00    +0.100 C 
ATOM     16  H   UNL     1      36.658 -22.921 -16.123  0.00  0.00    +0.152 HD
ENDBRANCH   1   9
BRANCH   2  17
ATOM     17  C   UNL     1      33.079 -21.266 -18.654  0.00  0.00    +0.003 C 
ATOM     18  C   UNL     1      34.326 -20.820 -19.087  0.00  0.00    -0.003 C 
ATOM     19  C   UNL     1      34.423 -20.042 -20.242  0.00  0.00    -0.003 C 
ATOM     20  C   UNL     1      31.930 -20.939 -19.369  0.00  0.00    +0.000 C 
ATOM     21  C   UNL     1      33.273 -19.714 -20.960  0.00  0.00    -0.003 C 
ATOM     22  C   UNL     1      32.027 -20.163 -20.523  0.00  0.00    -0.000 C 
BRANCH  19  23
ATOM     23  C   UNL     1      35.756 -19.563 -20.710  0.00  0.00    +0.118 C 
BRANCH  23  25
ATOM     24  O   UNL     1      35.019 -16.769 -20.466  0.00  0.00    -0.253 OA
ATOM     25  N   UNL     1      35.647 -18.591 -21.768  0.00  0.00    -0.285 N 
ATOM     26  N   UNL     1      35.255 -16.542 -22.737  0.00  0.00    -0.313 N 
ATOM     27  C   UNL     1      35.285 -17.265 -21.559  0.00  0.00    +0.298 C 
ATOM     28  H   UNL     1      35.839 -18.882 -22.688  0.00  0.00    +0.151 HD
ATOM     29  H   UNL     1      35.013 -15.588 -22.723  0.00  0.00    +0.146 HD
ATOM     30  H   UNL     1      35.476 -16.982 -23.590  0.00  0.00    +0.146 HD
ENDBRANCH  23  25
ENDBRANCH  19  23
ENDBRANCH   2  17
BRANCH   3  31
ATOM     31  O   UNL     1      35.356 -22.299 -17.338  0.00  0.00    -0.505 OA
ATOM     32  H   UNL     1      35.554 -22.522 -18.226  0.00  0.00    +0.292 HD
ENDBRANCH   3  31
TORSDOF 5
ENDMDL
MODEL 8
REMARK VINA RESULT:     -10.8      4.010      6.360
REMARK  Name = 15942655
REMARK  5 active torsions:
REMARK  status: ('A' for Active; 'I' for Inactive)
REMARK    1  A    between atoms: C_1  and  C_9
REMARK    2  A    between atoms: C_2  and  C_17
REMARK    3  A    between atoms: C_3  and  O_31
REMARK    4  A    between atoms: C_19  and  C_23
REMARK    5  A    between atoms: C_23  and  N_25
REMARK                            x       y       z     vdW  Elec       q    Type
REMARK                         _______ _______ _______ _____ _____    ______ ____
ROOT
ATOM      1  C   UNL     1      31.632  -9.162 -22.708  0.00  0.00    +0.047 C 
ATOM      2  C   UNL     1      31.971 -11.455 -22.023  0.00  0.00    +0.034 C 
ATOM      3  C   UNL     1      32.374 -10.342 -22.761  0.00  0.00    +0.135 C 
ATOM      4  C   UNL     1      30.486  -9.096 -21.913  0.00  0.00    +0.004 C 
ATOM      5  C   UNL     1      30.826 -11.389 -21.229  0.00  0.00    +0.003 C 
ATOM      6  C   UNL     1      30.084 -10.209 -21.175  0.00  0.00    +0.000 C 
ENDROOT
BRANCH   1   9
ATOM      7  N   UNL     1      33.207  -7.344 -23.220  0.00  0.00    -0.312 N 
ATOM      8  N   UNL     1      33.074  -4.321 -25.994  0.00  0.00    -0.242 NA
ATOM      9  C   UNL     1      32.030  -7.997 -23.462  0.00  0.00    +0.051 C 
ATOM     10  C   UNL     1      33.340  -6.274 -24.075  0.00  0.00    +0.051 C 
ATOM     11  C   UNL     1      32.205  -6.253 -24.887  0.00  0.00    +0.034 C 
ATOM     12  C   UNL     1      31.386  -7.345 -24.488  0.00  0.00    +0.017 C 
ATOM     13  C   UNL     1      34.362  -5.336 -24.196  0.00  0.00    +0.035 C 
ATOM     14  C   UNL     1      32.096  -5.248 -25.853  0.00  0.00    +0.100 C 
ATOM     15  C   UNL     1      34.155  -4.386 -25.183  0.00  0.00    +0.100 C 
ATOM     16  H   UNL     1      33.865  -7.601 -22.533  0.00  0.00    +0.152 HD
ENDBRANCH   1   9
BRANCH   2  17
ATOM     17  C   UNL     1      32.728 -12.692 -22.063  0.00  0.00    +0.003 C 
ATOM     18  C   UNL     1      32.847 -13.395 -23.260  0.00  0.00    -0.003 C 
ATOM     19  C   UNL     1      33.574 -14.585 -23.299  0.00  0.00    -0.003 C 
ATOM     20  C   UNL     1      33.333 -13.174 -20.905  0.00  0.00    +0.000 C 
ATOM     21  C   UNL     1      34.181 -15.068 -22.140  0.00  0.00    -0.003 C 
ATOM     22  C   UNL     1      34.060 -14.363 -20.944  0.00  0.00    -0.000 C 
BRANCH  19  23
ATOM     23  C   UNL     1      33.705 -15.339 -24.580  0.00  0.00    +0.118 C 
BRANCH  23  25
ATOM     24  O   UNL     1      32.036 -17.631 -25.186  0.00  0.00    -0.253 OA
ATOM     25  N   UNL     1      34.017 -16.730 -24.366  0.00  0.00    -0.285 N 
ATOM     26  N   UNL     1      33.689 -19.006 -24.384  0.00  0.00    -0.313 N 
ATOM     27  C   UNL     1      33.151 -17.769 -24.688  0.00  0.00    +0.298 C 
ATOM     28  H   UNL     1      34.889 -16.955 -23.970  0.00  0.00    +0.151 HD
ATOM     29  H   UNL     1      33.174 -19.825 -24.565  0.00  0.00    +0.146 HD
ATOM     30  H   UNL     1      34.588 -19.068 -23.986  0.00  0.00    +0.146 HD
ENDBRANCH  23  25
ENDBRANCH  19  23
ENDBRANCH   2  17
BRANCH   3  31
ATOM     31  O   UNL     1      33.496 -10.408 -23.538  0.00  0.00    -0.505 OA
ATOM     32  H   UNL     1      34.089 -11.128 -23.445  0.00  0.00    +0.292 HD
ENDBRANCH   3  31
TORSDOF 5
ENDMDL
MODEL 9
REMARK VINA RESULT:     -10.8      4.349     11.226
REMARK  Name = 15942655
REMARK  5 active torsions:
REMARK  status: ('A' for Active; 'I' for Inactive)
REMARK    1  A    between atoms: C_1  and  C_9
REMARK    2  A    between atoms: C_2  and  C_17
REMARK    3  A    between atoms: C_3  and  O_31
REMARK    4  A    between atoms: C_19  and  C_23
REMARK    5  A    between atoms: C_23  and  N_25
REMARK                            x       y       z     vdW  Elec       q    Type
REMARK                         _______ _______ _______ _____ _____    ______ ____
ROOT
ATOM      1  C   UNL     1      32.095 -11.375 -22.213  0.00  0.00    +0.047 C 
ATOM      2  C   UNL     1      32.010  -8.975 -22.493  0.00  0.00    +0.034 C 
ATOM      3  C   UNL     1      32.600 -10.206 -22.783  0.00  0.00    +0.135 C 
ATOM      4  C   UNL     1      30.998 -11.311 -21.353  0.00  0.00    +0.004 C 
ATOM      5  C   UNL     1      30.914  -8.912 -21.633  0.00  0.00    +0.003 C 
ATOM      6  C   UNL     1      30.408 -10.081 -21.063  0.00  0.00    +0.000 C 
ENDROOT
BRANCH   1   9
ATOM      7  N   UNL     1      32.541 -13.272 -23.713  0.00  0.00    -0.312 N 
ATOM      8  N   UNL     1      34.670 -16.739 -23.167  0.00  0.00    -0.242 NA
ATOM      9  C   UNL     1      32.689 -12.659 -22.498  0.00  0.00    +0.051 C 
ATOM     10  C   UNL     1      33.204 -14.479 -23.719  0.00  0.00    +0.051 C 
ATOM     11  C   UNL     1      33.790 -14.632 -22.461  0.00  0.00    +0.034 C 
ATOM     12  C   UNL     1      33.456 -13.477 -21.701  0.00  0.00    +0.017 C 
ATOM     13  C   UNL     1      33.332 -15.434 -24.723  0.00  0.00    +0.035 C 
ATOM     14  C   UNL     1      34.529 -15.791 -22.208  0.00  0.00    +0.100 C 
ATOM     15  C   UNL     1      34.084 -16.542 -24.370  0.00  0.00    +0.100 C 
ATOM     16  H   UNL     1      32.036 -12.903 -24.474  0.00  0.00    +0.152 HD
ENDBRANCH   1   9
BRANCH   2  17
ATOM     17  C   UNL     1      32.518  -7.748 -23.075  0.00  0.00    +0.003 C 
ATOM     18  C   UNL     1      31.999  -7.285 -24.282  0.00  0.00    -0.003 C 
ATOM     19  C   UNL     1      32.488  -6.104 -24.842  0.00  0.00    -0.003 C 
ATOM     20  C   UNL     1      33.524  -7.036 -22.426  0.00  0.00    +0.000 C 
ATOM     21  C   UNL     1      33.495  -5.390 -24.193  0.00  0.00    -0.003 C 
ATOM     22  C   UNL     1      34.012  -5.856 -22.985  0.00  0.00    -0.000 C 
BRANCH  19  23
ATOM     23  C   UNL     1      31.933  -5.603 -26.133  0.00  0.00    +0.118 C 
BRANCH  23  25
ATOM     24  O   UNL     1      33.263  -3.529 -27.661  0.00  0.00    -0.253 OA
ATOM     25  N   UNL     1      32.854  -5.777 -27.228  0.00  0.00    -0.285 N 
ATOM     26  N   UNL     1      34.290  -5.155 -28.914  0.00  0.00    -0.313 N 
ATOM     27  C   UNL     1      33.448  -4.719 -27.907  0.00  0.00    +0.298 C 
ATOM     28  H   UNL     1      33.074  -6.694 -27.509  0.00  0.00    +0.151 HD
ATOM     29  H   UNL     1      34.772  -4.501 -29.469  0.00  0.00    +0.146 HD
ATOM     30  H   UNL     1      34.407  -6.120 -29.074  0.00  0.00    +0.146 HD
ENDBRANCH  23  25
ENDBRANCH  19  23
ENDBRANCH   2  17
BRANCH   3  31
ATOM     31  O   UNL     1      33.673 -10.266 -23.626  0.00  0.00    -0.505 OA
ATOM     32  H   UNL     1      34.223  -9.516 -23.740  0.00  0.00    +0.292 HD
ENDBRANCH   3  31
TORSDOF 5
ENDMDL
