MODEL 1
REMARK VINA RESULT:     -11.3      0.000      0.000
REMARK  Name = 4447
REMARK  8 active torsions:
REMARK  status: ('A' for Active; 'I' for Inactive)
REMARK    1  A    between atoms: N_1  and  C_15
REMARK    2  A    between atoms: N_2  and  C_7
REMARK    3  A    between atoms: N_3  and  C_28
REMARK    4  A    between atoms: C_12  and  C_14
REMARK    5  A    between atoms: C_15  and  C_16
REMARK    6  A    between atoms: C_15  and  C_22
REMARK    7  A    between atoms: C_28  and  C_30
REMARK    8  A    between atoms: C_30  and  O_31
REMARK                            x       y       z     vdW  Elec       q    Type
REMARK                         _______ _______ _______ _____ _____    ______ ____
ROOT
ATOM      1  N   UNL     1      34.118 -23.168 -14.635  0.00  0.00    -0.340 N 
ATOM      2  N   UNL     1      32.601 -24.069 -13.110  0.00  0.00    -0.325 N 
ATOM      3  N   UNL     1      34.721 -23.378 -12.336  0.00  0.00    -0.227 NA
ATOM      4  C   UNL     1      33.864 -23.520 -13.309  0.00  0.00    +0.200 C 
ATOM      5  H   UNL     1      33.379 -23.306 -15.270  0.00  0.00    +0.164 HD
ATOM      6  H   UNL     1      32.548 -24.764 -12.415  0.00  0.00    +0.169 HD
ENDROOT
BRANCH   2   7
ATOM      7  C   UNL     1      31.384 -23.771 -13.764  0.00  0.00    +0.059 C 
ATOM      8  C   UNL     1      31.075 -22.451 -14.086  0.00  0.00    +0.018 C 
ATOM      9  C   UNL     1      30.498 -24.797 -14.083  0.00  0.00    +0.018 C 
ATOM     10  C   UNL     1      29.874 -22.155 -14.730  0.00  0.00    +0.012 C 
ATOM     11  C   UNL     1      29.296 -24.502 -14.729  0.00  0.00    +0.012 C 
ATOM     12  C   UNL     1      28.985 -23.181 -15.052  0.00  0.00    +0.069 C 
BRANCH  12  14
ATOM     13  N   UNL     1      26.755 -22.633 -16.252  0.00  0.00    -0.191 NA
ATOM     14  C   UNL     1      27.755 -22.878 -15.714  0.00  0.00    +0.100 C 
ENDBRANCH  12  14
ENDBRANCH   2   7
BRANCH   1  15
ATOM     15  C   UNL     1      35.340 -22.624 -15.184  0.00  0.00    +0.125 C 
BRANCH  15  16
ATOM     16  C   UNL     1      35.152 -22.176 -16.622  0.00  0.00    +0.002 C 
ATOM     17  C   UNL     1      36.186 -21.516 -17.260  0.00  0.00    -0.002 C 
ATOM     18  C   UNL     1      33.953 -22.441 -17.255  0.00  0.00    -0.002 C 
ATOM     19  C   UNL     1      36.013 -21.106 -18.581  0.00  0.00    -0.000 C 
ATOM     20  C   UNL     1      33.781 -22.030 -18.578  0.00  0.00    -0.000 C 
ATOM     21  C   UNL     1      34.811 -21.363 -19.241  0.00  0.00    -0.000 C 
ENDBRANCH  15  16
BRANCH  15  22
ATOM     22  C   UNL     1      36.501 -23.590 -15.023  0.00  0.00    +0.002 C 
ATOM     23  C   UNL     1      37.791 -23.095 -15.026  0.00  0.00    -0.002 C 
ATOM     24  C   UNL     1      36.236 -24.938 -14.878  0.00  0.00    -0.002 C 
ATOM     25  C   UNL     1      38.856 -23.983 -14.877  0.00  0.00    -0.000 C 
ATOM     26  C   UNL     1      37.302 -25.826 -14.729  0.00  0.00    -0.000 C 
ATOM     27  C   UNL     1      38.611 -25.348 -14.729  0.00  0.00    -0.000 C 
ENDBRANCH  15  22
ENDBRANCH   1  15
BRANCH   3  28
ATOM     28  C   UNL     1      34.339 -23.811 -11.000  0.00  0.00    +0.237 C 
BRANCH  28  30
ATOM     29  O   UNL     1      36.047 -23.676  -9.270  0.00  0.00    -0.248 OA
ATOM     30  C   UNL     1      35.588 -24.213 -10.268  0.00  0.00    +0.339 C 
BRANCH  30  31
ATOM     31  O   UNL     1      36.157 -25.283 -10.877  0.00  0.00    -0.479 OA
ATOM     32  H   UNL     1      37.077 -25.437 -10.790  0.00  0.00    +0.295 HD
ENDBRANCH  30  31
ENDBRANCH  28  30
ENDBRANCH   3  28
TORSDOF 8
ENDMDL
MODEL 2
REMARK VINA RESULT:      -9.4      2.504      5.684
REMARK  Name = 4447
REMARK  8 active torsions:
REMARK  status: ('A' for Active; 'I' for Inactive)
REMARK    1  A    between atoms: N_1  and  C_15
REMARK    2  A    between atoms: N_2  and  C_7
REMARK    3  A    between atoms: N_3  and  C_28
REMARK    4  A    between atoms: C_12  and  C_14
REMARK    5  A    between atoms: C_15  and  C_16
REMARK    6  A    between atoms: C_15  and  C_22
REMARK    7  A    between atoms: C_28  and  C_30
REMARK    8  A    between atoms: C_30  and  O_31
REMARK                            x       y       z     vdW  Elec       q    Type
REMARK                         _______ _______ _______ _____ _____    ______ ____
ROOT
ATOM      1  N   UNL     1      34.932 -23.172 -15.216  0.00  0.00    -0.340 N 
ATOM      2  N   UNL     1      36.589 -22.037 -16.400  0.00  0.00    -0.325 N 
ATOM      3  N   UNL     1      37.215 -23.833 -15.003  0.00  0.00    -0.227 NA
ATOM      4  C   UNL     1      36.291 -23.067 -15.513  0.00  0.00    +0.200 C 
ATOM      5  H   UNL     1      34.335 -22.546 -15.685  0.00  0.00    +0.164 HD
ATOM      6  H   UNL     1      37.454 -21.590 -16.254  0.00  0.00    +0.169 HD
ENDROOT
BRANCH   2   7
ATOM      7  C   UNL     1      35.826 -21.541 -17.482  0.00  0.00    +0.059 C 
ATOM      8  C   UNL     1      36.414 -20.683 -18.410  0.00  0.00    +0.018 C 
ATOM      9  C   UNL     1      34.490 -21.909 -17.616  0.00  0.00    +0.018 C 
ATOM     10  C   UNL     1      35.662 -20.193 -19.477  0.00  0.00    +0.012 C 
ATOM     11  C   UNL     1      33.737 -21.420 -18.684  0.00  0.00    +0.012 C 
ATOM     12  C   UNL     1      34.324 -20.562 -19.614  0.00  0.00    +0.069 C 
BRANCH  12  14
ATOM     13  N   UNL     1      32.927 -19.650 -21.598  0.00  0.00    -0.191 NA
ATOM     14  C   UNL     1      33.554 -20.060 -20.709  0.00  0.00    +0.100 C 
ENDBRANCH  12  14
ENDBRANCH   2   7
BRANCH   1  15
ATOM     15  C   UNL     1      34.299 -24.095 -14.300  0.00  0.00    +0.125 C 
BRANCH  15  16
ATOM     16  C   UNL     1      32.823 -23.786 -14.131  0.00  0.00    +0.002 C 
ATOM     17  C   UNL     1      32.036 -24.650 -13.393  0.00  0.00    -0.002 C 
ATOM     18  C   UNL     1      32.304 -22.648 -14.720  0.00  0.00    -0.002 C 
ATOM     19  C   UNL     1      30.680 -24.365 -13.237  0.00  0.00    -0.000 C 
ATOM     20  C   UNL     1      30.947 -22.364 -14.564  0.00  0.00    -0.000 C 
ATOM     21  C   UNL     1      30.135 -23.222 -13.823  0.00  0.00    -0.000 C 
ENDBRANCH  15  16
BRANCH  15  22
ATOM     22  C   UNL     1      35.036 -24.155 -12.974  0.00  0.00    +0.002 C 
ATOM     23  C   UNL     1      34.786 -23.184 -12.023  0.00  0.00    -0.002 C 
ATOM     24  C   UNL     1      35.937 -25.179 -12.753  0.00  0.00    -0.002 C 
ATOM     25  C   UNL     1      35.463 -23.241 -10.804  0.00  0.00    -0.000 C 
ATOM     26  C   UNL     1      36.614 -25.235 -11.534  0.00  0.00    -0.000 C 
ATOM     27  C   UNL     1      36.376 -24.266 -10.561  0.00  0.00    -0.000 C 
ENDBRANCH  15  22
ENDBRANCH   1  15
BRANCH   3  28
ATOM     28  C   UNL     1      38.602 -23.598 -15.376  0.00  0.00    +0.237 C 
BRANCH  28  30
ATOM     29  O   UNL     1      39.654 -24.838 -13.565  0.00  0.00    -0.248 OA
ATOM     30  C   UNL     1      39.438 -24.682 -14.758  0.00  0.00    +0.339 C 
BRANCH  30  31
ATOM     31  O   UNL     1      39.936 -25.493 -15.725  0.00  0.00    -0.479 OA
ATOM     32  H   UNL     1      39.961 -26.420 -15.593  0.00  0.00    +0.295 HD
ENDBRANCH  30  31
ENDBRANCH  28  30
ENDBRANCH   3  28
TORSDOF 8
ENDMDL
MODEL 3
REMARK VINA RESULT:      -9.4      3.548      6.614
REMARK  Name = 4447
REMARK  8 active torsions:
REMARK  status: ('A' for Active; 'I' for Inactive)
REMARK    1  A    between atoms: N_1  and  C_15
REMARK    2  A    between atoms: N_2  and  C_7
REMARK    3  A    between atoms: N_3  and  C_28
REMARK    4  A    between atoms: C_12  and  C_14
REMARK    5  A    between atoms: C_15  and  C_16
REMARK    6  A    between atoms: C_15  and  C_22
REMARK    7  A    between atoms: C_28  and  C_30
REMARK    8  A    between atoms: C_30  and  O_31
REMARK                            x       y       z     vdW  Elec       q    Type
REMARK                         _______ _______ _______ _____ _____    ______ ____
ROOT
ATOM      1  N   UNL     1      33.077 -23.127 -16.719  0.00  0.00    -0.340 N 
ATOM      2  N   UNL     1      31.801 -22.011 -18.321  0.00  0.00    -0.325 N 
ATOM      3  N   UNL     1      30.764 -22.699 -16.315  0.00  0.00    -0.227 NA
ATOM      4  C   UNL     1      31.827 -22.614 -17.067  0.00  0.00    +0.200 C 
ATOM      5  H   UNL     1      33.803 -22.978 -17.367  0.00  0.00    +0.164 HD
ATOM      6  H   UNL     1      30.957 -22.105 -18.818  0.00  0.00    +0.169 HD
ENDROOT
BRANCH   2   7
ATOM      7  C   UNL     1      32.815 -21.282 -18.982  0.00  0.00    +0.059 C 
ATOM      8  C   UNL     1      32.471 -20.280 -19.888  0.00  0.00    +0.018 C 
ATOM      9  C   UNL     1      34.155 -21.567 -18.728  0.00  0.00    +0.018 C 
ATOM     10  C   UNL     1      33.471 -19.560 -20.542  0.00  0.00    +0.012 C 
ATOM     11  C   UNL     1      35.156 -20.847 -19.381  0.00  0.00    +0.012 C 
ATOM     12  C   UNL     1      34.813 -19.844 -20.288  0.00  0.00    +0.069 C 
BRANCH  12  14
ATOM     13  N   UNL     1      36.672 -18.506 -21.501  0.00  0.00    -0.191 NA
ATOM     14  C   UNL     1      35.838 -19.105 -20.957  0.00  0.00    +0.100 C 
ENDBRANCH  12  14
ENDBRANCH   2   7
BRANCH   1  15
ATOM     15  C   UNL     1      33.429 -23.853 -15.519  0.00  0.00    +0.125 C 
BRANCH  15  16
ATOM     16  C   UNL     1      32.371 -23.692 -14.442  0.00  0.00    +0.002 C 
ATOM     17  C   UNL     1      32.214 -22.461 -13.833  0.00  0.00    -0.002 C 
ATOM     18  C   UNL     1      31.593 -24.781 -14.099  0.00  0.00    -0.002 C 
ATOM     19  C   UNL     1      31.242 -22.314 -12.845  0.00  0.00    -0.000 C 
ATOM     20  C   UNL     1      30.620 -24.633 -13.110  0.00  0.00    -0.000 C 
ATOM     21  C   UNL     1      30.444 -23.400 -12.483  0.00  0.00    -0.000 C 
ENDBRANCH  15  16
BRANCH  15  22
ATOM     22  C   UNL     1      34.817 -23.479 -15.030  0.00  0.00    +0.002 C 
ATOM     23  C   UNL     1      35.493 -22.448 -15.654  0.00  0.00    -0.002 C 
ATOM     24  C   UNL     1      35.367 -24.179 -13.974  0.00  0.00    -0.002 C 
ATOM     25  C   UNL     1      36.768 -22.105 -15.204  0.00  0.00    -0.000 C 
ATOM     26  C   UNL     1      36.643 -23.835 -13.524  0.00  0.00    -0.000 C 
ATOM     27  C   UNL     1      37.342 -22.799 -14.139  0.00  0.00    -0.000 C 
ENDBRANCH  15  22
ENDBRANCH   1  15
BRANCH   3  28
ATOM     28  C   UNL     1      29.513 -22.144 -16.809  0.00  0.00    +0.237 C 
BRANCH  28  30
ATOM     29  O   UNL     1      27.790 -21.570 -15.188  0.00  0.00    -0.248 OA
ATOM     30  C   UNL     1      28.451 -22.410 -15.782  0.00  0.00    +0.339 C 
BRANCH  30  31
ATOM     31  O   UNL     1      28.313 -23.747 -15.593  0.00  0.00    -0.479 OA
ATOM     32  H   UNL     1      28.305 -24.099 -14.725  0.00  0.00    +0.295 HD
ENDBRANCH  30  31
ENDBRANCH  28  30
ENDBRANCH   3  28
TORSDOF 8
ENDMDL
MODEL 4
REMARK VINA RESULT:      -9.2      3.517      7.035
REMARK  Name = 4447
REMARK  8 active torsions:
REMARK  status: ('A' for Active; 'I' for Inactive)
REMARK    1  A    between atoms: N_1  and  C_15
REMARK    2  A    between atoms: N_2  and  C_7
REMARK    3  A    between atoms: N_3  and  C_28
REMARK    4  A    between atoms: C_12  and  C_14
REMARK    5  A    between atoms: C_15  and  C_16
REMARK    6  A    between atoms: C_15  and  C_22
REMARK    7  A    between atoms: C_28  and  C_30
REMARK    8  A    between atoms: C_30  and  O_31
REMARK                            x       y       z     vdW  Elec       q    Type
REMARK                         _______ _______ _______ _____ _____    ______ ____
ROOT
ATOM      1  N   UNL     1      33.244 -22.388 -16.022  0.00  0.00    -0.340 N 
ATOM      2  N   UNL     1      32.119 -22.218 -18.058  0.00  0.00    -0.325 N 
ATOM      3  N   UNL     1      30.864 -22.552 -16.087  0.00  0.00    -0.227 NA
ATOM      4  C   UNL     1      32.014 -22.388 -16.681  0.00  0.00    +0.200 C 
ATOM      5  H   UNL     1      34.037 -22.233 -16.584  0.00  0.00    +0.164 HD
ATOM      6  H   UNL     1      31.447 -22.697 -18.595  0.00  0.00    +0.169 HD
ENDROOT
BRANCH   2   7
ATOM      7  C   UNL     1      33.053 -21.456 -18.795  0.00  0.00    +0.059 C 
ATOM      8  C   UNL     1      32.605 -20.478 -19.682  0.00  0.00    +0.018 C 
ATOM      9  C   UNL     1      34.418 -21.683 -18.634  0.00  0.00    +0.018 C 
ATOM     10  C   UNL     1      33.525 -19.726 -20.411  0.00  0.00    +0.012 C 
ATOM     11  C   UNL     1      35.339 -20.929 -19.362  0.00  0.00    +0.012 C 
ATOM     12  C   UNL     1      34.893 -19.951 -20.250  0.00  0.00    +0.069 C 
BRANCH  12  14
ATOM     13  N   UNL     1      36.603 -18.551 -21.604  0.00  0.00    -0.191 NA
ATOM     14  C   UNL     1      35.836 -19.179 -20.996  0.00  0.00    +0.100 C 
ENDBRANCH  12  14
ENDBRANCH   2   7
BRANCH   1  15
ATOM     15  C   UNL     1      33.488 -22.590 -14.611  0.00  0.00    +0.125 C 
BRANCH  15  16
ATOM     16  C   UNL     1      34.754 -23.394 -14.376  0.00  0.00    +0.002 C 
ATOM     17  C   UNL     1      34.935 -24.577 -15.067  0.00  0.00    -0.002 C 
ATOM     18  C   UNL     1      35.691 -22.922 -13.478  0.00  0.00    -0.002 C 
ATOM     19  C   UNL     1      36.098 -25.316 -14.851  0.00  0.00    -0.000 C 
ATOM     20  C   UNL     1      36.855 -23.660 -13.263  0.00  0.00    -0.000 C 
ATOM     21  C   UNL     1      37.059 -24.857 -13.949  0.00  0.00    -0.000 C 
ENDBRANCH  15  16
BRANCH  15  22
ATOM     22  C   UNL     1      32.280 -23.193 -13.918  0.00  0.00    +0.002 C 
ATOM     23  C   UNL     1      32.054 -24.552 -14.023  0.00  0.00    -0.002 C 
ATOM     24  C   UNL     1      31.436 -22.366 -13.201  0.00  0.00    -0.002 C 
ATOM     25  C   UNL     1      30.944 -25.105 -13.385  0.00  0.00    -0.000 C 
ATOM     26  C   UNL     1      30.325 -22.920 -12.563  0.00  0.00    -0.000 C 
ATOM     27  C   UNL     1      30.080 -24.288 -12.656  0.00  0.00    -0.000 C 
ENDBRANCH  15  22
ENDBRANCH   1  15
BRANCH   3  28
ATOM     28  C   UNL     1      29.654 -22.558 -16.896  0.00  0.00    +0.237 C 
BRANCH  28  30
ATOM     29  O   UNL     1      27.851 -21.641 -15.542  0.00  0.00    -0.248 OA
ATOM     30  C   UNL     1      28.476 -22.602 -15.967  0.00  0.00    +0.339 C 
BRANCH  30  31
ATOM     31  O   UNL     1      28.183 -23.889 -15.651  0.00  0.00    -0.479 OA
ATOM     32  H   UNL     1      27.354 -24.101 -15.269  0.00  0.00    +0.295 HD
ENDBRANCH  30  31
ENDBRANCH  28  30
ENDBRANCH   3  28
TORSDOF 8
ENDMDL
MODEL 5
REMARK VINA RESULT:      -8.8      2.699      6.424
REMARK  Name = 4447
REMARK  8 active torsions:
REMARK  status: ('A' for Active; 'I' for Inactive)
REMARK    1  A    between atoms: N_1  and  C_15
REMARK    2  A    between atoms: N_2  and  C_7
REMARK    3  A    between atoms: N_3  and  C_28
REMARK    4  A    between atoms: C_12  and  C_14
REMARK    5  A    between atoms: C_15  and  C_16
REMARK    6  A    between atoms: C_15  and  C_22
REMARK    7  A    between atoms: C_28  and  C_30
REMARK    8  A    between atoms: C_30  and  O_31
REMARK                            x       y       z     vdW  Elec       q    Type
REMARK                         _______ _______ _______ _____ _____    ______ ____
ROOT
ATOM      1  N   UNL     1      35.220 -22.258 -15.316  0.00  0.00    -0.340 N 
ATOM      2  N   UNL     1      36.920 -21.594 -16.769  0.00  0.00    -0.325 N 
ATOM      3  N   UNL     1      37.385 -23.247 -15.149  0.00  0.00    -0.227 NA
ATOM      4  C   UNL     1      36.547 -22.421 -15.713  0.00  0.00    +0.200 C 
ATOM      5  H   UNL     1      34.686 -21.617 -15.839  0.00  0.00    +0.164 HD
ATOM      6  H   UNL     1      37.852 -21.280 -16.751  0.00  0.00    +0.169 HD
ENDROOT
BRANCH   2   7
ATOM      7  C   UNL     1      36.149 -21.142 -17.863  0.00  0.00    +0.059 C 
ATOM      8  C   UNL     1      36.621 -20.103 -18.663  0.00  0.00    +0.018 C 
ATOM      9  C   UNL     1      34.919 -21.735 -18.140  0.00  0.00    +0.018 C 
ATOM     10  C   UNL     1      35.861 -19.655 -19.743  0.00  0.00    +0.012 C 
ATOM     11  C   UNL     1      34.158 -21.288 -19.221  0.00  0.00    +0.012 C 
ATOM     12  C   UNL     1      34.630 -20.248 -20.022  0.00  0.00    +0.069 C 
BRANCH  12  14
ATOM     13  N   UNL     1      33.218 -19.417 -22.030  0.00  0.00    -0.191 NA
ATOM     14  C   UNL     1      33.851 -19.790 -21.130  0.00  0.00    +0.100 C 
ENDBRANCH  12  14
ENDBRANCH   2   7
BRANCH   1  15
ATOM     15  C   UNL     1      34.537 -22.921 -14.227  0.00  0.00    +0.125 C 
BRANCH  15  16
ATOM     16  C   UNL     1      35.283 -24.165 -13.780  0.00  0.00    +0.002 C 
ATOM     17  C   UNL     1      35.388 -25.234 -14.649  0.00  0.00    -0.002 C 
ATOM     18  C   UNL     1      35.837 -24.195 -12.514  0.00  0.00    -0.002 C 
ATOM     19  C   UNL     1      36.073 -26.376 -14.238  0.00  0.00    -0.000 C 
ATOM     20  C   UNL     1      36.524 -25.339 -12.103  0.00  0.00    -0.000 C 
ATOM     21  C   UNL     1      36.642 -26.429 -12.965  0.00  0.00    -0.000 C 
ENDBRANCH  15  16
BRANCH  15  22
ATOM     22  C   UNL     1      33.086 -23.205 -14.572  0.00  0.00    +0.002 C 
ATOM     23  C   UNL     1      32.297 -23.872 -13.654  0.00  0.00    -0.002 C 
ATOM     24  C   UNL     1      32.594 -22.791 -15.794  0.00  0.00    -0.002 C 
ATOM     25  C   UNL     1      30.964 -24.132 -13.971  0.00  0.00    -0.000 C 
ATOM     26  C   UNL     1      31.260 -23.052 -16.111  0.00  0.00    -0.000 C 
ATOM     27  C   UNL     1      30.446 -23.722 -15.199  0.00  0.00    -0.000 C 
ENDBRANCH  15  22
ENDBRANCH   1  15
BRANCH   3  28
ATOM     28  C   UNL     1      38.753 -23.300 -15.644  0.00  0.00    +0.237 C 
BRANCH  28  30
ATOM     29  O   UNL     1      39.695 -24.371 -13.671  0.00  0.00    -0.248 OA
ATOM     30  C   UNL     1      39.482 -24.365 -14.875  0.00  0.00    +0.339 C 
BRANCH  30  31
ATOM     31  O   UNL     1      39.884 -25.351 -15.716  0.00  0.00    -0.479 OA
ATOM     32  H   UNL     1      39.350 -25.588 -16.448  0.00  0.00    +0.295 HD
ENDBRANCH  30  31
ENDBRANCH  28  30
ENDBRANCH   3  28
TORSDOF 8
ENDMDL
MODEL 6
REMARK VINA RESULT:      -8.6      2.563      5.641
REMARK  Name = 4447
REMARK  8 active torsions:
REMARK  status: ('A' for Active; 'I' for Inactive)
REMARK    1  A    between atoms: N_1  and  C_15
REMARK    2  A    between atoms: N_2  and  C_7
REMARK    3  A    between atoms: N_3  and  C_28
REMARK    4  A    between atoms: C_12  and  C_14
REMARK    5  A    between atoms: C_15  and  C_16
REMARK    6  A    between atoms: C_15  and  C_22
REMARK    7  A    between atoms: C_28  and  C_30
REMARK    8  A    between atoms: C_30  and  O_31
REMARK                            x       y       z     vdW  Elec       q    Type
REMARK                         _______ _______ _______ _____ _____    ______ ____
ROOT
ATOM      1  N   UNL     1      35.144 -24.217 -14.598  0.00  0.00    -0.340 N 
ATOM      2  N   UNL     1      33.256 -23.258 -15.574  0.00  0.00    -0.325 N 
ATOM      3  N   UNL     1      33.191 -23.829 -13.284  0.00  0.00    -0.227 NA
ATOM      4  C   UNL     1      33.836 -23.767 -14.416  0.00  0.00    +0.200 C 
ATOM      5  H   UNL     1      35.525 -24.094 -15.498  0.00  0.00    +0.164 HD
ATOM      6  H   UNL     1      32.288 -23.413 -15.664  0.00  0.00    +0.169 HD
ENDROOT
BRANCH   2   7
ATOM      7  C   UNL     1      33.858 -22.550 -16.638  0.00  0.00    +0.059 C 
ATOM      8  C   UNL     1      33.133 -22.296 -17.801  0.00  0.00    +0.018 C 
ATOM      9  C   UNL     1      35.174 -22.107 -16.521  0.00  0.00    +0.018 C 
ATOM     10  C   UNL     1      33.727 -21.597 -18.852  0.00  0.00    +0.012 C 
ATOM     11  C   UNL     1      35.768 -21.408 -17.572  0.00  0.00    +0.012 C 
ATOM     12  C   UNL     1      35.044 -21.153 -18.737  0.00  0.00    +0.069 C 
BRANCH  12  14
ATOM     13  N   UNL     1      36.147 -19.854 -20.690  0.00  0.00    -0.191 NA
ATOM     14  C   UNL     1      35.652 -20.436 -19.814  0.00  0.00    +0.100 C 
ENDBRANCH  12  14
ENDBRANCH   2   7
BRANCH   1  15
ATOM     15  C   UNL     1      36.006 -24.843 -13.619  0.00  0.00    +0.125 C 
BRANCH  15  16
ATOM     16  C   UNL     1      35.896 -24.162 -12.267  0.00  0.00    +0.002 C 
ATOM     17  C   UNL     1      36.413 -22.890 -12.112  0.00  0.00    -0.002 C 
ATOM     18  C   UNL     1      35.283 -24.834 -11.227  0.00  0.00    -0.002 C 
ATOM     19  C   UNL     1      36.311 -22.264 -10.870  0.00  0.00    -0.000 C 
ATOM     20  C   UNL     1      35.182 -24.207  -9.984  0.00  0.00    -0.000 C 
ATOM     21  C   UNL     1      35.695 -22.923  -9.805  0.00  0.00    -0.000 C 
ENDBRANCH  15  16
BRANCH  15  22
ATOM     22  C   UNL     1      37.439 -24.927 -14.113  0.00  0.00    +0.002 C 
ATOM     23  C   UNL     1      37.911 -23.954 -14.973  0.00  0.00    -0.002 C 
ATOM     24  C   UNL     1      38.233 -25.975 -13.690  0.00  0.00    -0.002 C 
ATOM     25  C   UNL     1      39.228 -24.032 -15.426  0.00  0.00    -0.000 C 
ATOM     26  C   UNL     1      39.551 -26.053 -14.143  0.00  0.00    -0.000 C 
ATOM     27  C   UNL     1      40.047 -25.082 -15.010  0.00  0.00    -0.000 C 
ENDBRANCH  15  22
ENDBRANCH   1  15
BRANCH   3  28
ATOM     28  C   UNL     1      31.818 -23.348 -13.236  0.00  0.00    +0.237 C 
BRANCH  28  30
ATOM     29  O   UNL     1      30.873 -25.333 -14.282  0.00  0.00    -0.248 OA
ATOM     30  C   UNL     1      30.907 -24.536 -13.355  0.00  0.00    +0.339 C 
BRANCH  30  31
ATOM     31  O   UNL     1      30.102 -24.614 -12.265  0.00  0.00    -0.479 OA
ATOM     32  H   UNL     1      29.899 -25.449 -11.892  0.00  0.00    +0.295 HD
ENDBRANCH  30  31
ENDBRANCH  28  30
ENDBRANCH   3  28
TORSDOF 8
ENDMDL
MODEL 7
REMARK VINA RESULT:      -8.5      1.015      3.486
REMARK  Name = 4447
REMARK  8 active torsions:
REMARK  status: ('A' for Active; 'I' for Inactive)
REMARK    1  A    between atoms: N_1  and  C_15
REMARK    2  A    between atoms: N_2  and  C_7
REMARK    3  A    between atoms: N_3  and  C_28
REMARK    4  A    between atoms: C_12  and  C_14
REMARK    5  A    between atoms: C_15  and  C_16
REMARK    6  A    between atoms: C_15  and  C_22
REMARK    7  A    between atoms: C_28  and  C_30
REMARK    8  A    between atoms: C_30  and  O_31
REMARK                            x       y       z     vdW  Elec       q    Type
REMARK                         _______ _______ _______ _____ _____    ______ ____
ROOT
ATOM      1  N   UNL     1      34.438 -24.084 -14.602  0.00  0.00    -0.340 N 
ATOM      2  N   UNL     1      33.035 -23.756 -12.769  0.00  0.00    -0.325 N 
ATOM      3  N   UNL     1      35.321 -23.207 -12.567  0.00  0.00    -0.227 NA
ATOM      4  C   UNL     1      34.324 -23.651 -13.281  0.00  0.00    +0.200 C 
ATOM      5  H   UNL     1      33.604 -24.376 -15.037  0.00  0.00    +0.164 HD
ATOM      6  H   UNL     1      32.977 -23.971 -11.810  0.00  0.00    +0.169 HD
ENDROOT
BRANCH   2   7
ATOM      7  C   UNL     1      31.795 -23.596 -13.430  0.00  0.00    +0.059 C 
ATOM      8  C   UNL     1      31.495 -22.389 -14.060  0.00  0.00    +0.018 C 
ATOM      9  C   UNL     1      30.878 -24.644 -13.449  0.00  0.00    +0.018 C 
ATOM     10  C   UNL     1      30.272 -22.230 -14.711  0.00  0.00    +0.012 C 
ATOM     11  C   UNL     1      29.654 -24.485 -14.101  0.00  0.00    +0.012 C 
ATOM     12  C   UNL     1      29.352 -23.279 -14.732  0.00  0.00    +0.069 C 
BRANCH  12  14
ATOM     13  N   UNL     1      27.082 -22.985 -15.946  0.00  0.00    -0.191 NA
ATOM     14  C   UNL     1      28.100 -23.116 -15.401  0.00  0.00    +0.100 C 
ENDBRANCH  12  14
ENDBRANCH   2   7
BRANCH   1  15
ATOM     15  C   UNL     1      35.637 -24.155 -15.407  0.00  0.00    +0.125 C 
BRANCH  15  16
ATOM     16  C   UNL     1      36.811 -24.693 -14.610  0.00  0.00    +0.002 C 
ATOM     17  C   UNL     1      38.044 -24.080 -14.734  0.00  0.00    -0.002 C 
ATOM     18  C   UNL     1      36.616 -25.781 -13.781  0.00  0.00    -0.002 C 
ATOM     19  C   UNL     1      39.122 -24.575 -14.000  0.00  0.00    -0.000 C 
ATOM     20  C   UNL     1      37.695 -26.275 -13.047  0.00  0.00    -0.000 C 
ATOM     21  C   UNL     1      38.947 -25.672 -13.156  0.00  0.00    -0.000 C 
ENDBRANCH  15  16
BRANCH  15  22
ATOM     22  C   UNL     1      35.944 -22.822 -16.065  0.00  0.00    +0.002 C 
ATOM     23  C   UNL     1      36.958 -22.036 -15.550  0.00  0.00    -0.002 C 
ATOM     24  C   UNL     1      35.202 -22.429 -17.162  0.00  0.00    -0.002 C 
ATOM     25  C   UNL     1      37.239 -20.812 -16.156  0.00  0.00    -0.000 C 
ATOM     26  C   UNL     1      35.484 -21.204 -17.768  0.00  0.00    -0.000 C 
ATOM     27  C   UNL     1      36.502 -20.396 -17.264  0.00  0.00    -0.000 C 
ENDBRANCH  15  22
ENDBRANCH   1  15
BRANCH   3  28
ATOM     28  C   UNL     1      35.072 -22.811 -11.189  0.00  0.00    +0.237 C 
BRANCH  28  30
ATOM     29  O   UNL     1      34.970 -24.533  -9.471  0.00  0.00    -0.248 OA
ATOM     30  C   UNL     1      35.608 -23.890 -10.292  0.00  0.00    +0.339 C 
BRANCH  30  31
ATOM     31  O   UNL     1      36.934 -24.066 -10.521  0.00  0.00    -0.479 OA
ATOM     32  H   UNL     1      37.559 -23.797  -9.877  0.00  0.00    +0.295 HD
ENDBRANCH  30  31
ENDBRANCH  28  30
ENDBRANCH   3  28
TORSDOF 8
ENDMDL
