MODEL 1
REMARK VINA RESULT:     -11.6      0.000      0.000
REMARK  Name = 24905152
REMARK  2 active torsions:
REMARK  status: ('A' for Active; 'I' for Inactive)
REMARK    1  A    between atoms: N_1  and  C_23
REMARK    2  A    between atoms: C_7  and  C_11
REMARK                            x       y       z     vdW  Elec       q    Type
REMARK                         _______ _______ _______ _____ _____    ______ ____
ROOT
ATOM      1  N   UNL     1      34.849 -23.496 -15.406  0.00  0.00    -0.200 N 
ATOM      2  N   UNL     1      35.176 -22.792 -16.505  0.00  0.00    -0.181 NA
ATOM      3  N   UNL     1      32.888 -24.183 -14.162  0.00  0.00    -0.232 NA
ATOM      4  N   UNL     1      30.834 -23.362 -15.192  0.00  0.00    -0.234 NA
ATOM      5  C   UNL     1      32.911 -22.839 -16.199  0.00  0.00    +0.150 C 
ATOM      6  C   UNL     1      33.506 -23.556 -15.176  0.00  0.00    +0.137 C 
ATOM      7  C   UNL     1      33.992 -22.395 -16.984  0.00  0.00    +0.086 C 
ATOM      8  C   UNL     1      31.523 -22.751 -16.187  0.00  0.00    +0.112 C 
ATOM      9  C   UNL     1      31.549 -24.030 -14.255  0.00  0.00    +0.252 C 
ATOM     10  N   UNL     1      30.827 -22.046 -17.184  0.00  0.00    -0.346 N 
ATOM     11  H   UNL     1      29.844 -21.997 -17.156  0.00  0.00    +0.143 HD
ATOM     12  H   UNL     1      31.322 -21.602 -17.910  0.00  0.00    +0.143 HD
ENDROOT
BRANCH   7  14
ATOM     13  N   UNL     1      33.734 -19.298 -21.647  0.00  0.00    -0.248 NA
ATOM     14  C   UNL     1      33.936 -21.601 -18.178  0.00  0.00    -0.006 C 
ATOM     15  C   UNL     1      35.083 -20.974 -18.657  0.00  0.00    +0.055 C 
ATOM     16  C   UNL     1      32.736 -21.451 -18.863  0.00  0.00    -0.022 C 
ATOM     17  C   UNL     1      35.032 -20.193 -19.824  0.00  0.00    -0.004 C 
ATOM     18  C   UNL     1      33.818 -20.038 -20.526  0.00  0.00    +0.060 C 
ATOM     19  C   UNL     1      32.687 -20.676 -20.024  0.00  0.00    +0.071 C 
ATOM     20  C   UNL     1      36.172 -19.552 -20.329  0.00  0.00    -0.001 C 
ATOM     21  C   UNL     1      36.088 -18.789 -21.485  0.00  0.00    +0.020 C 
ATOM     22  C   UNL     1      34.857 -18.694 -22.100  0.00  0.00    +0.098 C 
ENDBRANCH   7  14
BRANCH   1  23
ATOM     23  C   UNL     1      35.892 -24.096 -14.608  0.00  0.00    +0.098 C 
ATOM     24  C   UNL     1      37.217 -23.343 -14.755  0.00  0.00    +0.024 C 
ATOM     25  C   UNL     1      36.069 -25.580 -14.936  0.00  0.00    +0.024 C 
ENDBRANCH   1  23
TORSDOF 2
ENDMDL
MODEL 2
REMARK VINA RESULT:     -11.6      3.925      9.425
REMARK  Name = 24905152
REMARK  2 active torsions:
REMARK  status: ('A' for Active; 'I' for Inactive)
REMARK    1  A    between atoms: N_1  and  C_23
REMARK    2  A    between atoms: C_7  and  C_11
REMARK                            x       y       z     vdW  Elec       q    Type
REMARK                         _______ _______ _______ _____ _____    ______ ____
ROOT
ATOM      1  N   UNL     1      33.817 -14.192 -21.941  0.00  0.00    -0.200 N 
ATOM      2  N   UNL     1      34.208 -15.160 -21.092  0.00  0.00    -0.181 NA
ATOM      3  N   UNL     1      33.216 -13.902 -24.269  0.00  0.00    -0.232 NA
ATOM      4  N   UNL     1      33.343 -16.004 -25.501  0.00  0.00    -0.234 NA
ATOM      5  C   UNL     1      33.880 -15.991 -23.196  0.00  0.00    +0.150 C 
ATOM      6  C   UNL     1      33.607 -14.634 -23.214  0.00  0.00    +0.137 C 
ATOM      7  C   UNL     1      34.243 -16.254 -21.861  0.00  0.00    +0.086 C 
ATOM      8  C   UNL     1      33.736 -16.681 -24.395  0.00  0.00    +0.112 C 
ATOM      9  C   UNL     1      33.111 -14.676 -25.371  0.00  0.00    +0.252 C 
ATOM     10  N   UNL     1      33.988 -18.062 -24.477  0.00  0.00    -0.346 N 
ATOM     11  H   UNL     1      33.880 -18.531 -25.337  0.00  0.00    +0.143 HD
ATOM     12  H   UNL     1      34.272 -18.560 -23.677  0.00  0.00    +0.143 HD
ENDROOT
BRANCH   7  14
ATOM     13  N   UNL     1      35.774 -21.165 -19.640  0.00  0.00    -0.248 NA
ATOM     14  C   UNL     1      34.626 -17.514 -21.293  0.00  0.00    -0.006 C 
ATOM     15  C   UNL     1      33.654 -18.407 -20.851  0.00  0.00    +0.055 C 
ATOM     16  C   UNL     1      35.969 -17.851 -21.176  0.00  0.00    -0.022 C 
ATOM     17  C   UNL     1      34.023 -19.642 -20.291  0.00  0.00    -0.004 C 
ATOM     18  C   UNL     1      35.385 -19.991 -20.171  0.00  0.00    +0.060 C 
ATOM     19  C   UNL     1      36.336 -19.079 -20.621  0.00  0.00    +0.071 C 
ATOM     20  C   UNL     1      33.065 -20.559 -19.839  0.00  0.00    -0.001 C 
ATOM     21  C   UNL     1      33.463 -21.770 -19.292  0.00  0.00    +0.020 C 
ATOM     22  C   UNL     1      34.817 -22.023 -19.215  0.00  0.00    +0.098 C 
ENDBRANCH   7  14
BRANCH   1  23
ATOM     23  C   UNL     1      33.663 -12.840 -21.457  0.00  0.00    +0.098 C 
ATOM     24  C   UNL     1      32.448 -12.708 -20.536  0.00  0.00    +0.024 C 
ATOM     25  C   UNL     1      33.585 -11.836 -22.609  0.00  0.00    +0.024 C 
ENDBRANCH   1  23
TORSDOF 2
ENDMDL
MODEL 3
REMARK VINA RESULT:     -11.2      3.631      6.108
REMARK  Name = 24905152
REMARK  2 active torsions:
REMARK  status: ('A' for Active; 'I' for Inactive)
REMARK    1  A    between atoms: N_1  and  C_23
REMARK    2  A    between atoms: C_7  and  C_11
REMARK                            x       y       z     vdW  Elec       q    Type
REMARK                         _______ _______ _______ _____ _____    ______ ____
ROOT
ATOM      1  N   UNL     1      35.607 -23.222 -12.738  0.00  0.00    -0.200 N 
ATOM      2  N   UNL     1      34.306 -23.545 -12.617  0.00  0.00    -0.181 NA
ATOM      3  N   UNL     1      37.171 -22.434 -14.410  0.00  0.00    -0.232 NA
ATOM      4  N   UNL     1      36.090 -22.109 -16.573  0.00  0.00    -0.234 NA
ATOM      5  C   UNL     1      34.795 -22.877 -14.747  0.00  0.00    +0.150 C 
ATOM      6  C   UNL     1      35.954 -22.816 -13.992  0.00  0.00    +0.137 C 
ATOM      7  C   UNL     1      33.817 -23.332 -13.843  0.00  0.00    +0.086 C 
ATOM      8  C   UNL     1      34.890 -22.505 -16.084  0.00  0.00    +0.112 C 
ATOM      9  C   UNL     1      37.141 -22.098 -15.719  0.00  0.00    +0.252 C 
ATOM     10  N   UNL     1      33.768 -22.532 -16.931  0.00  0.00    -0.346 N 
ATOM     11  H   UNL     1      33.858 -22.265 -17.875  0.00  0.00    +0.143 HD
ATOM     12  H   UNL     1      32.894 -22.818 -16.582  0.00  0.00    +0.143 HD
ENDROOT
BRANCH   7  14
ATOM     13  N   UNL     1      28.391 -24.302 -14.853  0.00  0.00    -0.248 NA
ATOM     14  C   UNL     1      32.427 -23.574 -14.108  0.00  0.00    -0.006 C 
ATOM     15  C   UNL     1      31.726 -22.745 -14.980  0.00  0.00    +0.055 C 
ATOM     16  C   UNL     1      31.772 -24.635 -13.496  0.00  0.00    -0.022 C 
ATOM     17  C   UNL     1      30.365 -22.975 -15.241  0.00  0.00    -0.004 C 
ATOM     18  C   UNL     1      29.694 -24.051 -14.624  0.00  0.00    +0.060 C 
ATOM     19  C   UNL     1      30.419 -24.864 -13.757  0.00  0.00    +0.071 C 
ATOM     20  C   UNL     1      29.636 -22.156 -16.115  0.00  0.00    -0.001 C 
ATOM     21  C   UNL     1      28.294 -22.412 -16.352  0.00  0.00    +0.020 C 
ATOM     22  C   UNL     1      27.723 -23.486 -15.702  0.00  0.00    +0.098 C 
ENDBRANCH   7  14
BRANCH   1  23
ATOM     23  C   UNL     1      36.477 -23.328 -11.590  0.00  0.00    +0.098 C 
ATOM     24  C   UNL     1      37.488 -24.466 -11.755  0.00  0.00    +0.024 C 
ATOM     25  C   UNL     1      35.681 -23.488 -10.294  0.00  0.00    +0.024 C 
ENDBRANCH   1  23
TORSDOF 2
ENDMDL
MODEL 4
REMARK VINA RESULT:     -11.1      8.805     13.029
REMARK  Name = 24905152
REMARK  2 active torsions:
REMARK  status: ('A' for Active; 'I' for Inactive)
REMARK    1  A    between atoms: N_1  and  C_23
REMARK    2  A    between atoms: C_7  and  C_11
REMARK                            x       y       z     vdW  Elec       q    Type
REMARK                         _______ _______ _______ _____ _____    ______ ____
ROOT
ATOM      1  N   UNL     1      33.076  -8.738 -23.216  0.00  0.00    -0.200 N 
ATOM      2  N   UNL     1      33.477  -9.845 -23.869  0.00  0.00    -0.181 NA
ATOM      3  N   UNL     1      31.688  -8.098 -21.337  0.00  0.00    -0.232 NA
ATOM      4  N   UNL     1      30.679 -10.040 -20.259  0.00  0.00    -0.234 NA
ATOM      5  C   UNL     1      32.089 -10.371 -22.130  0.00  0.00    +0.150 C 
ATOM      6  C   UNL     1      32.244  -8.996 -22.166  0.00  0.00    +0.137 C 
ATOM      7  C   UNL     1      32.873 -10.836 -23.203  0.00  0.00    +0.086 C 
ATOM      8  C   UNL     1      31.272 -10.890 -21.132  0.00  0.00    +0.112 C 
ATOM      9  C   UNL     1      30.920  -8.717 -20.413  0.00  0.00    +0.252 C 
ATOM     10  N   UNL     1      31.055 -12.274 -21.012  0.00  0.00    -0.346 N 
ATOM     11  H   UNL     1      30.472 -12.620 -20.297  0.00  0.00    +0.143 HD
ATOM     12  H   UNL     1      31.484 -12.896 -21.642  0.00  0.00    +0.143 HD
ENDROOT
BRANCH   7  14
ATOM     13  N   UNL     1      33.620 -16.136 -24.860  0.00  0.00    -0.248 NA
ATOM     14  C   UNL     1      33.067 -12.195 -23.619  0.00  0.00    -0.006 C 
ATOM     15  C   UNL     1      33.632 -13.121 -22.745  0.00  0.00    +0.055 C 
ATOM     16  C   UNL     1      32.694 -12.597 -24.896  0.00  0.00    -0.022 C 
ATOM     17  C   UNL     1      33.826 -14.453 -23.148  0.00  0.00    -0.004 C 
ATOM     18  C   UNL     1      33.449 -14.868 -24.442  0.00  0.00    +0.060 C 
ATOM     19  C   UNL     1      32.886 -13.922 -25.295  0.00  0.00    +0.071 C 
ATOM     20  C   UNL     1      34.393 -15.404 -22.289  0.00  0.00    -0.001 C 
ATOM     21  C   UNL     1      34.570 -16.712 -22.717  0.00  0.00    +0.020 C 
ATOM     22  C   UNL     1      34.171 -17.024 -24.000  0.00  0.00    +0.098 C 
ENDBRANCH   7  14
BRANCH   1  23
ATOM     23  C   UNL     1      33.537  -7.444 -23.658  0.00  0.00    +0.098 C 
ATOM     24  C   UNL     1      34.192  -6.660 -22.518  0.00  0.00    +0.024 C 
ATOM     25  C   UNL     1      32.408  -6.633 -24.298  0.00  0.00    +0.024 C 
ENDBRANCH   1  23
TORSDOF 2
ENDMDL
MODEL 5
REMARK VINA RESULT:     -11.0      2.025      3.441
REMARK  Name = 24905152
REMARK  2 active torsions:
REMARK  status: ('A' for Active; 'I' for Inactive)
REMARK    1  A    between atoms: N_1  and  C_23
REMARK    2  A    between atoms: C_7  and  C_11
REMARK                            x       y       z     vdW  Elec       q    Type
REMARK                         _______ _______ _______ _____ _____    ______ ____
ROOT
ATOM      1  N   UNL     1      37.138 -24.403 -14.076  0.00  0.00    -0.200 N 
ATOM      2  N   UNL     1      36.652 -23.986 -15.259  0.00  0.00    -0.181 NA
ATOM      3  N   UNL     1      36.473 -24.559 -11.752  0.00  0.00    -0.232 NA
ATOM      4  N   UNL     1      34.216 -23.701 -11.401  0.00  0.00    -0.234 NA
ATOM      5  C   UNL     1      35.128 -23.671 -13.585  0.00  0.00    +0.150 C 
ATOM      6  C   UNL     1      36.267 -24.238 -13.039  0.00  0.00    +0.137 C 
ATOM      7  C   UNL     1      35.428 -23.542 -14.954  0.00  0.00    +0.086 C 
ATOM      8  C   UNL     1      34.077 -23.402 -12.715  0.00  0.00    +0.112 C 
ATOM      9  C   UNL     1      35.389 -24.253 -11.007  0.00  0.00    +0.252 C 
ATOM     10  N   UNL     1      32.878 -22.829 -13.174  0.00  0.00    -0.346 N 
ATOM     11  H   UNL     1      32.146 -22.646 -12.541  0.00  0.00    +0.143 HD
ATOM     12  H   UNL     1      32.770 -22.610 -14.128  0.00  0.00    +0.143 HD
ENDROOT
BRANCH   7  14
ATOM     13  N   UNL     1      32.108 -21.464 -18.962  0.00  0.00    -0.248 NA
ATOM     14  C   UNL     1      34.585 -23.007 -15.985  0.00  0.00    -0.006 C 
ATOM     15  C   UNL     1      35.132 -22.233 -17.006  0.00  0.00    +0.055 C 
ATOM     16  C   UNL     1      33.218 -23.255 -15.972  0.00  0.00    -0.022 C 
ATOM     17  C   UNL     1      34.312 -21.705 -18.016  0.00  0.00    -0.004 C 
ATOM     18  C   UNL     1      32.923 -21.954 -18.009  0.00  0.00    +0.060 C 
ATOM     19  C   UNL     1      32.403 -22.731 -16.977  0.00  0.00    +0.071 C 
ATOM     20  C   UNL     1      34.837 -20.924 -19.055  0.00  0.00    -0.001 C 
ATOM     21  C   UNL     1      33.999 -20.418 -20.038  0.00  0.00    +0.020 C 
ATOM     22  C   UNL     1      32.655 -20.714 -19.947  0.00  0.00    +0.098 C 
ENDBRANCH   7  14
BRANCH   1  23
ATOM     23  C   UNL     1      38.468 -24.960 -14.008  0.00  0.00    +0.098 C 
ATOM     24  C   UNL     1      39.421 -24.260 -14.981  0.00  0.00    +0.024 C 
ATOM     25  C   UNL     1      38.459 -26.471 -14.247  0.00  0.00    +0.024 C 
ENDBRANCH   1  23
TORSDOF 2
ENDMDL
MODEL 6
REMARK VINA RESULT:     -10.7      0.987      1.761
REMARK  Name = 24905152
REMARK  2 active torsions:
REMARK  status: ('A' for Active; 'I' for Inactive)
REMARK    1  A    between atoms: N_1  and  C_23
REMARK    2  A    between atoms: C_7  and  C_11
REMARK                            x       y       z     vdW  Elec       q    Type
REMARK                         _______ _______ _______ _____ _____    ______ ____
ROOT
ATOM      1  N   UNL     1      34.538 -23.867 -14.675  0.00  0.00    -0.200 N 
ATOM      2  N   UNL     1      35.169 -23.203 -15.661  0.00  0.00    -0.181 NA
ATOM      3  N   UNL     1      32.291 -24.359 -13.917  0.00  0.00    -0.232 NA
ATOM      4  N   UNL     1      30.609 -23.354 -15.372  0.00  0.00    -0.234 NA
ATOM      5  C   UNL     1      32.900 -23.035 -15.875  0.00  0.00    +0.150 C 
ATOM      6  C   UNL     1      33.178 -23.799 -14.755  0.00  0.00    +0.137 C 
ATOM      7  C   UNL     1      34.166 -22.699 -16.389  0.00  0.00    +0.086 C 
ATOM      8  C   UNL     1      31.559 -22.817 -16.175  0.00  0.00    +0.112 C 
ATOM      9  C   UNL     1      31.028 -24.081 -14.308  0.00  0.00    +0.252 C 
ATOM     10  N   UNL     1      31.175 -22.056 -17.293  0.00  0.00    -0.346 N 
ATOM     11  H   UNL     1      30.220 -21.914 -17.487  0.00  0.00    +0.143 HD
ATOM     12  H   UNL     1      31.860 -21.664 -17.881  0.00  0.00    +0.143 HD
ENDROOT
BRANCH   7  14
ATOM     13  N   UNL     1      35.333 -19.627 -20.928  0.00  0.00    -0.248 NA
ATOM     14  C   UNL     1      34.456 -21.911 -17.553  0.00  0.00    -0.006 C 
ATOM     15  C   UNL     1      33.422 -21.472 -18.376  0.00  0.00    +0.055 C 
ATOM     16  C   UNL     1      35.769 -21.582 -17.867  0.00  0.00    -0.022 C 
ATOM     17  C   UNL     1      33.700 -20.702 -19.518  0.00  0.00    -0.004 C 
ATOM     18  C   UNL     1      35.030 -20.363 -19.842  0.00  0.00    +0.060 C 
ATOM     19  C   UNL     1      36.044 -20.815 -19.001  0.00  0.00    +0.071 C 
ATOM     20  C   UNL     1      32.679 -20.248 -20.363  0.00  0.00    -0.001 C 
ATOM     21  C   UNL     1      32.987 -19.488 -21.483  0.00  0.00    +0.020 C 
ATOM     22  C   UNL     1      34.317 -19.208 -21.719  0.00  0.00    +0.098 C 
ENDBRANCH   7  14
BRANCH   1  23
ATOM     23  C   UNL     1      35.313 -24.557 -13.672  0.00  0.00    +0.098 C 
ATOM     24  C   UNL     1      35.581 -23.666 -12.457  0.00  0.00    +0.024 C 
ATOM     25  C   UNL     1      36.621 -25.103 -14.248  0.00  0.00    +0.024 C 
ENDBRANCH   1  23
TORSDOF 2
ENDMDL
MODEL 7
REMARK VINA RESULT:     -10.7      1.899      6.449
REMARK  Name = 24905152
REMARK  2 active torsions:
REMARK  status: ('A' for Active; 'I' for Inactive)
REMARK    1  A    between atoms: N_1  and  C_23
REMARK    2  A    between atoms: C_7  and  C_11
REMARK                            x       y       z     vdW  Elec       q    Type
REMARK                         _______ _______ _______ _____ _____    ______ ____
ROOT
ATOM      1  N   UNL     1      33.031 -22.201 -17.874  0.00  0.00    -0.200 N 
ATOM      2  N   UNL     1      34.162 -22.637 -17.288  0.00  0.00    -0.181 NA
ATOM      3  N   UNL     1      30.664 -21.996 -17.404  0.00  0.00    -0.232 NA
ATOM      4  N   UNL     1      30.111 -22.828 -15.179  0.00  0.00    -0.234 NA
ATOM      5  C   UNL     1      32.362 -22.907 -15.906  0.00  0.00    +0.150 C 
ATOM      6  C   UNL     1      31.923 -22.340 -17.090  0.00  0.00    +0.137 C 
ATOM      7  C   UNL     1      33.749 -23.065 -16.090  0.00  0.00    +0.086 C 
ATOM      8  C   UNL     1      31.403 -23.151 -14.929  0.00  0.00    +0.112 C 
ATOM      9  C   UNL     1      29.826 -22.279 -16.383  0.00  0.00    +0.252 C 
ATOM     10  N   UNL     1      31.750 -23.723 -13.692  0.00  0.00    -0.346 N 
ATOM     11  H   UNL     1      31.055 -23.888 -13.014  0.00  0.00    +0.143 HD
ATOM     12  H   UNL     1      32.687 -23.959 -13.504  0.00  0.00    +0.143 HD
ENDROOT
BRANCH   7  14
ATOM     13  N   UNL     1      37.449 -25.234 -12.485  0.00  0.00    -0.248 NA
ATOM     14  C   UNL     1      34.696 -23.612 -15.162  0.00  0.00    -0.006 C 
ATOM     15  C   UNL     1      35.261 -22.803 -14.179  0.00  0.00    +0.055 C 
ATOM     16  C   UNL     1      35.058 -24.952 -15.239  0.00  0.00    -0.022 C 
ATOM     17  C   UNL     1      36.191 -23.334 -13.270  0.00  0.00    -0.004 C 
ATOM     18  C   UNL     1      36.562 -24.693 -13.341  0.00  0.00    +0.060 C 
ATOM     19  C   UNL     1      35.981 -25.478 -14.333  0.00  0.00    +0.071 C 
ATOM     20  C   UNL     1      36.775 -22.542 -12.271  0.00  0.00    -0.001 C 
ATOM     21  C   UNL     1      37.689 -23.097 -11.387  0.00  0.00    +0.020 C 
ATOM     22  C   UNL     1      37.990 -24.435 -11.536  0.00  0.00    +0.098 C 
ENDBRANCH   7  14
BRANCH   1  23
ATOM     23  C   UNL     1      33.085 -21.655 -19.209  0.00  0.00    +0.098 C 
ATOM     24  C   UNL     1      34.519 -21.309 -19.618  0.00  0.00    +0.024 C 
ATOM     25  C   UNL     1      32.168 -20.439 -19.356  0.00  0.00    +0.024 C 
ENDBRANCH   1  23
TORSDOF 2
ENDMDL
MODEL 8
REMARK VINA RESULT:     -10.5      2.152      6.575
REMARK  Name = 24905152
REMARK  2 active torsions:
REMARK  status: ('A' for Active; 'I' for Inactive)
REMARK    1  A    between atoms: N_1  and  C_23
REMARK    2  A    between atoms: C_7  and  C_11
REMARK                            x       y       z     vdW  Elec       q    Type
REMARK                         _______ _______ _______ _____ _____    ______ ____
ROOT
ATOM      1  N   UNL     1      31.642 -22.816 -16.154  0.00  0.00    -0.200 N 
ATOM      2  N   UNL     1      32.544 -23.249 -15.254  0.00  0.00    -0.181 NA
ATOM      3  N   UNL     1      31.560 -21.686 -18.295  0.00  0.00    -0.232 NA
ATOM      4  N   UNL     1      33.793 -21.145 -19.115  0.00  0.00    -0.234 NA
ATOM      5  C   UNL     1      33.572 -22.256 -17.037  0.00  0.00    +0.150 C 
ATOM      6  C   UNL     1      32.204 -22.213 -17.241  0.00  0.00    +0.137 C 
ATOM      7  C   UNL     1      33.717 -22.906 -15.797  0.00  0.00    +0.086 C 
ATOM      8  C   UNL     1      34.377 -21.695 -18.023  0.00  0.00    +0.112 C 
ATOM      9  C   UNL     1      32.440 -21.174 -19.182  0.00  0.00    +0.252 C 
ATOM     10  N   UNL     1      35.778 -21.691 -17.908  0.00  0.00    -0.346 N 
ATOM     11  H   UNL     1      36.329 -21.288 -18.618  0.00  0.00    +0.143 HD
ATOM     12  H   UNL     1      36.208 -22.090 -17.118  0.00  0.00    +0.143 HD
ENDROOT
BRANCH   7  14
ATOM     13  N   UNL     1      38.485 -24.065 -13.091  0.00  0.00    -0.248 NA
ATOM     14  C   UNL     1      34.938 -23.211 -15.109  0.00  0.00    -0.006 C 
ATOM     15  C   UNL     1      35.499 -24.482 -15.208  0.00  0.00    +0.055 C 
ATOM     16  C   UNL     1      35.568 -22.242 -14.337  0.00  0.00    -0.022 C 
ATOM     17  C   UNL     1      36.694 -24.786 -14.534  0.00  0.00    -0.004 C 
ATOM     18  C   UNL     1      37.339 -23.808 -13.750  0.00  0.00    +0.060 C 
ATOM     19  C   UNL     1      36.756 -22.546 -13.668  0.00  0.00    +0.071 C 
ATOM     20  C   UNL     1      37.280 -26.057 -14.617  0.00  0.00    -0.001 C 
ATOM     21  C   UNL     1      38.461 -26.325 -13.940  0.00  0.00    +0.020 C 
ATOM     22  C   UNL     1      39.018 -25.305 -13.197  0.00  0.00    +0.098 C 
ENDBRANCH   7  14
BRANCH   1  23
ATOM     23  C   UNL     1      30.234 -23.015 -15.906  0.00  0.00    +0.098 C 
ATOM     24  C   UNL     1      29.693 -22.004 -14.892  0.00  0.00    +0.024 C 
ATOM     25  C   UNL     1      29.940 -24.448 -15.457  0.00  0.00    +0.024 C 
ENDBRANCH   1  23
TORSDOF 2
ENDMDL
MODEL 9
REMARK VINA RESULT:     -10.5      1.498      3.825
REMARK  Name = 24905152
REMARK  2 active torsions:
REMARK  status: ('A' for Active; 'I' for Inactive)
REMARK    1  A    between atoms: N_1  and  C_23
REMARK    2  A    between atoms: C_7  and  C_11
REMARK                            x       y       z     vdW  Elec       q    Type
REMARK                         _______ _______ _______ _____ _____    ______ ____
ROOT
ATOM      1  N   UNL     1      30.215 -22.830 -16.216  0.00  0.00    -0.200 N 
ATOM      2  N   UNL     1      30.769 -22.195 -17.265  0.00  0.00    -0.181 NA
ATOM      3  N   UNL     1      30.874 -23.991 -14.195  0.00  0.00    -0.232 NA
ATOM      4  N   UNL     1      33.300 -24.052 -13.941  0.00  0.00    -0.234 NA
ATOM      5  C   UNL     1      32.371 -22.976 -15.834  0.00  0.00    +0.150 C 
ATOM      6  C   UNL     1      31.129 -23.317 -15.328  0.00  0.00    +0.137 C 
ATOM      7  C   UNL     1      32.082 -22.286 -17.027  0.00  0.00    +0.086 C 
ATOM      8  C   UNL     1      33.484 -23.368 -15.097  0.00  0.00    +0.112 C 
ATOM      9  C   UNL     1      32.025 -24.317 -13.568  0.00  0.00    +0.252 C 
ATOM     10  N   UNL     1      34.788 -23.067 -15.527  0.00  0.00    -0.346 N 
ATOM     11  H   UNL     1      35.562 -23.354 -14.989  0.00  0.00    +0.143 HD
ATOM     12  H   UNL     1      34.928 -22.569 -16.364  0.00  0.00    +0.143 HD
ENDROOT
BRANCH   7  14
ATOM     13  N   UNL     1      35.760 -20.061 -20.621  0.00  0.00    -0.248 NA
ATOM     14  C   UNL     1      33.017 -21.711 -17.951  0.00  0.00    -0.006 C 
ATOM     15  C   UNL     1      32.563 -20.933 -19.013  0.00  0.00    +0.055 C 
ATOM     16  C   UNL     1      34.381 -21.929 -17.795  0.00  0.00    -0.022 C 
ATOM     17  C   UNL     1      33.474 -20.370 -19.922  0.00  0.00    -0.004 C 
ATOM     18  C   UNL     1      34.860 -20.586 -19.768  0.00  0.00    +0.060 C 
ATOM     19  C   UNL     1      35.286 -21.368 -18.698  0.00  0.00    +0.071 C 
ATOM     20  C   UNL     1      33.045 -19.582 -20.999  0.00  0.00    -0.001 C 
ATOM     21  C   UNL     1      33.970 -19.039 -21.878  0.00  0.00    +0.020 C 
ATOM     22  C   UNL     1      35.304 -19.307 -21.648  0.00  0.00    +0.098 C 
ENDBRANCH   7  14
BRANCH   1  23
ATOM     23  C   UNL     1      28.778 -22.935 -16.125  0.00  0.00    +0.098 C 
ATOM     24  C   UNL     1      28.203 -21.931 -15.122  0.00  0.00    +0.024 C 
ATOM     25  C   UNL     1      28.339 -24.360 -15.782  0.00  0.00    +0.024 C 
ENDBRANCH   1  23
TORSDOF 2
ENDMDL
