MODEL 1
REMARK VINA RESULT:     -12.9      0.000      0.000
REMARK  Name = 25243828
REMARK  6 active torsions:
REMARK  status: ('A' for Active; 'I' for Inactive)
REMARK    1  A    between atoms: C_1  and  C_18
REMARK    2  A    between atoms: C_4  and  O_7
REMARK    3  A    between atoms: O_7  and  C_9
REMARK    4  A    between atoms: C_11  and  C_17
REMARK    5  A    between atoms: C_18  and  C_21
REMARK    6  A    between atoms: C_26  and  O_27
REMARK                            x       y       z     vdW  Elec       q    Type
REMARK                         _______ _______ _______ _____ _____    ______ ____
ROOT
ATOM      1  C   UNL     1      33.375 -22.955 -14.878  0.00  0.00    -0.019 C 
ATOM      2  C   UNL     1      33.573 -23.062 -16.254  0.00  0.00    +0.033 C 
ATOM      3  C   UNL     1      32.117 -22.617 -14.378  0.00  0.00    -0.004 C 
ATOM      4  C   UNL     1      32.513 -22.829 -17.132  0.00  0.00    +0.147 C 
ATOM      5  C   UNL     1      31.058 -22.384 -15.255  0.00  0.00    +0.003 C 
ATOM      6  C   UNL     1      31.255 -22.491 -16.632  0.00  0.00    +0.038 C 
ENDROOT
BRANCH   4   7
ATOM      7  O   UNL     1      32.706 -22.931 -18.475  0.00  0.00    -0.436 OA
BRANCH   7   9
ATOM      8  N   UNL     1      34.706 -21.925 -19.132  0.00  0.00    -0.210 NA
ATOM      9  C   UNL     1      33.354 -21.887 -19.114  0.00  0.00    +0.230 C 
ATOM     10  C   UNL     1      32.599 -20.879 -19.690  0.00  0.00    +0.058 C 
ATOM     11  C   UNL     1      34.663 -19.848 -20.368  0.00  0.00    +0.091 C 
ATOM     12  C   UNL     1      33.274 -19.843 -20.328  0.00  0.00    +0.010 C 
ATOM     13  C   UNL     1      35.327 -20.902 -19.761  0.00  0.00    +0.106 C 
BRANCH  11  17
ATOM     14  F   UNL     1      34.935 -17.504 -20.761  0.00  0.00    -0.166 F 
ATOM     15  F   UNL     1      36.739 -18.708 -20.705  0.00  0.00    -0.166 F 
ATOM     16  F   UNL     1      35.389 -18.854 -22.403  0.00  0.00    -0.166 F 
ATOM     17  C   UNL     1      35.414 -18.754 -21.041  0.00  0.00    +0.420 C 
ENDBRANCH  11  17
ENDBRANCH   7   9
ENDBRANCH   4   7
BRANCH   1  18
ATOM     18  C   UNL     1      34.516 -23.204 -13.931  0.00  0.00    +0.027 C 
BRANCH  18  21
ATOM     19  O   UNL     1      40.622 -24.025 -14.054  0.00  0.00    -0.226 OA
ATOM     20  N   UNL     1      38.476 -24.715 -14.629  0.00  0.00    -0.246 N 
ATOM     21  C   UNL     1      35.724 -23.801 -14.650  0.00  0.00    +0.008 C 
ATOM     22  C   UNL     1      36.907 -22.819 -14.639  0.00  0.00    +0.022 C 
ATOM     23  C   UNL     1      36.132 -25.140 -14.014  0.00  0.00    +0.022 C 
ATOM     24  C   UNL     1      38.149 -23.441 -15.276  0.00  0.00    +0.097 C 
ATOM     25  C   UNL     1      37.390 -25.703 -14.674  0.00  0.00    +0.097 C 
ATOM     26  C   UNL     1      39.741 -24.884 -14.057  0.00  0.00    +0.402 C 
BRANCH  26  27
ATOM     27  O   UNL     1      39.981 -26.088 -13.462  0.00  0.00    -0.466 OA
ATOM     28  H   UNL     1      40.701 -26.182 -12.871  0.00  0.00    +0.297 HD
ENDBRANCH  26  27
ENDBRANCH  18  21
ENDBRANCH   1  18
TORSDOF 6
ENDMDL
MODEL 2
REMARK VINA RESULT:     -12.6      6.597     11.336
REMARK  Name = 25243828
REMARK  6 active torsions:
REMARK  status: ('A' for Active; 'I' for Inactive)
REMARK    1  A    between atoms: C_1  and  C_18
REMARK    2  A    between atoms: C_4  and  O_7
REMARK    3  A    between atoms: O_7  and  C_9
REMARK    4  A    between atoms: C_11  and  C_17
REMARK    5  A    between atoms: C_18  and  C_21
REMARK    6  A    between atoms: C_26  and  O_27
REMARK                            x       y       z     vdW  Elec       q    Type
REMARK                         _______ _______ _______ _____ _____    ______ ____
ROOT
ATOM      1  C   UNL     1      34.204 -15.612 -21.754  0.00  0.00    -0.019 C 
ATOM      2  C   UNL     1      34.878 -16.665 -21.137  0.00  0.00    +0.033 C 
ATOM      3  C   UNL     1      33.844 -15.705 -23.098  0.00  0.00    -0.004 C 
ATOM      4  C   UNL     1      35.193 -17.813 -21.865  0.00  0.00    +0.147 C 
ATOM      5  C   UNL     1      34.159 -16.852 -23.826  0.00  0.00    +0.003 C 
ATOM      6  C   UNL     1      34.834 -17.907 -23.210  0.00  0.00    +0.038 C 
ENDROOT
BRANCH   4   7
ATOM      7  O   UNL     1      35.853 -18.840 -21.265  0.00  0.00    -0.436 OA
BRANCH   7   9
ATOM      8  N   UNL     1      35.818 -20.400 -19.530  0.00  0.00    -0.210 NA
ATOM      9  C   UNL     1      35.124 -19.681 -20.441  0.00  0.00    +0.230 C 
ATOM     10  C   UNL     1      33.747 -19.738 -20.588  0.00  0.00    +0.058 C 
ATOM     11  C   UNL     1      33.717 -21.343 -18.798  0.00  0.00    +0.091 C 
ATOM     12  C   UNL     1      33.037 -20.587 -19.746  0.00  0.00    +0.010 C 
ATOM     13  C   UNL     1      35.094 -21.215 -18.730  0.00  0.00    +0.106 C 
BRANCH  11  17
ATOM     14  F   UNL     1      33.522 -22.334 -16.628  0.00  0.00    -0.166 F 
ATOM     15  F   UNL     1      31.676 -21.918 -17.689  0.00  0.00    -0.166 F 
ATOM     16  F   UNL     1      32.957 -23.550 -18.340  0.00  0.00    -0.166 F 
ATOM     17  C   UNL     1      32.985 -22.263 -17.884  0.00  0.00    +0.420 C 
ENDBRANCH  11  17
ENDBRANCH   7   9
ENDBRANCH   4   7
BRANCH   1  18
ATOM     18  C   UNL     1      33.864 -14.373 -20.970  0.00  0.00    +0.027 C 
BRANCH  18  21
ATOM     19  O   UNL     1      31.070  -8.896 -21.380  0.00  0.00    -0.226 OA
ATOM     20  N   UNL     1      31.882 -10.833 -22.381  0.00  0.00    -0.246 N 
ATOM     21  C   UNL     1      32.897 -13.471 -21.734  0.00  0.00    +0.008 C 
ATOM     22  C   UNL     1      32.001 -12.685 -20.764  0.00  0.00    +0.022 C 
ATOM     23  C   UNL     1      33.661 -12.510 -22.659  0.00  0.00    +0.022 C 
ATOM     24  C   UNL     1      31.092 -11.713 -21.515  0.00  0.00    +0.097 C 
ATOM     25  C   UNL     1      32.706 -11.549 -23.364  0.00  0.00    +0.097 C 
ATOM     26  C   UNL     1      31.785  -9.448 -22.216  0.00  0.00    +0.402 C 
BRANCH  26  27
ATOM     27  O   UNL     1      32.552  -8.684 -23.046  0.00  0.00    -0.466 OA
ATOM     28  H   UNL     1      32.189  -8.347 -23.841  0.00  0.00    +0.297 HD
ENDBRANCH  26  27
ENDBRANCH  18  21
ENDBRANCH   1  18
TORSDOF 6
ENDMDL
MODEL 3
REMARK VINA RESULT:     -12.5      5.348      8.765
REMARK  Name = 25243828
REMARK  6 active torsions:
REMARK  status: ('A' for Active; 'I' for Inactive)
REMARK    1  A    between atoms: C_1  and  C_18
REMARK    2  A    between atoms: C_4  and  O_7
REMARK    3  A    between atoms: O_7  and  C_9
REMARK    4  A    between atoms: C_11  and  C_17
REMARK    5  A    between atoms: C_18  and  C_21
REMARK    6  A    between atoms: C_26  and  O_27
REMARK                            x       y       z     vdW  Elec       q    Type
REMARK                         _______ _______ _______ _____ _____    ______ ____
ROOT
ATOM      1  C   UNL     1      34.682 -17.937 -22.087  0.00  0.00    -0.019 C 
ATOM      2  C   UNL     1      34.926 -16.573 -22.245  0.00  0.00    +0.033 C 
ATOM      3  C   UNL     1      33.962 -18.635 -23.057  0.00  0.00    -0.004 C 
ATOM      4  C   UNL     1      34.449 -15.906 -23.374  0.00  0.00    +0.147 C 
ATOM      5  C   UNL     1      33.484 -17.968 -24.185  0.00  0.00    +0.003 C 
ATOM      6  C   UNL     1      33.728 -16.603 -24.344  0.00  0.00    +0.038 C 
ENDROOT
BRANCH   4   7
ATOM      7  O   UNL     1      34.684 -14.574 -23.528  0.00  0.00    -0.436 OA
BRANCH   7   9
ATOM      8  N   UNL     1      33.436 -12.604 -23.571  0.00  0.00    -0.210 NA
ATOM      9  C   UNL     1      33.841 -13.691 -22.876  0.00  0.00    +0.230 C 
ATOM     10  C   UNL     1      33.461 -13.963 -21.572  0.00  0.00    +0.058 C 
ATOM     11  C   UNL     1      32.174 -11.932 -21.622  0.00  0.00    +0.091 C 
ATOM     12  C   UNL     1      32.611 -13.062 -20.939  0.00  0.00    +0.010 C 
ATOM     13  C   UNL     1      32.611 -11.750 -22.924  0.00  0.00    +0.106 C 
BRANCH  11  17
ATOM     14  F   UNL     1      31.511  -9.651 -21.331  0.00  0.00    -0.166 F 
ATOM     15  F   UNL     1      29.943 -11.149 -21.257  0.00  0.00    -0.166 F 
ATOM     16  F   UNL     1      31.351 -10.969 -19.609  0.00  0.00    -0.166 F 
ATOM     17  C   UNL     1      31.266 -10.948 -20.972  0.00  0.00    +0.420 C 
ENDBRANCH  11  17
ENDBRANCH   7   9
ENDBRANCH   4   7
BRANCH   1  18
ATOM     18  C   UNL     1      35.195 -18.657 -20.870  0.00  0.00    +0.027 C 
BRANCH  18  21
ATOM     19  O   UNL     1      33.425 -23.037 -16.913  0.00  0.00    -0.226 OA
ATOM     20  N   UNL     1      33.127 -21.867 -18.902  0.00  0.00    -0.246 N 
ATOM     21  C   UNL     1      34.467 -19.981 -20.651  0.00  0.00    +0.008 C 
ATOM     22  C   UNL     1      35.244 -20.880 -19.676  0.00  0.00    +0.022 C 
ATOM     23  C   UNL     1      33.038 -19.741 -20.137  0.00  0.00    +0.022 C 
ATOM     24  C   UNL     1      34.479 -22.169 -19.380  0.00  0.00    +0.097 C 
ATOM     25  C   UNL     1      32.331 -21.062 -19.837  0.00  0.00    +0.097 C 
ATOM     26  C   UNL     1      32.719 -22.356 -17.657  0.00  0.00    +0.402 C 
BRANCH  26  27
ATOM     27  O   UNL     1      31.453 -22.033 -17.265  0.00  0.00    -0.466 OA
ATOM     28  H   UNL     1      31.189 -21.135 -17.231  0.00  0.00    +0.297 HD
ENDBRANCH  26  27
ENDBRANCH  18  21
ENDBRANCH   1  18
TORSDOF 6
ENDMDL
MODEL 4
REMARK VINA RESULT:     -12.1      3.704      5.444
REMARK  Name = 25243828
REMARK  6 active torsions:
REMARK  status: ('A' for Active; 'I' for Inactive)
REMARK    1  A    between atoms: C_1  and  C_18
REMARK    2  A    between atoms: C_4  and  O_7
REMARK    3  A    between atoms: O_7  and  C_9
REMARK    4  A    between atoms: C_11  and  C_17
REMARK    5  A    between atoms: C_18  and  C_21
REMARK    6  A    between atoms: C_26  and  O_27
REMARK                            x       y       z     vdW  Elec       q    Type
REMARK                         _______ _______ _______ _____ _____    ______ ____
ROOT
ATOM      1  C   UNL     1      35.165 -20.810 -19.460  0.00  0.00    -0.019 C 
ATOM      2  C   UNL     1      35.730 -19.835 -20.282  0.00  0.00    +0.033 C 
ATOM      3  C   UNL     1      33.781 -20.976 -19.423  0.00  0.00    -0.004 C 
ATOM      4  C   UNL     1      34.909 -19.024 -21.067  0.00  0.00    +0.147 C 
ATOM      5  C   UNL     1      32.960 -20.165 -20.207  0.00  0.00    +0.003 C 
ATOM      6  C   UNL     1      33.524 -19.189 -21.030  0.00  0.00    +0.038 C 
ENDROOT
BRANCH   4   7
ATOM      7  O   UNL     1      35.458 -18.071 -21.867  0.00  0.00    -0.436 OA
BRANCH   7   9
ATOM      8  N   UNL     1      34.604 -16.238 -20.704  0.00  0.00    -0.210 NA
ATOM      9  C   UNL     1      34.852 -16.826 -21.896  0.00  0.00    +0.230 C 
ATOM     10  C   UNL     1      34.540 -16.259 -23.121  0.00  0.00    +0.058 C 
ATOM     11  C   UNL     1      33.663 -14.371 -21.917  0.00  0.00    +0.091 C 
ATOM     12  C   UNL     1      33.934 -15.007 -23.123  0.00  0.00    +0.010 C 
ATOM     13  C   UNL     1      34.014 -15.022 -20.746  0.00  0.00    +0.106 C 
BRANCH  11  17
ATOM     14  F   UNL     1      31.793 -12.997 -22.501  0.00  0.00    -0.166 F 
ATOM     15  F   UNL     1      32.787 -12.560 -20.622  0.00  0.00    -0.166 F 
ATOM     16  F   UNL     1      33.759 -12.068 -22.504  0.00  0.00    -0.166 F 
ATOM     17  C   UNL     1      33.014 -13.032 -21.886  0.00  0.00    +0.420 C 
ENDBRANCH  11  17
ENDBRANCH   7   9
ENDBRANCH   4   7
BRANCH   1  18
ATOM     18  C   UNL     1      36.049 -21.684 -18.612  0.00  0.00    +0.027 C 
BRANCH  18  21
ATOM     19  O   UNL     1      34.790 -24.356 -13.204  0.00  0.00    -0.226 OA
ATOM     20  N   UNL     1      35.650 -22.574 -14.429  0.00  0.00    -0.246 N 
ATOM     21  C   UNL     1      35.752 -21.510 -17.125  0.00  0.00    +0.008 C 
ATOM     22  C   UNL     1      34.641 -22.471 -16.672  0.00  0.00    +0.022 C 
ATOM     23  C   UNL     1      37.022 -21.724 -16.285  0.00  0.00    +0.022 C 
ATOM     24  C   UNL     1      34.400 -22.369 -15.166  0.00  0.00    +0.097 C 
ATOM     25  C   UNL     1      36.717 -21.632 -14.791  0.00  0.00    +0.097 C 
ATOM     26  C   UNL     1      35.720 -23.597 -13.478  0.00  0.00    +0.402 C 
BRANCH  26  27
ATOM     27  O   UNL     1      36.912 -23.744 -12.833  0.00  0.00    -0.466 OA
ATOM     28  H   UNL     1      36.933 -23.815 -11.899  0.00  0.00    +0.297 HD
ENDBRANCH  26  27
ENDBRANCH  18  21
ENDBRANCH   1  18
TORSDOF 6
ENDMDL
MODEL 5
REMARK VINA RESULT:     -11.7      3.204      5.863
REMARK  Name = 25243828
REMARK  6 active torsions:
REMARK  status: ('A' for Active; 'I' for Inactive)
REMARK    1  A    between atoms: C_1  and  C_18
REMARK    2  A    between atoms: C_4  and  O_7
REMARK    3  A    between atoms: O_7  and  C_9
REMARK    4  A    between atoms: C_11  and  C_17
REMARK    5  A    between atoms: C_18  and  C_21
REMARK    6  A    between atoms: C_26  and  O_27
REMARK                            x       y       z     vdW  Elec       q    Type
REMARK                         _______ _______ _______ _____ _____    ______ ____
ROOT
ATOM      1  C   UNL     1      33.047 -23.618 -14.507  0.00  0.00    -0.019 C 
ATOM      2  C   UNL     1      32.710 -23.620 -15.860  0.00  0.00    +0.033 C 
ATOM      3  C   UNL     1      34.182 -22.934 -14.071  0.00  0.00    -0.004 C 
ATOM      4  C   UNL     1      33.509 -22.939 -16.779  0.00  0.00    +0.147 C 
ATOM      5  C   UNL     1      34.981 -22.253 -14.990  0.00  0.00    +0.003 C 
ATOM      6  C   UNL     1      34.644 -22.254 -16.344  0.00  0.00    +0.038 C 
ENDROOT
BRANCH   4   7
ATOM      7  O   UNL     1      33.182 -22.942 -18.100  0.00  0.00    -0.436 OA
BRANCH   7   9
ATOM      8  N   UNL     1      34.994 -21.829 -19.059  0.00  0.00    -0.210 NA
ATOM      9  C   UNL     1      33.656 -21.903 -18.884  0.00  0.00    +0.230 C 
ATOM     10  C   UNL     1      32.750 -21.012 -19.437  0.00  0.00    +0.058 C 
ATOM     11  C   UNL     1      34.622 -19.870 -20.425  0.00  0.00    +0.091 C 
ATOM     12  C   UNL     1      33.251 -19.979 -20.222  0.00  0.00    +0.010 C 
ATOM     13  C   UNL     1      35.444 -20.812 -19.828  0.00  0.00    +0.106 C 
BRANCH  11  17
ATOM     14  F   UNL     1      34.688 -17.539 -20.958  0.00  0.00    -0.166 F 
ATOM     15  F   UNL     1      36.545 -18.643 -21.146  0.00  0.00    -0.166 F 
ATOM     16  F   UNL     1      34.951 -18.948 -22.593  0.00  0.00    -0.166 F 
ATOM     17  C   UNL     1      35.189 -18.775 -21.259  0.00  0.00    +0.420 C 
ENDBRANCH  11  17
ENDBRANCH   7   9
ENDBRANCH   4   7
BRANCH   1  18
ATOM     18  C   UNL     1      32.187 -24.353 -13.516  0.00  0.00    +0.027 C 
BRANCH  18  21
ATOM     19  O   UNL     1      27.787 -21.667 -16.891  0.00  0.00    -0.226 OA
ATOM     20  N   UNL     1      28.438 -23.198 -15.265  0.00  0.00    -0.246 N 
ATOM     21  C   UNL     1      30.718 -23.958 -13.642  0.00  0.00    +0.008 C 
ATOM     22  C   UNL     1      30.579 -22.549 -14.241  0.00  0.00    +0.022 C 
ATOM     23  C   UNL     1      29.948 -24.981 -14.493  0.00  0.00    +0.022 C 
ATOM     24  C   UNL     1      29.112 -22.180 -14.455  0.00  0.00    +0.097 C 
ATOM     25  C   UNL     1      28.496 -24.550 -14.692  0.00  0.00    +0.097 C 
ATOM     26  C   UNL     1      27.815 -22.819 -16.458  0.00  0.00    +0.402 C 
BRANCH  26  27
ATOM     27  O   UNL     1      27.213 -23.814 -17.171  0.00  0.00    -0.466 OA
ATOM     28  H   UNL     1      26.538 -24.330 -16.776  0.00  0.00    +0.297 HD
ENDBRANCH  26  27
ENDBRANCH  18  21
ENDBRANCH   1  18
TORSDOF 6
ENDMDL
MODEL 6
REMARK VINA RESULT:     -11.5      8.002     12.844
REMARK  Name = 25243828
REMARK  6 active torsions:
REMARK  status: ('A' for Active; 'I' for Inactive)
REMARK    1  A    between atoms: C_1  and  C_18
REMARK    2  A    between atoms: C_4  and  O_7
REMARK    3  A    between atoms: O_7  and  C_9
REMARK    4  A    between atoms: C_11  and  C_17
REMARK    5  A    between atoms: C_18  and  C_21
REMARK    6  A    between atoms: C_26  and  O_27
REMARK                            x       y       z     vdW  Elec       q    Type
REMARK                         _______ _______ _______ _____ _____    ______ ____
ROOT
ATOM      1  C   UNL     1      33.613 -13.481 -22.761  0.00  0.00    -0.019 C 
ATOM      2  C   UNL     1      34.152 -14.677 -23.233  0.00  0.00    +0.033 C 
ATOM      3  C   UNL     1      33.388 -13.306 -21.395  0.00  0.00    -0.004 C 
ATOM      4  C   UNL     1      34.466 -15.701 -22.339  0.00  0.00    +0.147 C 
ATOM      5  C   UNL     1      33.702 -14.330 -20.501  0.00  0.00    +0.003 C 
ATOM      6  C   UNL     1      34.242 -15.528 -20.972  0.00  0.00    +0.038 C 
ENDROOT
BRANCH   4   7
ATOM      7  O   UNL     1      34.989 -16.870 -22.798  0.00  0.00    -0.436 OA
BRANCH   7   9
ATOM      8  N   UNL     1      33.888 -18.670 -21.804  0.00  0.00    -0.210 NA
ATOM      9  C   UNL     1      35.024 -17.947 -21.928  0.00  0.00    +0.230 C 
ATOM     10  C   UNL     1      36.197 -18.221 -21.245  0.00  0.00    +0.058 C 
ATOM     11  C   UNL     1      35.058 -20.078 -20.225  0.00  0.00    +0.091 C 
ATOM     12  C   UNL     1      36.207 -19.310 -20.379  0.00  0.00    +0.010 C 
ATOM     13  C   UNL     1      33.935 -19.720 -20.953  0.00  0.00    +0.106 C 
BRANCH  11  17
ATOM     14  F   UNL     1      34.093 -21.155 -18.319  0.00  0.00    -0.166 F 
ATOM     15  F   UNL     1      34.776 -22.435 -19.932  0.00  0.00    -0.166 F 
ATOM     16  F   UNL     1      36.223 -21.432 -18.655  0.00  0.00    -0.166 F 
ATOM     17  C   UNL     1      35.036 -21.248 -19.305  0.00  0.00    +0.420 C 
ENDBRANCH  11  17
ENDBRANCH   7   9
ENDBRANCH   4   7
BRANCH   1  18
ATOM     18  C   UNL     1      33.272 -12.377 -23.724  0.00  0.00    +0.027 C 
BRANCH  18  21
ATOM     19  O   UNL     1      31.964  -6.370 -24.154  0.00  0.00    -0.226 OA
ATOM     20  N   UNL     1      31.990  -8.353 -22.937  0.00  0.00    -0.246 N 
ATOM     21  C   UNL     1      33.063 -11.046 -23.004  0.00  0.00    +0.008 C 
ATOM     22  C   UNL     1      33.711  -9.893 -23.786  0.00  0.00    +0.022 C 
ATOM     23  C   UNL     1      31.566 -10.772 -22.786  0.00  0.00    +0.022 C 
ATOM     24  C   UNL     1      33.431  -8.546 -23.122  0.00  0.00    +0.097 C 
ATOM     25  C   UNL     1      31.345  -9.405 -22.140  0.00  0.00    +0.097 C 
ATOM     26  C   UNL     1      31.375  -7.231 -23.500  0.00  0.00    +0.402 C 
BRANCH  26  27
ATOM     27  O   UNL     1      30.030  -7.113 -23.302  0.00  0.00    -0.466 OA
ATOM     28  H   UNL     1      29.693  -7.018 -22.433  0.00  0.00    +0.297 HD
ENDBRANCH  26  27
ENDBRANCH  18  21
ENDBRANCH   1  18
TORSDOF 6
ENDMDL
MODEL 7
REMARK VINA RESULT:     -11.4      7.362     12.149
REMARK  Name = 25243828
REMARK  6 active torsions:
REMARK  status: ('A' for Active; 'I' for Inactive)
REMARK    1  A    between atoms: C_1  and  C_18
REMARK    2  A    between atoms: C_4  and  O_7
REMARK    3  A    between atoms: O_7  and  C_9
REMARK    4  A    between atoms: C_11  and  C_17
REMARK    5  A    between atoms: C_18  and  C_21
REMARK    6  A    between atoms: C_26  and  O_27
REMARK                            x       y       z     vdW  Elec       q    Type
REMARK                         _______ _______ _______ _____ _____    ______ ____
ROOT
ATOM      1  C   UNL     1      33.606 -13.208 -22.917  0.00  0.00    -0.019 C 
ATOM      2  C   UNL     1      33.979 -14.451 -23.428  0.00  0.00    +0.033 C 
ATOM      3  C   UNL     1      33.535 -13.013 -21.538  0.00  0.00    -0.004 C 
ATOM      4  C   UNL     1      34.281 -15.500 -22.560  0.00  0.00    +0.147 C 
ATOM      5  C   UNL     1      33.837 -14.062 -20.669  0.00  0.00    +0.003 C 
ATOM      6  C   UNL     1      34.211 -15.306 -21.180  0.00  0.00    +0.038 C 
ENDROOT
BRANCH   4   7
ATOM      7  O   UNL     1      34.643 -16.714 -23.057  0.00  0.00    -0.436 OA
BRANCH   7   9
ATOM      8  N   UNL     1      33.745 -18.569 -21.964  0.00  0.00    -0.210 NA
ATOM      9  C   UNL     1      34.807 -17.755 -22.159  0.00  0.00    +0.230 C 
ATOM     10  C   UNL     1      36.028 -17.907 -21.522  0.00  0.00    +0.058 C 
ATOM     11  C   UNL     1      35.098 -19.820 -20.400  0.00  0.00    +0.091 C 
ATOM     12  C   UNL     1      36.168 -18.963 -20.627  0.00  0.00    +0.010 C 
ATOM     13  C   UNL     1      33.918 -19.583 -21.087  0.00  0.00    +0.106 C 
BRANCH  11  17
ATOM     14  F   UNL     1      36.264 -20.841 -18.578  0.00  0.00    -0.166 F 
ATOM     15  F   UNL     1      34.115 -21.126 -18.654  0.00  0.00    -0.166 F 
ATOM     16  F   UNL     1      35.398 -22.157 -20.075  0.00  0.00    -0.166 F 
ATOM     17  C   UNL     1      35.216 -20.958 -19.448  0.00  0.00    +0.420 C 
ENDBRANCH  11  17
ENDBRANCH   7   9
ENDBRANCH   4   7
BRANCH   1  18
ATOM     18  C   UNL     1      33.278 -12.077 -23.852  0.00  0.00    +0.027 C 
BRANCH  18  21
ATOM     19  O   UNL     1      30.825  -9.579 -18.782  0.00  0.00    -0.226 OA
ATOM     20  N   UNL     1      31.290  -9.488 -21.059  0.00  0.00    -0.246 N 
ATOM     21  C   UNL     1      32.239 -11.133 -23.252  0.00  0.00    +0.008 C 
ATOM     22  C   UNL     1      31.608 -11.744 -21.990  0.00  0.00    +0.022 C 
ATOM     23  C   UNL     1      32.864  -9.765 -22.930  0.00  0.00    +0.022 C 
ATOM     24  C   UNL     1      30.633 -10.770 -21.330  0.00  0.00    +0.097 C 
ATOM     25  C   UNL     1      31.852  -8.843 -22.253  0.00  0.00    +0.097 C 
ATOM     26  C   UNL     1      31.320  -9.001 -19.749  0.00  0.00    +0.402 C 
BRANCH  26  27
ATOM     27  O   UNL     1      31.955  -7.808 -19.560  0.00  0.00    -0.466 OA
ATOM     28  H   UNL     1      31.947  -7.403 -18.716  0.00  0.00    +0.297 HD
ENDBRANCH  26  27
ENDBRANCH  18  21
ENDBRANCH   1  18
TORSDOF 6
ENDMDL
MODEL 8
REMARK VINA RESULT:     -11.4      4.256      6.530
REMARK  Name = 25243828
REMARK  6 active torsions:
REMARK  status: ('A' for Active; 'I' for Inactive)
REMARK    1  A    between atoms: C_1  and  C_18
REMARK    2  A    between atoms: C_4  and  O_7
REMARK    3  A    between atoms: O_7  and  C_9
REMARK    4  A    between atoms: C_11  and  C_17
REMARK    5  A    between atoms: C_18  and  C_21
REMARK    6  A    between atoms: C_26  and  O_27
REMARK                            x       y       z     vdW  Elec       q    Type
REMARK                         _______ _______ _______ _____ _____    ______ ____
ROOT
ATOM      1  C   UNL     1      34.901 -20.074 -20.611  0.00  0.00    -0.019 C 
ATOM      2  C   UNL     1      34.326 -19.549 -21.768  0.00  0.00    +0.033 C 
ATOM      3  C   UNL     1      36.097 -19.545 -20.123  0.00  0.00    -0.004 C 
ATOM      4  C   UNL     1      34.947 -18.495 -22.439  0.00  0.00    +0.147 C 
ATOM      5  C   UNL     1      36.718 -18.491 -20.794  0.00  0.00    +0.003 C 
ATOM      6  C   UNL     1      36.143 -17.965 -21.952  0.00  0.00    +0.038 C 
ENDROOT
BRANCH   4   7
ATOM      7  O   UNL     1      34.389 -17.983 -23.569  0.00  0.00    -0.436 OA
BRANCH   7   9
ATOM      8  N   UNL     1      33.532 -16.140 -24.714  0.00  0.00    -0.210 NA
ATOM      9  C   UNL     1      34.051 -16.640 -23.570  0.00  0.00    +0.230 C 
ATOM     10  C   UNL     1      34.256 -15.895 -22.421  0.00  0.00    +0.058 C 
ATOM     11  C   UNL     1      33.370 -13.999 -23.605  0.00  0.00    +0.091 C 
ATOM     12  C   UNL     1      33.906 -14.549 -22.446  0.00  0.00    +0.010 C 
ATOM     13  C   UNL     1      33.204 -14.828 -24.702  0.00  0.00    +0.106 C 
BRANCH  11  17
ATOM     14  F   UNL     1      33.960 -11.713 -23.212  0.00  0.00    -0.166 F 
ATOM     15  F   UNL     1      32.694 -12.122 -24.926  0.00  0.00    -0.166 F 
ATOM     16  F   UNL     1      31.881 -12.277 -22.915  0.00  0.00    -0.166 F 
ATOM     17  C   UNL     1      32.987 -12.562 -23.664  0.00  0.00    +0.420 C 
ENDBRANCH  11  17
ENDBRANCH   7   9
ENDBRANCH   4   7
BRANCH   1  18
ATOM     18  C   UNL     1      34.234 -21.211 -19.887  0.00  0.00    +0.027 C 
BRANCH  18  21
ATOM     19  O   UNL     1      35.241 -24.451 -14.743  0.00  0.00    -0.226 OA
ATOM     20  N   UNL     1      35.541 -22.523 -16.012  0.00  0.00    -0.246 N 
ATOM     21  C   UNL     1      34.558 -21.196 -18.395  0.00  0.00    +0.008 C 
ATOM     22  C   UNL     1      33.720 -22.242 -17.643  0.00  0.00    +0.022 C 
ATOM     23  C   UNL     1      36.058 -21.438 -18.159  0.00  0.00    +0.022 C 
ATOM     24  C   UNL     1      34.101 -22.298 -16.164  0.00  0.00    +0.097 C 
ATOM     25  C   UNL     1      36.376 -21.507 -16.666  0.00  0.00    +0.097 C 
ATOM     26  C   UNL     1      35.985 -23.631 -15.282  0.00  0.00    +0.402 C 
BRANCH  26  27
ATOM     27  O   UNL     1      37.336 -23.790 -15.184  0.00  0.00    -0.466 OA
ATOM     28  H   UNL     1      37.840 -23.985 -15.949  0.00  0.00    +0.297 HD
ENDBRANCH  26  27
ENDBRANCH  18  21
ENDBRANCH   1  18
TORSDOF 6
ENDMDL
MODEL 9
REMARK VINA RESULT:     -11.1      5.275     10.130
REMARK  Name = 25243828
REMARK  6 active torsions:
REMARK  status: ('A' for Active; 'I' for Inactive)
REMARK    1  A    between atoms: C_1  and  C_18
REMARK    2  A    between atoms: C_4  and  O_7
REMARK    3  A    between atoms: O_7  and  C_9
REMARK    4  A    between atoms: C_11  and  C_17
REMARK    5  A    between atoms: C_18  and  C_21
REMARK    6  A    between atoms: C_26  and  O_27
REMARK                            x       y       z     vdW  Elec       q    Type
REMARK                         _______ _______ _______ _____ _____    ______ ____
ROOT
ATOM      1  C   UNL     1      34.832 -17.932 -22.150  0.00  0.00    -0.019 C 
ATOM      2  C   UNL     1      34.092 -18.950 -21.548  0.00  0.00    +0.033 C 
ATOM      3  C   UNL     1      36.179 -17.764 -21.827  0.00  0.00    -0.004 C 
ATOM      4  C   UNL     1      34.699 -19.799 -20.622  0.00  0.00    +0.147 C 
ATOM      5  C   UNL     1      36.785 -18.613 -20.901  0.00  0.00    +0.003 C 
ATOM      6  C   UNL     1      36.046 -19.631 -20.299  0.00  0.00    +0.038 C 
ENDROOT
BRANCH   4   7
ATOM      7  O   UNL     1      33.977 -20.790 -20.032  0.00  0.00    -0.436 OA
BRANCH   7   9
ATOM      8  N   UNL     1      33.554 -21.972 -18.066  0.00  0.00    -0.210 NA
ATOM      9  C   UNL     1      34.442 -21.298 -18.830  0.00  0.00    +0.230 C 
ATOM     10  C   UNL     1      35.767 -21.094 -18.482  0.00  0.00    +0.058 C 
ATOM     11  C   UNL     1      35.325 -22.315 -16.458  0.00  0.00    +0.091 C 
ATOM     12  C   UNL     1      36.210 -21.616 -17.271  0.00  0.00    +0.010 C 
ATOM     13  C   UNL     1      34.020 -22.465 -16.896  0.00  0.00    +0.106 C 
BRANCH  11  17
ATOM     14  F   UNL     1      37.104 -22.722 -14.909  0.00  0.00    -0.166 F 
ATOM     15  F   UNL     1      35.140 -22.335 -14.073  0.00  0.00    -0.166 F 
ATOM     16  F   UNL     1      35.544 -24.228 -15.062  0.00  0.00    -0.166 F 
ATOM     17  C   UNL     1      35.768 -22.884 -15.156  0.00  0.00    +0.420 C 
ENDBRANCH  11  17
ENDBRANCH   7   9
ENDBRANCH   4   7
BRANCH   1  18
ATOM     18  C   UNL     1      34.179 -17.015 -23.147  0.00  0.00    +0.027 C 
BRANCH  18  21
ATOM     19  O   UNL     1      31.503 -11.523 -22.341  0.00  0.00    -0.226 OA
ATOM     20  N   UNL     1      33.191 -13.044 -21.841  0.00  0.00    -0.246 N 
ATOM     21  C   UNL     1      34.335 -15.549 -22.750  0.00  0.00    +0.008 C 
ATOM     22  C   UNL     1      33.524 -14.638 -23.685  0.00  0.00    +0.022 C 
ATOM     23  C   UNL     1      33.911 -15.331 -21.288  0.00  0.00    +0.022 C 
ATOM     24  C   UNL     1      33.600 -13.178 -23.242  0.00  0.00    +0.097 C 
ATOM     25  C   UNL     1      33.986 -13.853 -20.907  0.00  0.00    +0.097 C 
ATOM     26  C   UNL     1      32.133 -12.189 -21.519  0.00  0.00    +0.402 C 
BRANCH  26  27
ATOM     27  O   UNL     1      31.794 -12.114 -20.200  0.00  0.00    -0.466 OA
ATOM     28  H   UNL     1      31.016 -12.535 -19.892  0.00  0.00    +0.297 HD
ENDBRANCH  26  27
ENDBRANCH  18  21
ENDBRANCH   1  18
TORSDOF 6
ENDMDL
