MODEL 1
REMARK VINA RESULT:     -11.1      0.000      0.000
REMARK  Name = 24988881
REMARK  6 active torsions:
REMARK  status: ('A' for Active; 'I' for Inactive)
REMARK    1  A    between atoms: C_4  and  O_22
REMARK    2  A    between atoms: C_11  and  C_16
REMARK    3  A    between atoms: N_14  and  C_17
REMARK    4  A    between atoms: C_17  and  C_19
REMARK    5  A    between atoms: C_19  and  O_20
REMARK    6  A    between atoms: O_22  and  C_25
REMARK                            x       y       z     vdW  Elec       q    Type
REMARK                         _______ _______ _______ _____ _____    ______ ____
ROOT
ATOM      1  O   UNL     1      32.912 -13.994 -20.216  0.00  0.00    -0.342 OA
ATOM      2  N   UNL     1      31.586 -11.412 -22.213  0.00  0.00    -0.290 N 
ATOM      3  N   UNL     1      32.169 -12.824 -20.322  0.00  0.00    -0.061 NA
ATOM      4  C   UNL     1      31.967  -8.566 -22.203  0.00  0.00    +0.169 C 
ATOM      5  C   UNL     1      31.340  -9.301 -21.012  0.00  0.00    +0.065 C 
ATOM      6  C   UNL     1      32.873  -9.495 -23.018  0.00  0.00    +0.065 C 
ATOM      7  C   UNL     1      30.637 -10.586 -21.455  0.00  0.00    +0.096 C 
ATOM      8  C   UNL     1      32.130 -10.770 -23.414  0.00  0.00    +0.096 C 
ATOM      9  C   UNL     1      32.198 -12.512 -21.621  0.00  0.00    +0.175 C 
ATOM     10  C   UNL     1      32.935 -13.440 -22.376  0.00  0.00    +0.088 C 
ATOM     11  C   UNL     1      33.363 -14.351 -21.446  0.00  0.00    +0.242 C 
ENDROOT
BRANCH  11  16
ATOM     12  N   UNL     1      34.645 -16.345 -20.762  0.00  0.00    -0.103 NA
ATOM     13  N   UNL     1      34.541 -15.919 -22.984  0.00  0.00    -0.083 NA
ATOM     14  N   UNL     1      35.305 -17.232 -21.520  0.00  0.00    -0.103 N 
ATOM     15  N   UNL     1      35.270 -17.020 -22.843  0.00  0.00    -0.018 NA
ATOM     16  C   UNL     1      34.184 -15.541 -21.724  0.00  0.00    +0.112 C 
BRANCH  14  17
ATOM     17  C   UNL     1      36.008 -18.351 -20.947  0.00  0.00    +0.246 C 
BRANCH  17  19
ATOM     18  O   UNL     1      35.320 -20.281 -19.671  0.00  0.00    -0.248 OA
ATOM     19  C   UNL     1      35.073 -19.461 -20.545  0.00  0.00    +0.338 C 
BRANCH  19  20
ATOM     20  O   UNL     1      33.933 -19.478 -21.281  0.00  0.00    -0.479 OA
ATOM     21  H   UNL     1      33.968 -19.684 -22.194  0.00  0.00    +0.295 HD
ENDBRANCH  19  20
ENDBRANCH  17  19
ENDBRANCH  14  17
ENDBRANCH  11  16
BRANCH   4  22
ATOM     22  O   UNL     1      32.715  -7.449 -21.738  0.00  0.00    -0.478 OA
BRANCH  22  25
ATOM     23 BR   UNL     1      33.803  -5.957 -24.259  0.00  0.00    -0.046 Br
ATOM     24  F   UNL     1      29.692  -4.101 -20.266  0.00  0.00    -0.204 F 
ATOM     25  C   UNL     1      32.153  -6.212 -21.917  0.00  0.00    +0.147 C 
ATOM     26  C   UNL     1      32.513  -5.396 -22.989  0.00  0.00    +0.069 C 
ATOM     27  C   UNL     1      31.199  -5.775 -20.997  0.00  0.00    +0.067 C 
ATOM     28  C   UNL     1      31.920  -4.143 -23.142  0.00  0.00    +0.012 C 
ATOM     29  C   UNL     1      30.606  -4.522 -21.150  0.00  0.00    +0.143 C 
ATOM     30  C   UNL     1      30.967  -3.706 -22.222  0.00  0.00    +0.030 C 
ENDBRANCH  22  25
ENDBRANCH   4  22
TORSDOF 6
ENDMDL
MODEL 2
REMARK VINA RESULT:     -11.1      1.719      2.025
REMARK  Name = 24988881
REMARK  6 active torsions:
REMARK  status: ('A' for Active; 'I' for Inactive)
REMARK    1  A    between atoms: C_4  and  O_22
REMARK    2  A    between atoms: C_11  and  C_16
REMARK    3  A    between atoms: N_14  and  C_17
REMARK    4  A    between atoms: C_17  and  C_19
REMARK    5  A    between atoms: C_19  and  O_20
REMARK    6  A    between atoms: O_22  and  C_25
REMARK                            x       y       z     vdW  Elec       q    Type
REMARK                         _______ _______ _______ _____ _____    ______ ____
ROOT
ATOM      1  O   UNL     1      32.813 -13.746 -20.223  0.00  0.00    -0.342 OA
ATOM      2  N   UNL     1      31.484 -11.127 -22.168  0.00  0.00    -0.290 N 
ATOM      3  N   UNL     1      32.080 -12.568 -20.303  0.00  0.00    -0.061 NA
ATOM      4  C   UNL     1      31.891  -8.286 -22.128  0.00  0.00    +0.169 C 
ATOM      5  C   UNL     1      31.274  -9.030 -20.938  0.00  0.00    +0.065 C 
ATOM      6  C   UNL     1      32.776  -9.212 -22.968  0.00  0.00    +0.065 C 
ATOM      7  C   UNL     1      30.553 -10.303 -21.387  0.00  0.00    +0.096 C 
ATOM      8  C   UNL     1      32.016 -10.476 -23.368  0.00  0.00    +0.096 C 
ATOM      9  C   UNL     1      32.093 -12.240 -21.599  0.00  0.00    +0.175 C 
ATOM     10  C   UNL     1      32.812 -13.166 -22.375  0.00  0.00    +0.088 C 
ATOM     11  C   UNL     1      33.243 -14.092 -21.463  0.00  0.00    +0.242 C 
ENDROOT
BRANCH  11  16
ATOM     12  N   UNL     1      34.512 -16.109 -20.823  0.00  0.00    -0.103 NA
ATOM     13  N   UNL     1      34.390 -15.648 -23.036  0.00  0.00    -0.083 NA
ATOM     14  N   UNL     1      35.155 -16.992 -21.601  0.00  0.00    -0.103 N 
ATOM     15  N   UNL     1      35.109 -16.759 -22.920  0.00  0.00    -0.018 NA
ATOM     16  C   UNL     1      34.050 -15.286 -21.768  0.00  0.00    +0.112 C 
BRANCH  14  17
ATOM     17  C   UNL     1      35.853 -18.126 -21.052  0.00  0.00    +0.246 C 
BRANCH  17  19
ATOM     18  O   UNL     1      35.114 -20.102 -19.878  0.00  0.00    -0.248 OA
ATOM     19  C   UNL     1      34.922 -19.274 -20.760  0.00  0.00    +0.338 C 
BRANCH  19  20
ATOM     20  O   UNL     1      33.859 -19.314 -21.600  0.00  0.00    -0.479 OA
ATOM     21  H   UNL     1      33.271 -20.044 -21.577  0.00  0.00    +0.295 HD
ENDBRANCH  19  20
ENDBRANCH  17  19
ENDBRANCH  14  17
ENDBRANCH  11  16
BRANCH   4  22
ATOM     22  O   UNL     1      32.656  -7.182 -21.660  0.00  0.00    -0.478 OA
BRANCH  22  25
ATOM     23 BR   UNL     1      30.499  -5.007 -21.045  0.00  0.00    -0.046 Br
ATOM     24  F   UNL     1      34.793  -4.962 -25.269  0.00  0.00    -0.204 F 
ATOM     25  C   UNL     1      32.738  -6.093 -22.488  0.00  0.00    +0.147 C 
ATOM     26  C   UNL     1      31.858  -5.017 -22.366  0.00  0.00    +0.069 C 
ATOM     27  C   UNL     1      33.730  -6.074 -23.469  0.00  0.00    +0.067 C 
ATOM     28  C   UNL     1      31.969  -3.924 -23.225  0.00  0.00    +0.012 C 
ATOM     29  C   UNL     1      33.842  -4.980 -24.327  0.00  0.00    +0.143 C 
ATOM     30  C   UNL     1      32.961  -3.906 -24.205  0.00  0.00    +0.030 C 
ENDBRANCH  22  25
ENDBRANCH   4  22
TORSDOF 6
ENDMDL
MODEL 3
REMARK VINA RESULT:     -11.1      6.801     12.760
REMARK  Name = 24988881
REMARK  6 active torsions:
REMARK  status: ('A' for Active; 'I' for Inactive)
REMARK    1  A    between atoms: C_4  and  O_22
REMARK    2  A    between atoms: C_11  and  C_16
REMARK    3  A    between atoms: N_14  and  C_17
REMARK    4  A    between atoms: C_17  and  C_19
REMARK    5  A    between atoms: C_19  and  O_20
REMARK    6  A    between atoms: O_22  and  C_25
REMARK                            x       y       z     vdW  Elec       q    Type
REMARK                         _______ _______ _______ _____ _____    ______ ____
ROOT
ATOM      1  O   UNL     1      36.029 -18.023 -20.524  0.00  0.00    -0.342 OA
ATOM      2  N   UNL     1      34.077 -20.918 -20.056  0.00  0.00    -0.290 N 
ATOM      3  N   UNL     1      35.899 -19.310 -20.015  0.00  0.00    -0.061 NA
ATOM      4  C   UNL     1      33.132 -22.256 -17.699  0.00  0.00    +0.169 C 
ATOM      5  C   UNL     1      34.627 -22.125 -18.007  0.00  0.00    +0.065 C 
ATOM      6  C   UNL     1      32.323 -21.139 -18.366  0.00  0.00    +0.065 C 
ATOM      7  C   UNL     1      34.881 -22.021 -19.513  0.00  0.00    +0.096 C 
ATOM      8  C   UNL     1      32.631 -21.064 -19.861  0.00  0.00    +0.096 C 
ATOM      9  C   UNL     1      34.664 -19.692 -20.351  0.00  0.00    +0.175 C 
ATOM     10  C   UNL     1      33.975 -18.699 -21.068  0.00  0.00    +0.088 C 
ATOM     11  C   UNL     1      34.877 -17.671 -21.150  0.00  0.00    +0.242 C 
ENDROOT
BRANCH  11  16
ATOM     12  N   UNL     1      34.213 -15.295 -21.159  0.00  0.00    -0.103 NA
ATOM     13  N   UNL     1      34.852 -16.176 -23.144  0.00  0.00    -0.083 NA
ATOM     14  N   UNL     1      34.170 -14.428 -22.181  0.00  0.00    -0.103 N 
ATOM     15  N   UNL     1      34.541 -14.907 -23.376  0.00  0.00    -0.018 NA
ATOM     16  C   UNL     1      34.645 -16.376 -21.813  0.00  0.00    +0.112 C 
BRANCH  14  17
ATOM     17  C   UNL     1      33.752 -13.061 -22.005  0.00  0.00    +0.246 C 
BRANCH  17  19
ATOM     18  O   UNL     1      33.452 -11.372 -23.703  0.00  0.00    -0.248 OA
ATOM     19  C   UNL     1      33.171 -12.481 -23.268  0.00  0.00    +0.338 C 
BRANCH  19  20
ATOM     20  O   UNL     1      32.273 -13.308 -23.859  0.00  0.00    -0.479 OA
ATOM     21  H   UNL     1      31.986 -14.082 -23.416  0.00  0.00    +0.295 HD
ENDBRANCH  19  20
ENDBRANCH  17  19
ENDBRANCH  14  17
ENDBRANCH  11  16
BRANCH   4  22
ATOM     22  O   UNL     1      32.927 -22.224 -16.291  0.00  0.00    -0.478 OA
BRANCH  22  25
ATOM     23 BR   UNL     1      33.275 -23.948 -13.709  0.00  0.00    -0.046 Br
ATOM     24  F   UNL     1      28.227 -22.696 -16.749  0.00  0.00    -0.204 F 
ATOM     25  C   UNL     1      31.746 -22.743 -15.827  0.00  0.00    +0.147 C 
ATOM     26  C   UNL     1      31.701 -23.540 -14.683  0.00  0.00    +0.069 C 
ATOM     27  C   UNL     1      30.573 -22.458 -16.525  0.00  0.00    +0.067 C 
ATOM     28  C   UNL     1      30.483 -24.052 -14.238  0.00  0.00    +0.012 C 
ATOM     29  C   UNL     1      29.354 -22.969 -16.079  0.00  0.00    +0.143 C 
ATOM     30  C   UNL     1      29.309 -23.767 -14.936  0.00  0.00    +0.030 C 
ENDBRANCH  22  25
ENDBRANCH   4  22
TORSDOF 6
ENDMDL
MODEL 4
REMARK VINA RESULT:     -10.8      6.633     10.077
REMARK  Name = 24988881
REMARK  6 active torsions:
REMARK  status: ('A' for Active; 'I' for Inactive)
REMARK    1  A    between atoms: C_4  and  O_22
REMARK    2  A    between atoms: C_11  and  C_16
REMARK    3  A    between atoms: N_14  and  C_17
REMARK    4  A    between atoms: C_17  and  C_19
REMARK    5  A    between atoms: C_19  and  O_20
REMARK    6  A    between atoms: O_22  and  C_25
REMARK                            x       y       z     vdW  Elec       q    Type
REMARK                         _______ _______ _______ _____ _____    ______ ____
ROOT
ATOM      1  O   UNL     1      34.126 -21.928 -17.118  0.00  0.00    -0.342 OA
ATOM      2  N   UNL     1      35.340 -20.489 -20.095  0.00  0.00    -0.290 N 
ATOM      3  N   UNL     1      33.876 -21.317 -18.341  0.00  0.00    -0.061 NA
ATOM      4  C   UNL     1      35.087 -17.860 -21.220  0.00  0.00    +0.169 C 
ATOM      5  C   UNL     1      33.868 -18.763 -20.996  0.00  0.00    +0.065 C 
ATOM      6  C   UNL     1      36.230 -18.218 -20.265  0.00  0.00    +0.065 C 
ATOM      7  C   UNL     1      34.252 -20.243 -21.051  0.00  0.00    +0.096 C 
ATOM      8  C   UNL     1      36.556 -19.709 -20.342  0.00  0.00    +0.096 C 
ATOM      9  C   UNL     1      35.082 -21.089 -18.867  0.00  0.00    +0.175 C 
ATOM     10  C   UNL     1      36.121 -21.532 -18.031  0.00  0.00    +0.088 C 
ATOM     11  C   UNL     1      35.467 -22.051 -16.945  0.00  0.00    +0.242 C 
ENDROOT
BRANCH  11  16
ATOM     12  N   UNL     1      35.777 -23.862 -15.298  0.00  0.00    -0.103 NA
ATOM     13  N   UNL     1      37.089 -22.033 -15.053  0.00  0.00    -0.083 NA
ATOM     14  N   UNL     1      36.620 -23.930 -14.258  0.00  0.00    -0.103 N 
ATOM     15  N   UNL     1      37.417 -22.868 -14.075  0.00  0.00    -0.018 NA
ATOM     16  C   UNL     1      36.108 -22.655 -15.764  0.00  0.00    +0.112 C 
BRANCH  14  17
ATOM     17  C   UNL     1      36.668 -25.078 -13.389  0.00  0.00    +0.246 C 
BRANCH  17  19
ATOM     18  O   UNL     1      37.924 -26.925 -14.303  0.00  0.00    -0.248 OA
ATOM     19  C   UNL     1      36.848 -26.361 -14.157  0.00  0.00    +0.338 C 
BRANCH  19  20
ATOM     20  O   UNL     1      35.690 -26.813 -14.700  0.00  0.00    -0.479 OA
ATOM     21  H   UNL     1      35.652 -27.672 -15.072  0.00  0.00    +0.295 HD
ENDBRANCH  19  20
ENDBRANCH  17  19
ENDBRANCH  14  17
ENDBRANCH  11  16
BRANCH   4  22
ATOM     22  O   UNL     1      34.716 -16.498 -21.037  0.00  0.00    -0.478 OA
BRANCH  22  25
ATOM     23 BR   UNL     1      33.717 -13.609 -20.394  0.00  0.00    -0.046 Br
ATOM     24  F   UNL     1      33.807 -16.470 -25.694  0.00  0.00    -0.204 F 
ATOM     25  C   UNL     1      34.244 -15.834 -22.139  0.00  0.00    +0.147 C 
ATOM     26  C   UNL     1      33.755 -14.530 -22.049  0.00  0.00    +0.069 C 
ATOM     27  C   UNL     1      34.262 -16.489 -23.370  0.00  0.00    +0.067 C 
ATOM     28  C   UNL     1      33.284 -13.883 -23.190  0.00  0.00    +0.012 C 
ATOM     29  C   UNL     1      33.791 -15.841 -24.512  0.00  0.00    +0.143 C 
ATOM     30  C   UNL     1      33.301 -14.538 -24.422  0.00  0.00    +0.030 C 
ENDBRANCH  22  25
ENDBRANCH   4  22
TORSDOF 6
ENDMDL
MODEL 5
REMARK VINA RESULT:     -10.5      7.210     13.125
REMARK  Name = 24988881
REMARK  6 active torsions:
REMARK  status: ('A' for Active; 'I' for Inactive)
REMARK    1  A    between atoms: C_4  and  O_22
REMARK    2  A    between atoms: C_11  and  C_16
REMARK    3  A    between atoms: N_14  and  C_17
REMARK    4  A    between atoms: C_17  and  C_19
REMARK    5  A    between atoms: C_19  and  O_20
REMARK    6  A    between atoms: O_22  and  C_25
REMARK                            x       y       z     vdW  Elec       q    Type
REMARK                         _______ _______ _______ _____ _____    ______ ____
ROOT
ATOM      1  O   UNL     1      35.745 -17.479 -21.063  0.00  0.00    -0.342 OA
ATOM      2  N   UNL     1      35.174 -20.832 -20.144  0.00  0.00    -0.290 N 
ATOM      3  N   UNL     1      36.041 -18.564 -20.245  0.00  0.00    -0.061 NA
ATOM      4  C   UNL     1      34.275 -22.045 -17.703  0.00  0.00    +0.169 C 
ATOM      5  C   UNL     1      35.591 -21.263 -17.778  0.00  0.00    +0.065 C 
ATOM      6  C   UNL     1      33.289 -21.585 -18.781  0.00  0.00    +0.065 C 
ATOM      7  C   UNL     1      36.185 -21.302 -19.189  0.00  0.00    +0.096 C 
ATOM      8  C   UNL     1      33.938 -21.621 -20.164  0.00  0.00    +0.096 C 
ATOM      9  C   UNL     1      35.237 -19.544 -20.666  0.00  0.00    +0.175 C 
ATOM     10  C   UNL     1      34.420 -19.141 -21.736  0.00  0.00    +0.088 C 
ATOM     11  C   UNL     1      34.778 -17.836 -21.947  0.00  0.00    +0.242 C 
ENDROOT
BRANCH  11  16
ATOM     12  N   UNL     1      34.051 -15.632 -22.785  0.00  0.00    -0.103 NA
ATOM     13  N   UNL     1      33.803 -17.385 -24.196  0.00  0.00    -0.083 NA
ATOM     14  N   UNL     1      33.519 -15.307 -23.971  0.00  0.00    -0.103 N 
ATOM     15  N   UNL     1      33.354 -16.314 -24.840  0.00  0.00    -0.018 NA
ATOM     16  C   UNL     1      34.211 -16.945 -22.973  0.00  0.00    +0.112 C 
BRANCH  14  17
ATOM     17  C   UNL     1      33.148 -13.954 -24.296  0.00  0.00    +0.246 C 
BRANCH  17  19
ATOM     18  O   UNL     1      31.885 -12.756 -22.623  0.00  0.00    -0.248 OA
ATOM     19  C   UNL     1      32.973 -13.105 -23.064  0.00  0.00    +0.338 C 
BRANCH  19  20
ATOM     20  O   UNL     1      34.154 -12.737 -22.509  0.00  0.00    -0.479 OA
ATOM     21  H   UNL     1      34.169 -12.337 -21.662  0.00  0.00    +0.295 HD
ENDBRANCH  19  20
ENDBRANCH  17  19
ENDBRANCH  14  17
ENDBRANCH  11  16
BRANCH   4  22
ATOM     22  O   UNL     1      33.692 -21.881 -16.416  0.00  0.00    -0.478 OA
BRANCH  22  25
ATOM     23 BR   UNL     1      31.515 -22.591 -14.291  0.00  0.00    -0.046 Br
ATOM     24  F   UNL     1      37.280 -24.325 -14.499  0.00  0.00    -0.204 F 
ATOM     25  C   UNL     1      34.159 -22.697 -15.418  0.00  0.00    +0.147 C 
ATOM     26  C   UNL     1      33.331 -23.122 -14.378  0.00  0.00    +0.069 C 
ATOM     27  C   UNL     1      35.493 -23.104 -15.459  0.00  0.00    +0.067 C 
ATOM     28  C   UNL     1      33.838 -23.953 -13.379  0.00  0.00    +0.012 C 
ATOM     29  C   UNL     1      35.999 -23.935 -14.461  0.00  0.00    +0.143 C 
ATOM     30  C   UNL     1      35.172 -24.359 -13.421  0.00  0.00    +0.030 C 
ENDBRANCH  22  25
ENDBRANCH   4  22
TORSDOF 6
ENDMDL
MODEL 6
REMARK VINA RESULT:     -10.4      6.157      9.212
REMARK  Name = 24988881
REMARK  6 active torsions:
REMARK  status: ('A' for Active; 'I' for Inactive)
REMARK    1  A    between atoms: C_4  and  O_22
REMARK    2  A    between atoms: C_11  and  C_16
REMARK    3  A    between atoms: N_14  and  C_17
REMARK    4  A    between atoms: C_17  and  C_19
REMARK    5  A    between atoms: C_19  and  O_20
REMARK    6  A    between atoms: O_22  and  C_25
REMARK                            x       y       z     vdW  Elec       q    Type
REMARK                         _______ _______ _______ _____ _____    ______ ____
ROOT
ATOM      1  O   UNL     1      31.939 -21.256 -18.858  0.00  0.00    -0.342 OA
ATOM      2  N   UNL     1      34.437 -19.998 -21.000  0.00  0.00    -0.290 N 
ATOM      3  N   UNL     1      32.290 -20.538 -19.995  0.00  0.00    -0.061 NA
ATOM      4  C   UNL     1      35.165 -17.330 -21.769  0.00  0.00    +0.169 C 
ATOM      5  C   UNL     1      33.793 -17.921 -22.109  0.00  0.00    +0.065 C 
ATOM      6  C   UNL     1      35.774 -18.005 -20.536  0.00  0.00    +0.065 C 
ATOM      7  C   UNL     1      33.855 -19.446 -22.231  0.00  0.00    +0.096 C 
ATOM      8  C   UNL     1      35.791 -19.524 -20.699  0.00  0.00    +0.096 C 
ATOM      9  C   UNL     1      33.625 -20.581 -20.033  0.00  0.00    +0.175 C 
ATOM     10  C   UNL     1      34.166 -21.306 -18.957  0.00  0.00    +0.088 C 
ATOM     11  C   UNL     1      33.064 -21.709 -18.248  0.00  0.00    +0.242 C 
ENDROOT
BRANCH  11  16
ATOM     12  N   UNL     1      34.214 -22.945 -16.450  0.00  0.00    -0.103 NA
ATOM     13  N   UNL     1      31.953 -22.875 -16.347  0.00  0.00    -0.083 NA
ATOM     14  N   UNL     1      33.695 -23.597 -15.400  0.00  0.00    -0.103 N 
ATOM     15  N   UNL     1      32.359 -23.582 -15.298  0.00  0.00    -0.018 NA
ATOM     16  C   UNL     1      33.084 -22.511 -17.014  0.00  0.00    +0.112 C 
BRANCH  14  17
ATOM     17  C   UNL     1      34.524 -24.273 -14.435  0.00  0.00    +0.246 C 
BRANCH  17  19
ATOM     18  O   UNL     1      35.646 -26.197 -15.366  0.00  0.00    -0.248 OA
ATOM     19  C   UNL     1      35.668 -25.005 -15.088  0.00  0.00    +0.338 C 
BRANCH  19  20
ATOM     20  O   UNL     1      36.743 -24.208 -15.307  0.00  0.00    -0.479 OA
ATOM     21  H   UNL     1      36.689 -23.289 -15.131  0.00  0.00    +0.295 HD
ENDBRANCH  19  20
ENDBRANCH  17  19
ENDBRANCH  14  17
ENDBRANCH  11  16
BRANCH   4  22
ATOM     22  O   UNL     1      35.043 -15.931 -21.541  0.00  0.00    -0.478 OA
BRANCH  22  25
ATOM     23 BR   UNL     1      33.603 -13.474 -20.255  0.00  0.00    -0.046 Br
ATOM     24  F   UNL     1      33.424 -15.378 -25.968  0.00  0.00    -0.204 F 
ATOM     25  C   UNL     1      34.281 -15.224 -22.435  0.00  0.00    +0.147 C 
ATOM     26  C   UNL     1      33.563 -14.093 -22.046  0.00  0.00    +0.069 C 
ATOM     27  C   UNL     1      34.234 -15.658 -23.760  0.00  0.00    +0.067 C 
ATOM     28  C   UNL     1      32.798 -13.397 -22.981  0.00  0.00    +0.012 C 
ATOM     29  C   UNL     1      33.470 -14.962 -24.696  0.00  0.00    +0.143 C 
ATOM     30  C   UNL     1      32.752 -13.831 -24.306  0.00  0.00    +0.030 C 
ENDBRANCH  22  25
ENDBRANCH   4  22
TORSDOF 6
ENDMDL
MODEL 7
REMARK VINA RESULT:     -10.3      7.502     13.035
REMARK  Name = 24988881
REMARK  6 active torsions:
REMARK  status: ('A' for Active; 'I' for Inactive)
REMARK    1  A    between atoms: C_4  and  O_22
REMARK    2  A    between atoms: C_11  and  C_16
REMARK    3  A    between atoms: N_14  and  C_17
REMARK    4  A    between atoms: C_17  and  C_19
REMARK    5  A    between atoms: C_19  and  O_20
REMARK    6  A    between atoms: O_22  and  C_25
REMARK                            x       y       z     vdW  Elec       q    Type
REMARK                         _______ _______ _______ _____ _____    ______ ____
ROOT
ATOM      1  O   UNL     1      35.989 -18.093 -20.606  0.00  0.00    -0.342 OA
ATOM      2  N   UNL     1      34.290 -21.094 -19.888  0.00  0.00    -0.290 N 
ATOM      3  N   UNL     1      35.953 -19.323 -19.960  0.00  0.00    -0.061 NA
ATOM      4  C   UNL     1      33.360 -22.253 -17.432  0.00  0.00    +0.169 C 
ATOM      5  C   UNL     1      34.850 -22.014 -17.697  0.00  0.00    +0.065 C 
ATOM      6  C   UNL     1      32.485 -21.297 -18.250  0.00  0.00    +0.065 C 
ATOM      7  C   UNL     1      35.164 -22.049 -19.195  0.00  0.00    +0.096 C 
ATOM      8  C   UNL     1      32.855 -21.355 -19.731  0.00  0.00    +0.096 C 
ATOM      9  C   UNL     1      34.775 -19.857 -20.297  0.00  0.00    +0.175 C 
ATOM     10  C   UNL     1      34.033 -19.017 -21.146  0.00  0.00    +0.088 C 
ATOM     11  C   UNL     1      34.841 -17.922 -21.309  0.00  0.00    +0.242 C 
ENDROOT
BRANCH  11  16
ATOM     12  N   UNL     1      34.175 -16.810 -23.408  0.00  0.00    -0.103 NA
ATOM     13  N   UNL     1      34.559 -15.466 -21.628  0.00  0.00    -0.083 NA
ATOM     14  N   UNL     1      34.004 -15.506 -23.663  0.00  0.00    -0.103 N 
ATOM     15  N   UNL     1      34.220 -14.672 -22.636  0.00  0.00    -0.018 NA
ATOM     16  C   UNL     1      34.524 -16.735 -22.122  0.00  0.00    +0.112 C 
BRANCH  14  17
ATOM     17  C   UNL     1      33.608 -15.026 -24.962  0.00  0.00    +0.246 C 
BRANCH  17  19
ATOM     18  O   UNL     1      32.654 -12.976 -25.805  0.00  0.00    -0.248 OA
ATOM     19  C   UNL     1      32.802 -13.757 -24.874  0.00  0.00    +0.338 C 
BRANCH  19  20
ATOM     20  O   UNL     1      32.280 -13.552 -23.639  0.00  0.00    -0.479 OA
ATOM     21  H   UNL     1      32.622 -14.020 -22.903  0.00  0.00    +0.295 HD
ENDBRANCH  19  20
ENDBRANCH  17  19
ENDBRANCH  14  17
ENDBRANCH  11  16
BRANCH   4  22
ATOM     22  O   UNL     1      33.086 -22.088 -16.045  0.00  0.00    -0.478 OA
BRANCH  22  25
ATOM     23 BR   UNL     1      34.146 -23.791 -13.650  0.00  0.00    -0.046 Br
ATOM     24  F   UNL     1      28.622 -23.697 -16.053  0.00  0.00    -0.204 F 
ATOM     25  C   UNL     1      32.131 -22.907 -15.503  0.00  0.00    +0.147 C 
ATOM     26  C   UNL     1      32.416 -23.744 -14.423  0.00  0.00    +0.069 C 
ATOM     27  C   UNL     1      30.849 -22.891 -16.053  0.00  0.00    +0.067 C 
ATOM     28  C   UNL     1      31.420 -24.564 -13.895  0.00  0.00    +0.012 C 
ATOM     29  C   UNL     1      29.853 -23.712 -15.524  0.00  0.00    +0.143 C 
ATOM     30  C   UNL     1      30.139 -24.548 -14.445  0.00  0.00    +0.030 C 
ENDBRANCH  22  25
ENDBRANCH   4  22
TORSDOF 6
ENDMDL
MODEL 8
REMARK VINA RESULT:     -10.2      1.227      1.679
REMARK  Name = 24988881
REMARK  6 active torsions:
REMARK  status: ('A' for Active; 'I' for Inactive)
REMARK    1  A    between atoms: C_4  and  O_22
REMARK    2  A    between atoms: C_11  and  C_16
REMARK    3  A    between atoms: N_14  and  C_17
REMARK    4  A    between atoms: C_17  and  C_19
REMARK    5  A    between atoms: C_19  and  O_20
REMARK    6  A    between atoms: O_22  and  C_25
REMARK                            x       y       z     vdW  Elec       q    Type
REMARK                         _______ _______ _______ _____ _____    ______ ____
ROOT
ATOM      1  O   UNL     1      31.972 -12.995 -21.233  0.00  0.00    -0.342 OA
ATOM      2  N   UNL     1      32.556 -10.405 -23.547  0.00  0.00    -0.290 N 
ATOM      3  N   UNL     1      31.597 -11.776 -21.784  0.00  0.00    -0.061 NA
ATOM      4  C   UNL     1      33.082  -7.602 -23.225  0.00  0.00    +0.169 C 
ATOM      5  C   UNL     1      31.758  -8.231 -22.776  0.00  0.00    +0.065 C 
ATOM      6  C   UNL     1      34.214  -8.634 -23.243  0.00  0.00    +0.065 C 
ATOM      7  C   UNL     1      31.422  -9.474 -23.603  0.00  0.00    +0.096 C 
ATOM      8  C   UNL     1      33.817  -9.862 -24.061  0.00  0.00    +0.096 C 
ATOM      9  C   UNL     1      32.515 -11.524 -22.722  0.00  0.00    +0.175 C 
ATOM     10  C   UNL     1      33.482 -12.540 -22.808  0.00  0.00    +0.088 C 
ATOM     11  C   UNL     1      33.095 -13.441 -21.851  0.00  0.00    +0.242 C 
ENDROOT
BRANCH  11  16
ATOM     12  N   UNL     1      34.187 -15.564 -22.470  0.00  0.00    -0.103 NA
ATOM     13  N   UNL     1      34.063 -15.096 -20.258  0.00  0.00    -0.083 NA
ATOM     14  N   UNL     1      34.728 -16.504 -21.682  0.00  0.00    -0.103 N 
ATOM     15  N   UNL     1      34.677 -16.268 -20.364  0.00  0.00    -0.018 NA
ATOM     16  C   UNL     1      33.783 -14.704 -21.533  0.00  0.00    +0.112 C 
BRANCH  14  17
ATOM     17  C   UNL     1      35.331 -17.697 -22.220  0.00  0.00    +0.246 C 
BRANCH  17  19
ATOM     18  O   UNL     1      35.282 -19.485 -20.599  0.00  0.00    -0.248 OA
ATOM     19  C   UNL     1      35.901 -18.577 -21.139  0.00  0.00    +0.338 C 
BRANCH  19  20
ATOM     20  O   UNL     1      37.170 -18.238 -20.801  0.00  0.00    -0.479 OA
ATOM     21  H   UNL     1      37.804 -18.070 -21.471  0.00  0.00    +0.295 HD
ENDBRANCH  19  20
ENDBRANCH  17  19
ENDBRANCH  14  17
ENDBRANCH  11  16
BRANCH   4  22
ATOM     22  O   UNL     1      33.423  -6.528 -22.355  0.00  0.00    -0.478 OA
BRANCH  22  25
ATOM     23 BR   UNL     1      33.776  -4.538 -24.737  0.00  0.00    -0.046 Br
ATOM     24  F   UNL     1      29.871  -4.276 -20.158  0.00  0.00    -0.204 F 
ATOM     25  C   UNL     1      32.551  -5.472 -22.307  0.00  0.00    +0.147 C 
ATOM     26  C   UNL     1      32.558  -4.478 -23.287  0.00  0.00    +0.069 C 
ATOM     27  C   UNL     1      31.644  -5.404 -21.250  0.00  0.00    +0.067 C 
ATOM     28  C   UNL     1      31.657  -3.417 -23.209  0.00  0.00    +0.012 C 
ATOM     29  C   UNL     1      30.742  -4.343 -21.173  0.00  0.00    +0.143 C 
ATOM     30  C   UNL     1      30.749  -3.349 -22.152  0.00  0.00    +0.030 C 
ENDBRANCH  22  25
ENDBRANCH   4  22
TORSDOF 6
ENDMDL
MODEL 9
REMARK VINA RESULT:     -10.0      7.620     13.258
REMARK  Name = 24988881
REMARK  6 active torsions:
REMARK  status: ('A' for Active; 'I' for Inactive)
REMARK    1  A    between atoms: C_4  and  O_22
REMARK    2  A    between atoms: C_11  and  C_16
REMARK    3  A    between atoms: N_14  and  C_17
REMARK    4  A    between atoms: C_17  and  C_19
REMARK    5  A    between atoms: C_19  and  O_20
REMARK    6  A    between atoms: O_22  and  C_25
REMARK                            x       y       z     vdW  Elec       q    Type
REMARK                         _______ _______ _______ _____ _____    ______ ____
ROOT
ATOM      1  O   UNL     1      36.101 -17.540 -20.693  0.00  0.00    -0.342 OA
ATOM      2  N   UNL     1      34.936 -20.804 -20.061  0.00  0.00    -0.290 N 
ATOM      3  N   UNL     1      36.257 -18.764 -20.052  0.00  0.00    -0.061 NA
ATOM      4  C   UNL     1      34.118 -22.136 -17.653  0.00  0.00    +0.169 C 
ATOM      5  C   UNL     1      35.552 -21.631 -17.848  0.00  0.00    +0.065 C 
ATOM      6  C   UNL     1      33.125 -21.344 -18.510  0.00  0.00    +0.065 C 
ATOM      7  C   UNL     1      35.935 -21.594 -19.330  0.00  0.00    +0.096 C 
ATOM      8  C   UNL     1      33.567 -21.319 -19.972  0.00  0.00    +0.096 C 
ATOM      9  C   UNL     1      35.211 -19.496 -20.445  0.00  0.00    +0.175 C 
ATOM     10  C   UNL     1      34.369 -18.794 -21.326  0.00  0.00    +0.088 C 
ATOM     11  C   UNL     1      34.974 -17.571 -21.449  0.00  0.00    +0.242 C 
ENDROOT
BRANCH  11  16
ATOM     12  N   UNL     1      34.114 -16.599 -23.547  0.00  0.00    -0.103 NA
ATOM     13  N   UNL     1      34.375 -15.177 -21.804  0.00  0.00    -0.083 NA
ATOM     14  N   UNL     1      33.772 -15.332 -23.820  0.00  0.00    -0.103 N 
ATOM     15  N   UNL     1      33.910 -14.455 -22.816  0.00  0.00    -0.018 NA
ATOM     16  C   UNL     1      34.487 -16.452 -22.273  0.00  0.00    +0.112 C 
BRANCH  14  17
ATOM     17  C   UNL     1      33.283 -14.935 -25.116  0.00  0.00    +0.246 C 
BRANCH  17  19
ATOM     18  O   UNL     1      33.003 -12.702 -25.986  0.00  0.00    -0.248 OA
ATOM     19  C   UNL     1      32.757 -13.524 -25.113  0.00  0.00    +0.338 C 
BRANCH  19  20
ATOM     20  O   UNL     1      32.005 -13.247 -24.019  0.00  0.00    -0.479 OA
ATOM     21  H   UNL     1      31.331 -13.841 -23.752  0.00  0.00    +0.295 HD
ENDBRANCH  19  20
ENDBRANCH  17  19
ENDBRANCH  14  17
ENDBRANCH  11  16
BRANCH   4  22
ATOM     22  O   UNL     1      33.757 -22.037 -16.281  0.00  0.00    -0.478 OA
BRANCH  22  25
ATOM     23 BR   UNL     1      31.875 -23.438 -14.218  0.00  0.00    -0.046 Br
ATOM     24  F   UNL     1      37.858 -23.883 -14.767  0.00  0.00    -0.204 F 
ATOM     25  C   UNL     1      34.428 -22.850 -15.405  0.00  0.00    +0.147 C 
ATOM     26  C   UNL     1      33.756 -23.561 -14.411  0.00  0.00    +0.069 C 
ATOM     27  C   UNL     1      35.814 -22.959 -15.526  0.00  0.00    +0.067 C 
ATOM     28  C   UNL     1      34.470 -24.381 -13.537  0.00  0.00    +0.012 C 
ATOM     29  C   UNL     1      36.527 -23.779 -14.652  0.00  0.00    +0.143 C 
ATOM     30  C   UNL     1      35.855 -24.489 -13.657  0.00  0.00    +0.030 C 
ENDBRANCH  22  25
ENDBRANCH   4  22
TORSDOF 6
ENDMDL
