MODEL 1
REMARK VINA RESULT:     -10.7      0.000      0.000
REMARK  Name = 5311100
REMARK  16 active torsions:
REMARK  status: ('A' for Active; 'I' for Inactive)
REMARK    1  A    between atoms: C_1  and  C_27
REMARK    2  A    between atoms: C_2  and  C_10
REMARK    3  A    between atoms: C_3  and  O_6
REMARK    4  A    between atoms: C_4  and  O_8
REMARK    5  A    between atoms: C_11  and  C_12
REMARK    6  A    between atoms: C_12  and  O_13
REMARK    7  A    between atoms: C_12  and  C_15
REMARK    8  A    between atoms: C_15  and  O_16
REMARK    9  A    between atoms: O_16  and  C_17
REMARK   10  A    between atoms: C_20  and  C_26
REMARK   11  A    between atoms: C_27  and  C_28
REMARK   12  A    between atoms: C_29  and  C_30
REMARK   13  A    between atoms: C_30  and  C_31
REMARK   14  A    between atoms: C_31  and  C_32
REMARK   15  A    between atoms: C_32  and  C_34
REMARK   16  A    between atoms: C_34  and  O_35
REMARK                            x       y       z     vdW  Elec       q    Type
REMARK                         _______ _______ _______ _____ _____    ______ ____
ROOT
ATOM      1  C   UNL     1      33.391 -23.869 -13.389  0.00  0.00    +0.038 C 
ATOM      2  C   UNL     1      33.324 -22.862 -14.549  0.00  0.00    +0.051 C 
ATOM      3  C   UNL     1      31.911 -24.157 -13.120  0.00  0.00    +0.114 C 
ATOM      4  C   UNL     1      32.167 -23.382 -15.422  0.00  0.00    +0.117 C 
ATOM      5  C   UNL     1      31.314 -24.290 -14.521  0.00  0.00    +0.059 C 
ENDROOT
BRANCH   3   6
ATOM      6  O   UNL     1      31.271 -23.104 -12.409  0.00  0.00    -0.384 OA
ATOM      7  H   UNL     1      31.754 -22.275 -12.556  0.00  0.00    +0.210 HD
ENDBRANCH   3   6
BRANCH   4   8
ATOM      8  O   UNL     1      31.377 -22.296 -15.889  0.00  0.00    -0.384 OA
ATOM      9  H   UNL     1      31.233 -22.388 -16.844  0.00  0.00    +0.210 HD
ENDBRANCH   4   8
BRANCH   2  10
ATOM     10  C   UNL     1      34.602 -22.748 -15.318  0.00  0.00    -0.026 C 
ATOM     11  C   UNL     1      35.507 -21.777 -15.122  0.00  0.00    +0.002 C 
BRANCH  11  12
ATOM     12  C   UNL     1      36.791 -21.664 -15.897  0.00  0.00    +0.176 C 
BRANCH  12  13
ATOM     13  O   UNL     1      37.289 -22.983 -16.099  0.00  0.00    -0.376 OA
ATOM     14  H   UNL     1      37.938 -23.193 -15.409  0.00  0.00    +0.211 HD
ENDBRANCH  12  13
BRANCH  12  15
ATOM     15  C   UNL     1      36.572 -20.999 -17.253  0.00  0.00    +0.239 C 
BRANCH  15  16
ATOM     16  O   UNL     1      35.728 -21.808 -18.058  0.00  0.00    -0.472 OA
BRANCH  16  17
ATOM     17  C   UNL     1      34.883 -21.156 -18.919  0.00  0.00    +0.139 C 
ATOM     18  C   UNL     1      35.397 -20.269 -19.865  0.00  0.00    +0.041 C 
ATOM     19  C   UNL     1      33.507 -21.381 -18.849  0.00  0.00    +0.037 C 
ATOM     20  C   UNL     1      34.537 -19.606 -20.739  0.00  0.00    +0.074 C 
ATOM     21  C   UNL     1      32.647 -20.718 -19.723  0.00  0.00    +0.003 C 
ATOM     22  C   UNL     1      33.161 -19.830 -20.669  0.00  0.00    +0.004 C 
BRANCH  20  26
ATOM     23  F   UNL     1      34.610 -17.383 -21.620  0.00  0.00    -0.166 F 
ATOM     24  F   UNL     1      36.446 -18.535 -21.703  0.00  0.00    -0.166 F 
ATOM     25  F   UNL     1      34.795 -19.027 -23.031  0.00  0.00    -0.166 F 
ATOM     26  C   UNL     1      35.086 -18.657 -21.750  0.00  0.00    +0.419 C 
ENDBRANCH  20  26
ENDBRANCH  16  17
ENDBRANCH  15  16
ENDBRANCH  12  15
ENDBRANCH  11  12
ENDBRANCH   2  10
BRANCH   1  27
ATOM     27  C   UNL     1      34.140 -23.342 -12.172  0.00  0.00    +0.028 C 
BRANCH  27  28
ATOM     28  C   UNL     1      34.942 -24.341 -11.385  0.00  0.00    -0.031 C 
ATOM     29  C   UNL     1      36.219 -24.699 -11.592  0.00  0.00    -0.031 C 
BRANCH  29  30
ATOM     30  C   UNL     1      37.075 -24.132 -12.687  0.00  0.00    +0.026 C 
BRANCH  30  31
ATOM     31  C   UNL     1      37.495 -25.168 -13.739  0.00  0.00    +0.016 C 
BRANCH  31  32
ATOM     32  C   UNL     1      38.945 -25.641 -13.600  0.00  0.00    +0.110 C 
BRANCH  32  34
ATOM     33  O   UNL     1      40.605 -23.982 -14.251  0.00  0.00    -0.250 OA
ATOM     34  C   UNL     1      39.906 -24.944 -14.539  0.00  0.00    +0.314 C 
BRANCH  34  35
ATOM     35  O   UNL     1      39.876 -25.489 -15.783  0.00  0.00    -0.480 OA
ATOM     36  H   UNL     1      39.252 -25.184 -16.413  0.00  0.00    +0.295 HD
ENDBRANCH  34  35
ENDBRANCH  32  34
ENDBRANCH  31  32
ENDBRANCH  30  31
ENDBRANCH  29  30
ENDBRANCH  27  28
ENDBRANCH   1  27
TORSDOF 16
ENDMDL
MODEL 2
REMARK VINA RESULT:     -10.7      1.662      5.118
REMARK  Name = 5311100
REMARK  16 active torsions:
REMARK  status: ('A' for Active; 'I' for Inactive)
REMARK    1  A    between atoms: C_1  and  C_27
REMARK    2  A    between atoms: C_2  and  C_10
REMARK    3  A    between atoms: C_3  and  O_6
REMARK    4  A    between atoms: C_4  and  O_8
REMARK    5  A    between atoms: C_11  and  C_12
REMARK    6  A    between atoms: C_12  and  O_13
REMARK    7  A    between atoms: C_12  and  C_15
REMARK    8  A    between atoms: C_15  and  O_16
REMARK    9  A    between atoms: O_16  and  C_17
REMARK   10  A    between atoms: C_20  and  C_26
REMARK   11  A    between atoms: C_27  and  C_28
REMARK   12  A    between atoms: C_29  and  C_30
REMARK   13  A    between atoms: C_30  and  C_31
REMARK   14  A    between atoms: C_31  and  C_32
REMARK   15  A    between atoms: C_32  and  C_34
REMARK   16  A    between atoms: C_34  and  O_35
REMARK                            x       y       z     vdW  Elec       q    Type
REMARK                         _______ _______ _______ _____ _____    ______ ____
ROOT
ATOM      1  C   UNL     1      36.450 -23.532 -12.868  0.00  0.00    +0.038 C 
ATOM      2  C   UNL     1      36.513 -24.171 -14.265  0.00  0.00    +0.051 C 
ATOM      3  C   UNL     1      37.216 -24.543 -12.010  0.00  0.00    +0.114 C 
ATOM      4  C   UNL     1      37.932 -24.764 -14.334  0.00  0.00    +0.117 C 
ATOM      5  C   UNL     1      38.415 -24.913 -12.882  0.00  0.00    +0.059 C 
ENDROOT
BRANCH   3   6
ATOM      6  O   UNL     1      36.445 -25.702 -11.714  0.00  0.00    -0.384 OA
ATOM      7  H   UNL     1      35.960 -25.564 -10.885  0.00  0.00    +0.210 HD
ENDBRANCH   3   6
BRANCH   4   8
ATOM      8  O   UNL     1      37.902 -26.040 -14.960  0.00  0.00    -0.384 OA
ATOM      9  H   UNL     1      38.785 -26.440 -14.922  0.00  0.00    +0.210 HD
ENDBRANCH   4   8
BRANCH   2  10
ATOM     10  C   UNL     1      36.250 -23.206 -15.377  0.00  0.00    -0.026 C 
ATOM     11  C   UNL     1      36.668 -21.931 -15.375  0.00  0.00    +0.002 C 
BRANCH  11  12
ATOM     12  C   UNL     1      36.402 -20.963 -16.493  0.00  0.00    +0.176 C 
BRANCH  12  13
ATOM     13  O   UNL     1      37.459 -20.007 -16.497  0.00  0.00    -0.376 OA
ATOM     14  H   UNL     1      37.583 -19.659 -15.600  0.00  0.00    +0.211 HD
ENDBRANCH  12  13
BRANCH  12  15
ATOM     15  C   UNL     1      36.359 -21.666 -17.847  0.00  0.00    +0.239 C 
BRANCH  15  16
ATOM     16  O   UNL     1      35.015 -21.943 -18.207  0.00  0.00    -0.472 OA
BRANCH  16  17
ATOM     17  C   UNL     1      34.434 -21.108 -19.127  0.00  0.00    +0.139 C 
ATOM     18  C   UNL     1      35.226 -20.247 -19.887  0.00  0.00    +0.041 C 
ATOM     19  C   UNL     1      33.049 -21.118 -19.301  0.00  0.00    +0.037 C 
ATOM     20  C   UNL     1      34.634 -19.398 -20.821  0.00  0.00    +0.074 C 
ATOM     21  C   UNL     1      32.458 -20.269 -20.235  0.00  0.00    +0.003 C 
ATOM     22  C   UNL     1      33.250 -19.408 -20.996  0.00  0.00    +0.004 C 
BRANCH  20  26
ATOM     23  F   UNL     1      36.815 -18.572 -21.355  0.00  0.00    -0.166 F 
ATOM     24  F   UNL     1      35.384 -18.690 -22.979  0.00  0.00    -0.166 F 
ATOM     25  F   UNL     1      35.160 -17.165 -21.445  0.00  0.00    -0.166 F 
ATOM     26  C   UNL     1      35.481 -18.478 -21.634  0.00  0.00    +0.419 C 
ENDBRANCH  20  26
ENDBRANCH  16  17
ENDBRANCH  15  16
ENDBRANCH  12  15
ENDBRANCH  11  12
ENDBRANCH   2  10
BRANCH   1  27
ATOM     27  C   UNL     1      35.029 -23.275 -12.383  0.00  0.00    +0.028 C 
BRANCH  27  28
ATOM     28  C   UNL     1      33.979 -24.264 -12.807  0.00  0.00    -0.031 C 
ATOM     29  C   UNL     1      32.993 -24.070 -13.696  0.00  0.00    -0.031 C 
BRANCH  29  30
ATOM     30  C   UNL     1      32.780 -22.779 -14.433  0.00  0.00    +0.026 C 
BRANCH  30  31
ATOM     31  C   UNL     1      31.302 -22.408 -14.612  0.00  0.00    +0.016 C 
BRANCH  31  32
ATOM     32  C   UNL     1      30.782 -22.596 -16.040  0.00  0.00    +0.110 C 
BRANCH  32  34
ATOM     33  O   UNL     1      28.543 -22.124 -16.872  0.00  0.00    -0.250 OA
ATOM     34  C   UNL     1      29.279 -22.753 -16.125  0.00  0.00    +0.314 C 
BRANCH  34  35
ATOM     35  O   UNL     1      28.818 -23.662 -15.227  0.00  0.00    -0.480 OA
ATOM     36  H   UNL     1      28.074 -24.193 -15.437  0.00  0.00    +0.295 HD
ENDBRANCH  34  35
ENDBRANCH  32  34
ENDBRANCH  31  32
ENDBRANCH  30  31
ENDBRANCH  29  30
ENDBRANCH  27  28
ENDBRANCH   1  27
TORSDOF 16
ENDMDL
MODEL 3
REMARK VINA RESULT:     -10.7      6.924     12.082
REMARK  Name = 5311100
REMARK  16 active torsions:
REMARK  status: ('A' for Active; 'I' for Inactive)
REMARK    1  A    between atoms: C_1  and  C_27
REMARK    2  A    between atoms: C_2  and  C_10
REMARK    3  A    between atoms: C_3  and  O_6
REMARK    4  A    between atoms: C_4  and  O_8
REMARK    5  A    between atoms: C_11  and  C_12
REMARK    6  A    between atoms: C_12  and  O_13
REMARK    7  A    between atoms: C_12  and  C_15
REMARK    8  A    between atoms: C_15  and  O_16
REMARK    9  A    between atoms: O_16  and  C_17
REMARK   10  A    between atoms: C_20  and  C_26
REMARK   11  A    between atoms: C_27  and  C_28
REMARK   12  A    between atoms: C_29  and  C_30
REMARK   13  A    between atoms: C_30  and  C_31
REMARK   14  A    between atoms: C_31  and  C_32
REMARK   15  A    between atoms: C_32  and  C_34
REMARK   16  A    between atoms: C_34  and  O_35
REMARK                            x       y       z     vdW  Elec       q    Type
REMARK                         _______ _______ _______ _____ _____    ______ ____
ROOT
ATOM      1  C   UNL     1      33.224 -14.308 -22.357  0.00  0.00    +0.038 C 
ATOM      2  C   UNL     1      34.416 -15.131 -22.872  0.00  0.00    +0.051 C 
ATOM      3  C   UNL     1      32.735 -13.609 -23.629  0.00  0.00    +0.114 C 
ATOM      4  C   UNL     1      33.947 -15.636 -24.248  0.00  0.00    +0.117 C 
ATOM      5  C   UNL     1      32.802 -14.709 -24.687  0.00  0.00    +0.059 C 
ENDROOT
BRANCH   3   6
ATOM      6  O   UNL     1      33.563 -12.514 -24.003  0.00  0.00    -0.384 OA
ATOM      7  H   UNL     1      34.149 -12.785 -24.727  0.00  0.00    +0.210 HD
ENDBRANCH   3   6
BRANCH   4   8
ATOM      8  O   UNL     1      35.011 -15.559 -25.189  0.00  0.00    -0.384 OA
ATOM      9  H   UNL     1      34.653 -15.341 -26.064  0.00  0.00    +0.210 HD
ENDBRANCH   4   8
BRANCH   2  10
ATOM     10  C   UNL     1      34.806 -16.252 -21.962  0.00  0.00    -0.026 C 
ATOM     11  C   UNL     1      35.205 -17.459 -22.392  0.00  0.00    +0.002 C 
BRANCH  11  12
ATOM     12  C   UNL     1      35.595 -18.585 -21.476  0.00  0.00    +0.176 C 
BRANCH  12  13
ATOM     13  O   UNL     1      36.341 -18.025 -20.399  0.00  0.00    -0.376 OA
ATOM     14  H   UNL     1      36.734 -18.738 -19.872  0.00  0.00    +0.211 HD
ENDBRANCH  12  13
BRANCH  12  15
ATOM     15  C   UNL     1      34.371 -19.303 -20.916  0.00  0.00    +0.239 C 
BRANCH  15  16
ATOM     16  O   UNL     1      34.651 -20.686 -20.756  0.00  0.00    -0.472 OA
BRANCH  16  17
ATOM     17  C   UNL     1      34.597 -21.186 -19.481  0.00  0.00    +0.139 C 
ATOM     18  C   UNL     1      35.688 -21.036 -18.624  0.00  0.00    +0.041 C 
ATOM     19  C   UNL     1      33.450 -21.847 -19.039  0.00  0.00    +0.037 C 
ATOM     20  C   UNL     1      35.632 -21.547 -17.328  0.00  0.00    +0.074 C 
ATOM     21  C   UNL     1      33.394 -22.357 -17.743  0.00  0.00    +0.003 C 
ATOM     22  C   UNL     1      34.485 -22.207 -16.886  0.00  0.00    +0.004 C 
BRANCH  20  26
ATOM     23  F   UNL     1      37.740 -22.367 -16.549  0.00  0.00    -0.166 F 
ATOM     24  F   UNL     1      37.477 -20.215 -16.591  0.00  0.00    -0.166 F 
ATOM     25  F   UNL     1      36.439 -21.406 -15.096  0.00  0.00    -0.166 F 
ATOM     26  C   UNL     1      36.798 -21.387 -16.412  0.00  0.00    +0.419 C 
ENDBRANCH  20  26
ENDBRANCH  16  17
ENDBRANCH  15  16
ENDBRANCH  12  15
ENDBRANCH  11  12
ENDBRANCH   2  10
BRANCH   1  27
ATOM     27  C   UNL     1      33.592 -13.344 -21.236  0.00  0.00    +0.028 C 
BRANCH  27  28
ATOM     28  C   UNL     1      32.501 -12.985 -20.266  0.00  0.00    -0.031 C 
ATOM     29  C   UNL     1      31.611 -11.986 -20.378  0.00  0.00    -0.031 C 
BRANCH  29  30
ATOM     30  C   UNL     1      31.570 -11.037 -21.541  0.00  0.00    +0.026 C 
BRANCH  30  31
ATOM     31  C   UNL     1      30.839  -9.722 -21.237  0.00  0.00    +0.016 C 
BRANCH  31  32
ATOM     32  C   UNL     1      31.362  -8.992 -19.996  0.00  0.00    +0.110 C 
BRANCH  32  34
ATOM     33  O   UNL     1      31.183  -6.830 -21.101  0.00  0.00    -0.250 OA
ATOM     34  C   UNL     1      31.689  -7.535 -20.239  0.00  0.00    +0.314 C 
BRANCH  34  35
ATOM     35  O   UNL     1      32.663  -7.093 -19.401  0.00  0.00    -0.480 OA
ATOM     36  H   UNL     1      33.553  -7.351 -19.541  0.00  0.00    +0.295 HD
ENDBRANCH  34  35
ENDBRANCH  32  34
ENDBRANCH  31  32
ENDBRANCH  30  31
ENDBRANCH  29  30
ENDBRANCH  27  28
ENDBRANCH   1  27
TORSDOF 16
ENDMDL
MODEL 4
REMARK VINA RESULT:     -10.6      3.345      5.219
REMARK  Name = 5311100
REMARK  16 active torsions:
REMARK  status: ('A' for Active; 'I' for Inactive)
REMARK    1  A    between atoms: C_1  and  C_27
REMARK    2  A    between atoms: C_2  and  C_10
REMARK    3  A    between atoms: C_3  and  O_6
REMARK    4  A    between atoms: C_4  and  O_8
REMARK    5  A    between atoms: C_11  and  C_12
REMARK    6  A    between atoms: C_12  and  O_13
REMARK    7  A    between atoms: C_12  and  C_15
REMARK    8  A    between atoms: C_15  and  O_16
REMARK    9  A    between atoms: O_16  and  C_17
REMARK   10  A    between atoms: C_20  and  C_26
REMARK   11  A    between atoms: C_27  and  C_28
REMARK   12  A    between atoms: C_29  and  C_30
REMARK   13  A    between atoms: C_30  and  C_31
REMARK   14  A    between atoms: C_31  and  C_32
REMARK   15  A    between atoms: C_32  and  C_34
REMARK   16  A    between atoms: C_34  and  O_35
REMARK                            x       y       z     vdW  Elec       q    Type
REMARK                         _______ _______ _______ _____ _____    ______ ____
ROOT
ATOM      1  C   UNL     1      35.173 -22.163 -17.406  0.00  0.00    +0.038 C 
ATOM      2  C   UNL     1      34.327 -21.262 -18.321  0.00  0.00    +0.051 C 
ATOM      3  C   UNL     1      34.106 -22.876 -16.571  0.00  0.00    +0.114 C 
ATOM      4  C   UNL     1      33.110 -22.136 -18.674  0.00  0.00    +0.117 C 
ATOM      5  C   UNL     1      33.029 -23.229 -17.596  0.00  0.00    +0.059 C 
ENDROOT
BRANCH   3   6
ATOM      6  O   UNL     1      33.563 -22.043 -15.554  0.00  0.00    -0.384 OA
ATOM      7  H   UNL     1      32.938 -21.414 -15.950  0.00  0.00    +0.210 HD
ENDBRANCH   3   6
BRANCH   4   8
ATOM      8  O   UNL     1      31.922 -21.356 -18.653  0.00  0.00    -0.384 OA
ATOM      9  H   UNL     1      32.147 -20.430 -18.468  0.00  0.00    +0.210 HD
ENDBRANCH   4   8
BRANCH   2  10
ATOM     10  C   UNL     1      35.057 -20.793 -19.539  0.00  0.00    -0.026 C 
ATOM     11  C   UNL     1      34.626 -19.800 -20.333  0.00  0.00    +0.002 C 
BRANCH  11  12
ATOM     12  C   UNL     1      35.361 -19.331 -21.557  0.00  0.00    +0.176 C 
BRANCH  12  13
ATOM     13  O   UNL     1      34.414 -19.236 -22.618  0.00  0.00    -0.376 OA
ATOM     14  H   UNL     1      34.495 -18.370 -23.047  0.00  0.00    +0.211 HD
ENDBRANCH  12  13
BRANCH  12  15
ATOM     15  C   UNL     1      36.003 -17.964 -21.338  0.00  0.00    +0.239 C 
BRANCH  15  16
ATOM     16  O   UNL     1      35.096 -17.105 -20.665  0.00  0.00    -0.472 OA
BRANCH  16  17
ATOM     17  C   UNL     1      34.561 -16.074 -21.394  0.00  0.00    +0.139 C 
ATOM     18  C   UNL     1      33.737 -15.134 -20.774  0.00  0.00    +0.041 C 
ATOM     19  C   UNL     1      34.839 -15.966 -22.757  0.00  0.00    +0.037 C 
ATOM     20  C   UNL     1      33.193 -14.087 -21.516  0.00  0.00    +0.074 C 
ATOM     21  C   UNL     1      34.295 -14.919 -23.499  0.00  0.00    +0.003 C 
ATOM     22  C   UNL     1      33.471 -13.979 -22.879  0.00  0.00    +0.004 C 
BRANCH  20  26
ATOM     23  F   UNL     1      31.373 -13.636 -20.030  0.00  0.00    -0.166 F 
ATOM     24  F   UNL     1      32.990 -12.192 -20.070  0.00  0.00    -0.166 F 
ATOM     25  F   UNL     1      31.613 -12.326 -21.748  0.00  0.00    -0.166 F 
ATOM     26  C   UNL     1      32.312 -13.083 -20.853  0.00  0.00    +0.419 C 
ENDBRANCH  20  26
ENDBRANCH  16  17
ENDBRANCH  15  16
ENDBRANCH  12  15
ENDBRANCH  11  12
ENDBRANCH   2  10
BRANCH   1  27
ATOM     27  C   UNL     1      36.188 -21.394 -16.569  0.00  0.00    +0.028 C 
BRANCH  27  28
ATOM     28  C   UNL     1      37.432 -22.135 -16.164  0.00  0.00    -0.031 C 
ATOM     29  C   UNL     1      37.627 -22.838 -15.037  0.00  0.00    -0.031 C 
BRANCH  29  30
ATOM     30  C   UNL     1      36.586 -22.997 -13.967  0.00  0.00    +0.026 C 
BRANCH  30  31
ATOM     31  C   UNL     1      36.401 -24.447 -13.498  0.00  0.00    +0.016 C 
BRANCH  31  32
ATOM     32  C   UNL     1      35.800 -25.372 -14.560  0.00  0.00    +0.110 C 
BRANCH  32  34
ATOM     33  O   UNL     1      37.695 -26.886 -14.355  0.00  0.00    -0.250 OA
ATOM     34  C   UNL     1      36.722 -26.494 -14.984  0.00  0.00    +0.314 C 
BRANCH  34  35
ATOM     35  O   UNL     1      36.369 -27.004 -16.192  0.00  0.00    -0.480 OA
ATOM     36  H   UNL     1      35.516 -26.833 -16.542  0.00  0.00    +0.295 HD
ENDBRANCH  34  35
ENDBRANCH  32  34
ENDBRANCH  31  32
ENDBRANCH  30  31
ENDBRANCH  29  30
ENDBRANCH  27  28
ENDBRANCH   1  27
TORSDOF 16
ENDMDL
MODEL 5
REMARK VINA RESULT:     -10.3      1.684      2.547
REMARK  Name = 5311100
REMARK  16 active torsions:
REMARK  status: ('A' for Active; 'I' for Inactive)
REMARK    1  A    between atoms: C_1  and  C_27
REMARK    2  A    between atoms: C_2  and  C_10
REMARK    3  A    between atoms: C_3  and  O_6
REMARK    4  A    between atoms: C_4  and  O_8
REMARK    5  A    between atoms: C_11  and  C_12
REMARK    6  A    between atoms: C_12  and  O_13
REMARK    7  A    between atoms: C_12  and  C_15
REMARK    8  A    between atoms: C_15  and  O_16
REMARK    9  A    between atoms: O_16  and  C_17
REMARK   10  A    between atoms: C_20  and  C_26
REMARK   11  A    between atoms: C_27  and  C_28
REMARK   12  A    between atoms: C_29  and  C_30
REMARK   13  A    between atoms: C_30  and  C_31
REMARK   14  A    between atoms: C_31  and  C_32
REMARK   15  A    between atoms: C_32  and  C_34
REMARK   16  A    between atoms: C_34  and  O_35
REMARK                            x       y       z     vdW  Elec       q    Type
REMARK                         _______ _______ _______ _____ _____    ______ ____
ROOT
ATOM      1  C   UNL     1      31.964 -23.873 -14.237  0.00  0.00    +0.038 C 
ATOM      2  C   UNL     1      31.068 -22.950 -15.080  0.00  0.00    +0.051 C 
ATOM      3  C   UNL     1      30.941 -24.664 -13.418  0.00  0.00    +0.114 C 
ATOM      4  C   UNL     1      29.869 -23.841 -15.452  0.00  0.00    +0.117 C 
ATOM      5  C   UNL     1      29.849 -24.993 -14.435  0.00  0.00    +0.059 C 
ENDROOT
BRANCH   3   6
ATOM      6  O   UNL     1      30.400 -23.905 -12.343  0.00  0.00    -0.384 OA
ATOM      7  H   UNL     1      29.430 -23.922 -12.391  0.00  0.00    +0.210 HD
ENDBRANCH   3   6
BRANCH   4   8
ATOM      8  O   UNL     1      28.659 -23.100 -15.358  0.00  0.00    -0.384 OA
ATOM      9  H   UNL     1      28.001 -23.479 -15.962  0.00  0.00    +0.210 HD
ENDBRANCH   4   8
BRANCH   2  10
ATOM     10  C   UNL     1      31.752 -22.391 -16.287  0.00  0.00    -0.026 C 
ATOM     11  C   UNL     1      32.671 -23.059 -17.001  0.00  0.00    +0.002 C 
BRANCH  11  12
ATOM     12  C   UNL     1      33.358 -22.495 -18.214  0.00  0.00    +0.176 C 
BRANCH  12  13
ATOM     13  O   UNL     1      33.300 -23.482 -19.240  0.00  0.00    -0.376 OA
ATOM     14  H   UNL     1      34.199 -23.760 -19.473  0.00  0.00    +0.211 HD
ENDBRANCH  12  13
BRANCH  12  15
ATOM     15  C   UNL     1      32.675 -21.222 -18.705  0.00  0.00    +0.239 C 
BRANCH  15  16
ATOM     16  O   UNL     1      32.983 -21.004 -20.073  0.00  0.00    -0.472 OA
BRANCH  16  17
ATOM     17  C   UNL     1      34.029 -20.160 -20.347  0.00  0.00    +0.139 C 
ATOM     18  C   UNL     1      33.812 -18.995 -21.083  0.00  0.00    +0.041 C 
ATOM     19  C   UNL     1      35.311 -20.466 -19.888  0.00  0.00    +0.037 C 
ATOM     20  C   UNL     1      34.876 -18.138 -21.362  0.00  0.00    +0.074 C 
ATOM     21  C   UNL     1      36.374 -19.609 -20.166  0.00  0.00    +0.003 C 
ATOM     22  C   UNL     1      36.158 -18.444 -20.903  0.00  0.00    +0.004 C 
BRANCH  20  26
ATOM     23  F   UNL     1      34.188 -15.846 -21.399  0.00  0.00    -0.166 F 
ATOM     24  F   UNL     1      35.766 -16.422 -22.771  0.00  0.00    -0.166 F 
ATOM     25  F   UNL     1      33.720 -17.063 -23.139  0.00  0.00    -0.166 F 
ATOM     26  C   UNL     1      34.644 -16.893 -22.150  0.00  0.00    +0.419 C 
ENDBRANCH  20  26
ENDBRANCH  16  17
ENDBRANCH  15  16
ENDBRANCH  12  15
ENDBRANCH  11  12
ENDBRANCH   2  10
BRANCH   1  27
ATOM     27  C   UNL     1      32.977 -23.121 -13.384  0.00  0.00    +0.028 C 
BRANCH  27  28
ATOM     28  C   UNL     1      34.130 -23.917 -12.840  0.00  0.00    -0.031 C 
ATOM     29  C   UNL     1      35.364 -24.018 -13.359  0.00  0.00    -0.031 C 
BRANCH  29  30
ATOM     30  C   UNL     1      35.796 -23.320 -14.616  0.00  0.00    +0.026 C 
BRANCH  30  31
ATOM     31  C   UNL     1      37.309 -23.380 -14.864  0.00  0.00    +0.016 C 
BRANCH  31  32
ATOM     32  C   UNL     1      37.947 -24.723 -14.496  0.00  0.00    +0.110 C 
BRANCH  32  34
ATOM     33  O   UNL     1      40.251 -24.208 -13.898  0.00  0.00    -0.250 OA
ATOM     34  C   UNL     1      39.452 -24.746 -14.653  0.00  0.00    +0.314 C 
BRANCH  34  35
ATOM     35  O   UNL     1      39.830 -25.409 -15.777  0.00  0.00    -0.480 OA
ATOM     36  H   UNL     1      40.722 -25.673 -15.888  0.00  0.00    +0.295 HD
ENDBRANCH  34  35
ENDBRANCH  32  34
ENDBRANCH  31  32
ENDBRANCH  30  31
ENDBRANCH  29  30
ENDBRANCH  27  28
ENDBRANCH   1  27
TORSDOF 16
ENDMDL
MODEL 6
REMARK VINA RESULT:     -10.1      4.940      9.739
REMARK  Name = 5311100
REMARK  16 active torsions:
REMARK  status: ('A' for Active; 'I' for Inactive)
REMARK    1  A    between atoms: C_1  and  C_27
REMARK    2  A    between atoms: C_2  and  C_10
REMARK    3  A    between atoms: C_3  and  O_6
REMARK    4  A    between atoms: C_4  and  O_8
REMARK    5  A    between atoms: C_11  and  C_12
REMARK    6  A    between atoms: C_12  and  O_13
REMARK    7  A    between atoms: C_12  and  C_15
REMARK    8  A    between atoms: C_15  and  O_16
REMARK    9  A    between atoms: O_16  and  C_17
REMARK   10  A    between atoms: C_20  and  C_26
REMARK   11  A    between atoms: C_27  and  C_28
REMARK   12  A    between atoms: C_29  and  C_30
REMARK   13  A    between atoms: C_30  and  C_31
REMARK   14  A    between atoms: C_31  and  C_32
REMARK   15  A    between atoms: C_32  and  C_34
REMARK   16  A    between atoms: C_34  and  O_35
REMARK                            x       y       z     vdW  Elec       q    Type
REMARK                         _______ _______ _______ _____ _____    ______ ____
ROOT
ATOM      1  C   UNL     1      33.530 -20.196 -19.633  0.00  0.00    +0.038 C 
ATOM      2  C   UNL     1      34.130 -21.526 -19.147  0.00  0.00    +0.051 C 
ATOM      3  C   UNL     1      32.032 -20.510 -19.681  0.00  0.00    +0.114 C 
ATOM      4  C   UNL     1      33.115 -22.026 -18.103  0.00  0.00    +0.117 C 
ATOM      5  C   UNL     1      31.793 -21.299 -18.394  0.00  0.00    +0.059 C 
ENDROOT
BRANCH   3   6
ATOM      6  O   UNL     1      31.676 -21.295 -20.813  0.00  0.00    -0.384 OA
ATOM      7  H   UNL     1      31.835 -22.232 -20.619  0.00  0.00    +0.210 HD
ENDBRANCH   3   6
BRANCH   4   8
ATOM      8  O   UNL     1      32.927 -23.430 -18.235  0.00  0.00    -0.384 OA
ATOM      9  H   UNL     1      33.699 -23.820 -18.674  0.00  0.00    +0.210 HD
ENDBRANCH   4   8
BRANCH   2  10
ATOM     10  C   UNL     1      35.506 -21.389 -18.576  0.00  0.00    -0.026 C 
ATOM     11  C   UNL     1      35.762 -21.269 -17.264  0.00  0.00    +0.002 C 
BRANCH  11  12
ATOM     12  C   UNL     1      37.146 -21.130 -16.693  0.00  0.00    +0.176 C 
BRANCH  12  13
ATOM     13  O   UNL     1      37.477 -19.744 -16.699  0.00  0.00    -0.376 OA
ATOM     14  H   UNL     1      36.675 -19.219 -16.544  0.00  0.00    +0.211 HD
ENDBRANCH  12  13
BRANCH  12  15
ATOM     15  C   UNL     1      37.218 -21.654 -15.262  0.00  0.00    +0.239 C 
BRANCH  15  16
ATOM     16  O   UNL     1      37.896 -22.900 -15.237  0.00  0.00    -0.472 OA
BRANCH  16  17
ATOM     17  C   UNL     1      37.638 -23.725 -14.172  0.00  0.00    +0.139 C 
ATOM     18  C   UNL     1      36.786 -23.303 -13.151  0.00  0.00    +0.041 C 
ATOM     19  C   UNL     1      38.228 -24.988 -14.108  0.00  0.00    +0.037 C 
ATOM     20  C   UNL     1      36.524 -24.141 -12.069  0.00  0.00    +0.074 C 
ATOM     21  C   UNL     1      37.967 -25.826 -13.026  0.00  0.00    +0.003 C 
ATOM     22  C   UNL     1      37.115 -25.404 -12.006  0.00  0.00    +0.004 C 
BRANCH  20  26
ATOM     23  F   UNL     1      36.224 -22.895 -10.048  0.00  0.00    -0.166 F 
ATOM     24  F   UNL     1      34.547 -22.959 -11.422  0.00  0.00    -0.166 F 
ATOM     25  F   UNL     1      35.079 -24.730 -10.275  0.00  0.00    -0.166 F 
ATOM     26  C   UNL     1      35.613 -23.689 -10.978  0.00  0.00    +0.419 C 
ENDBRANCH  20  26
ENDBRANCH  16  17
ENDBRANCH  15  16
ENDBRANCH  12  15
ENDBRANCH  11  12
ENDBRANCH   2  10
BRANCH   1  27
ATOM     27  C   UNL     1      34.097 -19.728 -20.967  0.00  0.00    +0.028 C 
BRANCH  27  28
ATOM     28  C   UNL     1      35.473 -19.121 -20.944  0.00  0.00    -0.031 C 
ATOM     29  C   UNL     1      35.793 -17.830 -21.124  0.00  0.00    -0.031 C 
BRANCH  29  30
ATOM     30  C   UNL     1      34.782 -16.752 -21.388  0.00  0.00    +0.026 C 
BRANCH  30  31
ATOM     31  C   UNL     1      34.518 -16.507 -22.880  0.00  0.00    +0.016 C 
BRANCH  31  32
ATOM     32  C   UNL     1      34.230 -15.043 -23.228  0.00  0.00    +0.110 C 
BRANCH  32  34
ATOM     33  O   UNL     1      33.331 -15.565 -25.430  0.00  0.00    -0.250 OA
ATOM     34  C   UNL     1      33.320 -14.869 -24.424  0.00  0.00    +0.314 C 
BRANCH  34  35
ATOM     35  O   UNL     1      32.496 -13.798 -24.276  0.00  0.00    -0.480 OA
ATOM     36  H   UNL     1      32.285 -13.486 -23.418  0.00  0.00    +0.295 HD
ENDBRANCH  34  35
ENDBRANCH  32  34
ENDBRANCH  31  32
ENDBRANCH  30  31
ENDBRANCH  29  30
ENDBRANCH  27  28
ENDBRANCH   1  27
TORSDOF 16
ENDMDL
MODEL 7
REMARK VINA RESULT:     -10.1      1.837      3.527
REMARK  Name = 5311100
REMARK  16 active torsions:
REMARK  status: ('A' for Active; 'I' for Inactive)
REMARK    1  A    between atoms: C_1  and  C_27
REMARK    2  A    between atoms: C_2  and  C_10
REMARK    3  A    between atoms: C_3  and  O_6
REMARK    4  A    between atoms: C_4  and  O_8
REMARK    5  A    between atoms: C_11  and  C_12
REMARK    6  A    between atoms: C_12  and  O_13
REMARK    7  A    between atoms: C_12  and  C_15
REMARK    8  A    between atoms: C_15  and  O_16
REMARK    9  A    between atoms: O_16  and  C_17
REMARK   10  A    between atoms: C_20  and  C_26
REMARK   11  A    between atoms: C_27  and  C_28
REMARK   12  A    between atoms: C_29  and  C_30
REMARK   13  A    between atoms: C_30  and  C_31
REMARK   14  A    between atoms: C_31  and  C_32
REMARK   15  A    between atoms: C_32  and  C_34
REMARK   16  A    between atoms: C_34  and  O_35
REMARK                            x       y       z     vdW  Elec       q    Type
REMARK                         _______ _______ _______ _____ _____    ______ ____
ROOT
ATOM      1  C   UNL     1      35.783 -23.207 -13.811  0.00  0.00    +0.038 C 
ATOM      2  C   UNL     1      34.310 -22.767 -13.857  0.00  0.00    +0.051 C 
ATOM      3  C   UNL     1      36.044 -23.320 -12.306  0.00  0.00    +0.114 C 
ATOM      4  C   UNL     1      33.651 -23.570 -12.721  0.00  0.00    +0.117 C 
ATOM      5  C   UNL     1      34.784 -24.003 -11.777  0.00  0.00    +0.059 C 
ENDROOT
BRANCH   3   6
ATOM      6  O   UNL     1      36.215 -22.051 -11.686  0.00  0.00    -0.384 OA
ATOM      7  H   UNL     1      36.253 -22.165 -10.723  0.00  0.00    +0.210 HD
ENDBRANCH   3   6
BRANCH   4   8
ATOM      8  O   UNL     1      32.726 -22.753 -12.014  0.00  0.00    -0.384 OA
ATOM      9  H   UNL     1      33.109 -21.871 -11.883  0.00  0.00    +0.210 HD
ENDBRANCH   4   8
BRANCH   2  10
ATOM     10  C   UNL     1      33.652 -23.013 -15.178  0.00  0.00    -0.026 C 
ATOM     11  C   UNL     1      32.353 -22.783 -15.420  0.00  0.00    +0.002 C 
BRANCH  11  12
ATOM     12  C   UNL     1      31.694 -23.033 -16.748  0.00  0.00    +0.176 C 
BRANCH  12  13
ATOM     13  O   UNL     1      30.751 -21.987 -16.964  0.00  0.00    -0.376 OA
ATOM     14  H   UNL     1      30.910 -21.272 -16.327  0.00  0.00    +0.211 HD
ENDBRANCH  12  13
BRANCH  12  15
ATOM     15  C   UNL     1      32.709 -23.034 -17.887  0.00  0.00    +0.239 C 
BRANCH  15  16
ATOM     16  O   UNL     1      32.507 -21.900 -18.716  0.00  0.00    -0.472 OA
BRANCH  16  17
ATOM     17  C   UNL     1      33.629 -21.249 -19.161  0.00  0.00    +0.139 C 
ATOM     18  C   UNL     1      33.528 -20.297 -20.175  0.00  0.00    +0.041 C 
ATOM     19  C   UNL     1      34.872 -21.539 -18.598  0.00  0.00    +0.037 C 
ATOM     20  C   UNL     1      34.669 -19.636 -20.627  0.00  0.00    +0.074 C 
ATOM     21  C   UNL     1      36.014 -20.878 -19.051  0.00  0.00    +0.003 C 
ATOM     22  C   UNL     1      35.913 -19.926 -20.065  0.00  0.00    +0.004 C 
BRANCH  20  26
ATOM     23  F   UNL     1      35.649 -18.581 -22.539  0.00  0.00    -0.166 F 
ATOM     24  F   UNL     1      33.493 -18.813 -22.541  0.00  0.00    -0.166 F 
ATOM     25  F   UNL     1      34.426 -17.349 -21.230  0.00  0.00    -0.166 F 
ATOM     26  C   UNL     1      34.562 -18.618 -21.713  0.00  0.00    +0.419 C 
ENDBRANCH  20  26
ENDBRANCH  16  17
ENDBRANCH  15  16
ENDBRANCH  12  15
ENDBRANCH  11  12
ENDBRANCH   2  10
BRANCH   1  27
ATOM     27  C   UNL     1      36.725 -22.244 -14.522  0.00  0.00    +0.028 C 
BRANCH  27  28
ATOM     28  C   UNL     1      37.611 -22.826 -15.589  0.00  0.00    -0.031 C 
ATOM     29  C   UNL     1      38.702 -23.587 -15.411  0.00  0.00    -0.031 C 
BRANCH  29  30
ATOM     30  C   UNL     1      39.224 -23.988 -14.062  0.00  0.00    +0.026 C 
BRANCH  30  31
ATOM     31  C   UNL     1      38.681 -25.335 -13.566  0.00  0.00    +0.016 C 
BRANCH  31  32
ATOM     32  C   UNL     1      38.088 -26.212 -14.674  0.00  0.00    +0.110 C 
BRANCH  32  34
ATOM     33  O   UNL     1      35.770 -26.446 -15.381  0.00  0.00    -0.250 OA
ATOM     34  C   UNL     1      36.614 -26.503 -14.497  0.00  0.00    +0.314 C 
BRANCH  34  35
ATOM     35  O   UNL     1      36.312 -26.801 -13.206  0.00  0.00    -0.480 OA
ATOM     36  H   UNL     1      36.234 -27.695 -12.937  0.00  0.00    +0.295 HD
ENDBRANCH  34  35
ENDBRANCH  32  34
ENDBRANCH  31  32
ENDBRANCH  30  31
ENDBRANCH  29  30
ENDBRANCH  27  28
ENDBRANCH   1  27
TORSDOF 16
ENDMDL
MODEL 8
REMARK VINA RESULT:     -10.0      4.451      9.445
REMARK  Name = 5311100
REMARK  16 active torsions:
REMARK  status: ('A' for Active; 'I' for Inactive)
REMARK    1  A    between atoms: C_1  and  C_27
REMARK    2  A    between atoms: C_2  and  C_10
REMARK    3  A    between atoms: C_3  and  O_6
REMARK    4  A    between atoms: C_4  and  O_8
REMARK    5  A    between atoms: C_11  and  C_12
REMARK    6  A    between atoms: C_12  and  O_13
REMARK    7  A    between atoms: C_12  and  C_15
REMARK    8  A    between atoms: C_15  and  O_16
REMARK    9  A    between atoms: O_16  and  C_17
REMARK   10  A    between atoms: C_20  and  C_26
REMARK   11  A    between atoms: C_27  and  C_28
REMARK   12  A    between atoms: C_29  and  C_30
REMARK   13  A    between atoms: C_30  and  C_31
REMARK   14  A    between atoms: C_31  and  C_32
REMARK   15  A    between atoms: C_32  and  C_34
REMARK   16  A    between atoms: C_34  and  O_35
REMARK                            x       y       z     vdW  Elec       q    Type
REMARK                         _______ _______ _______ _____ _____    ______ ____
ROOT
ATOM      1  C   UNL     1      34.512 -19.583 -20.019  0.00  0.00    +0.038 C 
ATOM      2  C   UNL     1      34.732 -21.069 -19.691  0.00  0.00    +0.051 C 
ATOM      3  C   UNL     1      33.051 -19.562 -20.477  0.00  0.00    +0.114 C 
ATOM      4  C   UNL     1      33.408 -21.502 -19.037  0.00  0.00    +0.117 C 
ATOM      5  C   UNL     1      32.350 -20.475 -19.471  0.00  0.00    +0.059 C 
ENDROOT
BRANCH   3   6
ATOM      6  O   UNL     1      32.886 -20.066 -21.797  0.00  0.00    -0.384 OA
ATOM      7  H   UNL     1      31.939 -20.147 -21.997  0.00  0.00    +0.210 HD
ENDBRANCH   3   6
BRANCH   4   8
ATOM      8  O   UNL     1      33.033 -22.795 -19.494  0.00  0.00    -0.384 OA
ATOM      9  H   UNL     1      33.706 -23.127 -20.111  0.00  0.00    +0.210 HD
ENDBRANCH   4   8
BRANCH   2  10
ATOM     10  C   UNL     1      35.908 -21.317 -18.800  0.00  0.00    -0.026 C 
ATOM     11  C   UNL     1      35.827 -21.412 -17.465  0.00  0.00    +0.002 C 
BRANCH  11  12
ATOM     12  C   UNL     1      37.011 -21.660 -16.572  0.00  0.00    +0.176 C 
BRANCH  12  13
ATOM     13  O   UNL     1      37.468 -20.395 -16.102  0.00  0.00    -0.376 OA
ATOM     14  H   UNL     1      38.438 -20.389 -16.081  0.00  0.00    +0.211 HD
ENDBRANCH  12  13
BRANCH  12  15
ATOM     15  C   UNL     1      36.640 -22.532 -15.376  0.00  0.00    +0.239 C 
BRANCH  15  16
ATOM     16  O   UNL     1      35.643 -23.470 -15.751  0.00  0.00    -0.472 OA
BRANCH  16  17
ATOM     17  C   UNL     1      34.483 -23.467 -15.019  0.00  0.00    +0.139 C 
ATOM     18  C   UNL     1      33.272 -23.146 -15.631  0.00  0.00    +0.041 C 
ATOM     19  C   UNL     1      34.515 -23.787 -13.661  0.00  0.00    +0.037 C 
ATOM     20  C   UNL     1      32.093 -23.143 -14.886  0.00  0.00    +0.074 C 
ATOM     21  C   UNL     1      33.337 -23.784 -12.916  0.00  0.00    +0.003 C 
ATOM     22  C   UNL     1      32.125 -23.462 -13.528  0.00  0.00    +0.004 C 
BRANCH  20  26
ATOM     23  F   UNL     1      30.943 -22.147 -16.733  0.00  0.00    -0.166 F 
ATOM     24  F   UNL     1      30.021 -23.885 -15.821  0.00  0.00    -0.166 F 
ATOM     25  F   UNL     1      30.022 -21.981 -14.770  0.00  0.00    -0.166 F 
ATOM     26  C   UNL     1      30.798 -22.798 -15.540  0.00  0.00    +0.419 C 
ENDBRANCH  20  26
ENDBRANCH  16  17
ENDBRANCH  15  16
ENDBRANCH  12  15
ENDBRANCH  11  12
ENDBRANCH   2  10
BRANCH   1  27
ATOM     27  C   UNL     1      35.484 -19.042 -21.059  0.00  0.00    +0.028 C 
BRANCH  27  28
ATOM     28  C   UNL     1      35.561 -17.547 -21.202  0.00  0.00    -0.031 C 
ATOM     29  C   UNL     1      35.044 -16.799 -22.189  0.00  0.00    -0.031 C 
BRANCH  29  30
ATOM     30  C   UNL     1      34.278 -17.366 -23.348  0.00  0.00    +0.026 C 
BRANCH  30  31
ATOM     31  C   UNL     1      33.849 -16.312 -24.379  0.00  0.00    +0.016 C 
BRANCH  31  32
ATOM     32  C   UNL     1      33.950 -14.870 -23.872  0.00  0.00    +0.110 C 
BRANCH  32  34
ATOM     33  O   UNL     1      32.479 -12.937 -24.045  0.00  0.00    -0.250 OA
ATOM     34  C   UNL     1      33.003 -13.913 -24.563  0.00  0.00    +0.314 C 
BRANCH  34  35
ATOM     35  O   UNL     1      32.756 -14.291 -25.845  0.00  0.00    -0.480 OA
ATOM     36  H   UNL     1      33.459 -14.592 -26.388  0.00  0.00    +0.295 HD
ENDBRANCH  34  35
ENDBRANCH  32  34
ENDBRANCH  31  32
ENDBRANCH  30  31
ENDBRANCH  29  30
ENDBRANCH  27  28
ENDBRANCH   1  27
TORSDOF 16
ENDMDL
MODEL 9
REMARK VINA RESULT:      -9.9      4.034      6.357
REMARK  Name = 5311100
REMARK  16 active torsions:
REMARK  status: ('A' for Active; 'I' for Inactive)
REMARK    1  A    between atoms: C_1  and  C_27
REMARK    2  A    between atoms: C_2  and  C_10
REMARK    3  A    between atoms: C_3  and  O_6
REMARK    4  A    between atoms: C_4  and  O_8
REMARK    5  A    between atoms: C_11  and  C_12
REMARK    6  A    between atoms: C_12  and  O_13
REMARK    7  A    between atoms: C_12  and  C_15
REMARK    8  A    between atoms: C_15  and  O_16
REMARK    9  A    between atoms: O_16  and  C_17
REMARK   10  A    between atoms: C_20  and  C_26
REMARK   11  A    between atoms: C_27  and  C_28
REMARK   12  A    between atoms: C_29  and  C_30
REMARK   13  A    between atoms: C_30  and  C_31
REMARK   14  A    between atoms: C_31  and  C_32
REMARK   15  A    between atoms: C_32  and  C_34
REMARK   16  A    between atoms: C_34  and  O_35
REMARK                            x       y       z     vdW  Elec       q    Type
REMARK                         _______ _______ _______ _____ _____    ______ ____
ROOT
ATOM      1  C   UNL     1      34.937 -21.796 -19.333  0.00  0.00    +0.038 C 
ATOM      2  C   UNL     1      34.158 -20.484 -19.529  0.00  0.00    +0.051 C 
ATOM      3  C   UNL     1      33.936 -22.658 -18.559  0.00  0.00    +0.114 C 
ATOM      4  C   UNL     1      32.718 -20.949 -19.809  0.00  0.00    +0.117 C 
ATOM      5  C   UNL     1      32.609 -22.383 -19.266  0.00  0.00    +0.059 C 
ENDROOT
BRANCH   3   6
ATOM      6  O   UNL     1      33.847 -22.292 -17.187  0.00  0.00    -0.384 OA
ATOM      7  H   UNL     1      34.714 -22.405 -16.766  0.00  0.00    +0.210 HD
ENDBRANCH   3   6
BRANCH   4   8
ATOM      8  O   UNL     1      31.790 -20.111 -19.132  0.00  0.00    -0.384 OA
ATOM      9  H   UNL     1      32.087 -19.973 -18.219  0.00  0.00    +0.210 HD
ENDBRANCH   4   8
BRANCH   2  10
ATOM     10  C   UNL     1      34.698 -19.627 -20.630  0.00  0.00    -0.026 C 
ATOM     11  C   UNL     1      34.062 -19.414 -21.792  0.00  0.00    +0.002 C 
BRANCH  11  12
ATOM     12  C   UNL     1      34.607 -18.553 -22.897  0.00  0.00    +0.176 C 
BRANCH  12  13
ATOM     13  O   UNL     1      33.530 -18.254 -23.781  0.00  0.00    -0.376 OA
ATOM     14  H   UNL     1      32.776 -18.830 -23.578  0.00  0.00    +0.211 HD
ENDBRANCH  12  13
BRANCH  12  15
ATOM     15  C   UNL     1      35.188 -17.249 -22.359  0.00  0.00    +0.239 C 
BRANCH  15  16
ATOM     16  O   UNL     1      34.798 -16.166 -23.189  0.00  0.00    -0.472 OA
BRANCH  16  17
ATOM     17  C   UNL     1      34.248 -15.074 -22.567  0.00  0.00    +0.139 C 
ATOM     18  C   UNL     1      33.905 -13.945 -23.312  0.00  0.00    +0.041 C 
ATOM     19  C   UNL     1      34.034 -15.091 -21.189  0.00  0.00    +0.037 C 
ATOM     20  C   UNL     1      33.347 -12.835 -22.679  0.00  0.00    +0.074 C 
ATOM     21  C   UNL     1      33.476 -13.981 -20.556  0.00  0.00    +0.003 C 
ATOM     22  C   UNL     1      33.133 -12.853 -21.300  0.00  0.00    +0.004 C 
BRANCH  20  26
ATOM     23  F   UNL     1      34.027 -10.777 -23.693  0.00  0.00    -0.166 F 
ATOM     24  F   UNL     1      32.495 -11.920 -24.718  0.00  0.00    -0.166 F 
ATOM     25  F   UNL     1      32.016 -10.875 -22.871  0.00  0.00    -0.166 F 
ATOM     26  C   UNL     1      32.981 -11.628 -23.475  0.00  0.00    +0.419 C 
ENDBRANCH  20  26
ENDBRANCH  16  17
ENDBRANCH  15  16
ENDBRANCH  12  15
ENDBRANCH  11  12
ENDBRANCH   2  10
BRANCH   1  27
ATOM     27  C   UNL     1      36.265 -21.609 -18.612  0.00  0.00    +0.028 C 
BRANCH  27  28
ATOM     28  C   UNL     1      36.250 -20.759 -17.371  0.00  0.00    -0.031 C 
ATOM     29  C   UNL     1      36.817 -21.041 -16.188  0.00  0.00    -0.031 C 
BRANCH  29  30
ATOM     30  C   UNL     1      37.584 -22.302 -15.913  0.00  0.00    +0.026 C 
BRANCH  30  31
ATOM     31  C   UNL     1      37.013 -23.129 -14.753  0.00  0.00    +0.016 C 
BRANCH  31  32
ATOM     32  C   UNL     1      37.943 -24.247 -14.271  0.00  0.00    +0.110 C 
BRANCH  32  34
ATOM     33  O   UNL     1      38.025 -26.680 -14.331  0.00  0.00    -0.250 OA
ATOM     34  C   UNL     1      37.465 -25.636 -14.635  0.00  0.00    +0.314 C 
BRANCH  34  35
ATOM     35  O   UNL     1      36.339 -25.596 -15.394  0.00  0.00    -0.480 OA
ATOM     36  H   UNL     1      35.719 -24.902 -15.277  0.00  0.00    +0.295 HD
ENDBRANCH  34  35
ENDBRANCH  32  34
ENDBRANCH  31  32
ENDBRANCH  30  31
ENDBRANCH  29  30
ENDBRANCH  27  28
ENDBRANCH   1  27
TORSDOF 16
ENDMDL
