MODEL 1
REMARK VINA RESULT:     -12.4      0.000      0.000
REMARK  Name = 28693
REMARK  5 active torsions:
REMARK  status: ('A' for Active; 'I' for Inactive)
REMARK    1  A    between atoms: C_6  and  C_20
REMARK    2  A    between atoms: C_20  and  N_22
REMARK    3  A    between atoms: C_23  and  O_25
REMARK    4  A    between atoms: O_25  and  C_26
REMARK    5  A    between atoms: C_26  and  C_27
REMARK                            x       y       z     vdW  Elec       q    Type
REMARK                         _______ _______ _______ _____ _____    ______ ____
ROOT
ATOM      1  N   UNL     1      32.756 -22.022 -17.113  0.00  0.00    +0.387 N 
ATOM      2  N   UNL     1      36.150 -24.768 -12.966  0.00  0.00    -0.284 N 
ATOM      3  C   UNL     1      35.206 -21.941 -16.548  0.00  0.00    +0.004 C 
ATOM      4  C   UNL     1      33.847 -22.760 -16.430  0.00  0.00    -0.050 C 
ATOM      5  C   UNL     1      35.535 -21.670 -18.022  0.00  0.00    +0.002 C 
ATOM      6  C   UNL     1      34.355 -20.992 -18.721  0.00  0.00    -0.001 C 
ATOM      7  C   UNL     1      33.490 -23.111 -14.935  0.00  0.00    +0.007 C 
ATOM      8  C   UNL     1      33.071 -21.809 -18.536  0.00  0.00    -0.076 C 
ATOM      9  C   UNL     1      36.333 -22.637 -15.801  0.00  0.00    -0.024 C 
ATOM     10  C   UNL     1      35.967 -23.434 -14.709  0.00  0.00    +0.007 C 
ATOM     11  C   UNL     1      34.666 -23.708 -14.240  0.00  0.00    -0.008 C 
ATOM     12  C   UNL     1      36.885 -24.094 -13.916  0.00  0.00    +0.051 C 
ATOM     13  C   UNL     1      31.459 -22.699 -17.010  0.00  0.00    -0.101 C 
ATOM     14  C   UNL     1      37.707 -22.511 -16.037  0.00  0.00    -0.004 C 
ATOM     15  C   UNL     1      34.802 -24.537 -13.151  0.00  0.00    +0.061 C 
ATOM     16  C   UNL     1      38.256 -23.994 -14.156  0.00  0.00    +0.015 C 
ATOM     17  C   UNL     1      38.645 -23.183 -15.235  0.00  0.00    +0.001 C 
ATOM     18  C   UNL     1      36.697 -25.599 -11.915  0.00  0.00    +0.117 C 
ATOM     19  H   UNL     1      32.683 -21.125 -16.632  0.00  0.00    -0.080 HD
ENDROOT
BRANCH   6  20
ATOM     20  C   UNL     1      34.656 -20.789 -20.207  0.00  0.00    +0.091 C 
BRANCH  20  22
ATOM     21  O   UNL     1      36.613 -18.642 -20.190  0.00  0.00    -0.226 OA
ATOM     22  N   UNL     1      34.462 -19.423 -20.587  0.00  0.00    -0.271 N 
ATOM     23  C   UNL     1      35.455 -18.455 -20.549  0.00  0.00    +0.402 C 
ATOM     24  H   UNL     1      33.567 -19.154 -20.895  0.00  0.00    +0.153 HD
BRANCH  23  25
ATOM     25  O   UNL     1      34.958 -17.255 -20.972  0.00  0.00    -0.430 OA
BRANCH  25  26
ATOM     26  C   UNL     1      34.977 -17.035 -22.388  0.00  0.00    +0.237 C 
BRANCH  26  27
ATOM     27  C   UNL     1      34.297 -15.732 -22.690  0.00  0.00    +0.021 C 
ATOM     28  C   UNL     1      33.868 -15.464 -23.986  0.00  0.00    -0.001 C 
ATOM     29  C   UNL     1      34.103 -14.805 -21.674  0.00  0.00    -0.001 C 
ATOM     30  C   UNL     1      33.235 -14.254 -24.267  0.00  0.00    -0.000 C 
ATOM     31  C   UNL     1      33.471 -13.593 -21.955  0.00  0.00    -0.000 C 
ATOM     32  C   UNL     1      33.037 -13.318 -23.252  0.00  0.00    -0.000 C 
ENDBRANCH  26  27
ENDBRANCH  25  26
ENDBRANCH  23  25
ENDBRANCH  20  22
ENDBRANCH   6  20
TORSDOF 5
ENDMDL
MODEL 2
REMARK VINA RESULT:     -12.2      1.858      3.893
REMARK  Name = 28693
REMARK  5 active torsions:
REMARK  status: ('A' for Active; 'I' for Inactive)
REMARK    1  A    between atoms: C_6  and  C_20
REMARK    2  A    between atoms: C_20  and  N_22
REMARK    3  A    between atoms: C_23  and  O_25
REMARK    4  A    between atoms: O_25  and  C_26
REMARK    5  A    between atoms: C_26  and  C_27
REMARK                            x       y       z     vdW  Elec       q    Type
REMARK                         _______ _______ _______ _____ _____    ______ ____
ROOT
ATOM      1  N   UNL     1      36.395 -22.927 -15.748  0.00  0.00    +0.387 N 
ATOM      2  N   UNL     1      30.964 -24.118 -13.436  0.00  0.00    -0.284 N 
ATOM      3  C   UNL     1      34.052 -22.765 -16.652  0.00  0.00    +0.004 C 
ATOM      4  C   UNL     1      34.967 -22.839 -15.353  0.00  0.00    -0.050 C 
ATOM      5  C   UNL     1      34.476 -21.580 -17.531  0.00  0.00    +0.002 C 
ATOM      6  C   UNL     1      35.972 -21.650 -17.845  0.00  0.00    -0.001 C 
ATOM      7  C   UNL     1      34.539 -24.010 -14.387  0.00  0.00    +0.007 C 
ATOM      8  C   UNL     1      36.793 -21.761 -16.555  0.00  0.00    -0.076 C 
ATOM      9  C   UNL     1      32.578 -22.741 -16.284  0.00  0.00    -0.024 C 
ATOM     10  C   UNL     1      32.218 -23.363 -15.082  0.00  0.00    +0.007 C 
ATOM     11  C   UNL     1      33.069 -23.977 -14.142  0.00  0.00    -0.008 C 
ATOM     12  C   UNL     1      30.912 -23.452 -14.641  0.00  0.00    +0.051 C 
ATOM     13  C   UNL     1      37.299 -23.041 -14.599  0.00  0.00    -0.101 C 
ATOM     14  C   UNL     1      31.524 -22.229 -17.051  0.00  0.00    -0.004 C 
ATOM     15  C   UNL     1      32.269 -24.444 -13.126  0.00  0.00    +0.061 C 
ATOM     16  C   UNL     1      29.857 -22.925 -15.386  0.00  0.00    +0.015 C 
ATOM     17  C   UNL     1      30.194 -22.314 -16.604  0.00  0.00    +0.001 C 
ATOM     18  C   UNL     1      29.824 -24.440 -12.605  0.00  0.00    +0.117 C 
ATOM     19  H   UNL     1      36.479 -23.781 -16.301  0.00  0.00    -0.080 HD
ENDROOT
BRANCH   6  20
ATOM     20  C   UNL     1      36.407 -20.431 -18.659  0.00  0.00    +0.091 C 
BRANCH  20  22
ATOM     21  O   UNL     1      36.513 -18.293 -20.623  0.00  0.00    -0.226 OA
ATOM     22  N   UNL     1      35.422 -20.091 -19.639  0.00  0.00    -0.271 N 
ATOM     23  C   UNL     1      35.550 -19.049 -20.545  0.00  0.00    +0.402 C 
ATOM     24  H   UNL     1      34.600 -20.632 -19.671  0.00  0.00    +0.153 HD
BRANCH  23  25
ATOM     25  O   UNL     1      34.445 -18.983 -21.345  0.00  0.00    -0.430 OA
BRANCH  25  26
ATOM     26  C   UNL     1      34.695 -18.774 -22.740  0.00  0.00    +0.237 C 
BRANCH  26  27
ATOM     27  C   UNL     1      34.341 -17.359 -23.094  0.00  0.00    +0.021 C 
ATOM     28  C   UNL     1      33.757 -17.083 -24.325  0.00  0.00    -0.001 C 
ATOM     29  C   UNL     1      34.600 -16.337 -22.188  0.00  0.00    -0.001 C 
ATOM     30  C   UNL     1      33.428 -15.769 -24.655  0.00  0.00    -0.000 C 
ATOM     31  C   UNL     1      34.271 -15.022 -22.517  0.00  0.00    -0.000 C 
ATOM     32  C   UNL     1      33.685 -14.738 -23.751  0.00  0.00    -0.000 C 
ENDBRANCH  26  27
ENDBRANCH  25  26
ENDBRANCH  23  25
ENDBRANCH  20  22
ENDBRANCH   6  20
TORSDOF 5
ENDMDL
MODEL 3
REMARK VINA RESULT:     -12.0      5.400     12.512
REMARK  Name = 28693
REMARK  5 active torsions:
REMARK  status: ('A' for Active; 'I' for Inactive)
REMARK    1  A    between atoms: C_6  and  C_20
REMARK    2  A    between atoms: C_20  and  N_22
REMARK    3  A    between atoms: C_23  and  O_25
REMARK    4  A    between atoms: O_25  and  C_26
REMARK    5  A    between atoms: C_26  and  C_27
REMARK                            x       y       z     vdW  Elec       q    Type
REMARK                         _______ _______ _______ _____ _____    ______ ____
ROOT
ATOM      1  N   UNL     1      31.958 -13.101 -21.288  0.00  0.00    +0.387 N 
ATOM      2  N   UNL     1      31.538  -7.193 -20.199  0.00  0.00    -0.284 N 
ATOM      3  C   UNL     1      32.123 -11.054 -22.742  0.00  0.00    +0.004 C 
ATOM      4  C   UNL     1      32.207 -11.638 -21.264  0.00  0.00    -0.050 C 
ATOM      5  C   UNL     1      33.112 -11.788 -23.657  0.00  0.00    +0.002 C 
ATOM      6  C   UNL     1      32.891 -13.300 -23.589  0.00  0.00    -0.001 C 
ATOM      7  C   UNL     1      31.245 -10.883 -20.268  0.00  0.00    +0.007 C 
ATOM      8  C   UNL     1      32.944 -13.792 -22.138  0.00  0.00    -0.076 C 
ATOM      9  C   UNL     1      32.307  -9.546 -22.747  0.00  0.00    -0.024 C 
ATOM     10  C   UNL     1      31.920  -8.860 -21.588  0.00  0.00    +0.007 C 
ATOM     11  C   UNL     1      31.417  -9.407 -20.391  0.00  0.00    -0.008 C 
ATOM     12  C   UNL     1      31.994  -7.485 -21.466  0.00  0.00    +0.051 C 
ATOM     13  C   UNL     1      31.979 -13.704 -19.951  0.00  0.00    -0.101 C 
ATOM     14  C   UNL     1      32.752  -8.752 -23.811  0.00  0.00    -0.004 C 
ATOM     15  C   UNL     1      31.182  -8.353 -19.539  0.00  0.00    +0.061 C 
ATOM     16  C   UNL     1      32.458  -6.688 -22.512  0.00  0.00    +0.015 C 
ATOM     17  C   UNL     1      32.832  -7.354 -23.689  0.00  0.00    +0.001 C 
ATOM     18  C   UNL     1      31.437  -5.868 -19.629  0.00  0.00    +0.117 C 
ATOM     19  H   UNL     1      31.021 -13.218 -21.672  0.00  0.00    -0.080 HD
ENDROOT
BRANCH   6  20
ATOM     20  C   UNL     1      33.924 -14.033 -24.445  0.00  0.00    +0.091 C 
BRANCH  20  22
ATOM     21  O   UNL     1      32.926 -16.654 -25.202  0.00  0.00    -0.226 OA
ATOM     22  N   UNL     1      34.261 -15.299 -23.870  0.00  0.00    -0.271 N 
ATOM     23  C   UNL     1      33.736 -16.511 -24.292  0.00  0.00    +0.402 C 
ATOM     24  H   UNL     1      34.906 -15.310 -23.127  0.00  0.00    +0.153 HD
BRANCH  23  25
ATOM     25  O   UNL     1      34.253 -17.533 -23.547  0.00  0.00    -0.430 OA
BRANCH  25  26
ATOM     26  C   UNL     1      34.886 -17.153 -22.320  0.00  0.00    +0.237 C 
BRANCH  26  27
ATOM     27  C   UNL     1      34.954 -18.347 -21.413  0.00  0.00    +0.021 C 
ATOM     28  C   UNL     1      33.806 -19.092 -21.169  0.00  0.00    -0.001 C 
ATOM     29  C   UNL     1      36.164 -18.697 -20.826  0.00  0.00    -0.001 C 
ATOM     30  C   UNL     1      33.868 -20.202 -20.327  0.00  0.00    -0.000 C 
ATOM     31  C   UNL     1      36.227 -19.807 -19.983  0.00  0.00    -0.000 C 
ATOM     32  C   UNL     1      35.079 -20.559 -19.734  0.00  0.00    -0.000 C 
ENDBRANCH  26  27
ENDBRANCH  25  26
ENDBRANCH  23  25
ENDBRANCH  20  22
ENDBRANCH   6  20
TORSDOF 5
ENDMDL
MODEL 4
REMARK VINA RESULT:     -11.5      1.270      1.720
REMARK  Name = 28693
REMARK  5 active torsions:
REMARK  status: ('A' for Active; 'I' for Inactive)
REMARK    1  A    between atoms: C_6  and  C_20
REMARK    2  A    between atoms: C_20  and  N_22
REMARK    3  A    between atoms: C_23  and  O_25
REMARK    4  A    between atoms: O_25  and  C_26
REMARK    5  A    between atoms: C_26  and  C_27
REMARK                            x       y       z     vdW  Elec       q    Type
REMARK                         _______ _______ _______ _____ _____    ______ ____
ROOT
ATOM      1  N   UNL     1      31.778 -22.695 -15.621  0.00  0.00    +0.387 N 
ATOM      2  N   UNL     1      36.523 -24.596 -12.437  0.00  0.00    -0.284 N 
ATOM      3  C   UNL     1      34.258 -22.304 -15.803  0.00  0.00    +0.004 C 
ATOM      4  C   UNL     1      33.103 -23.237 -15.229  0.00  0.00    -0.050 C 
ATOM      5  C   UNL     1      34.123 -22.171 -17.326  0.00  0.00    +0.002 C 
ATOM      6  C   UNL     1      32.717 -21.699 -17.702  0.00  0.00    -0.001 C 
ATOM      7  C   UNL     1      33.227 -23.451 -13.672  0.00  0.00    +0.007 C 
ATOM      8  C   UNL     1      31.653 -22.614 -17.087  0.00  0.00    -0.076 C 
ATOM      9  C   UNL     1      35.628 -22.794 -15.363  0.00  0.00    -0.024 C 
ATOM     10  C   UNL     1      35.688 -23.495 -14.152  0.00  0.00    +0.007 C 
ATOM     11  C   UNL     1      34.617 -23.843 -13.304  0.00  0.00    -0.008 C 
ATOM     12  C   UNL     1      36.869 -23.964 -13.611  0.00  0.00    +0.051 C 
ATOM     13  C   UNL     1      30.662 -23.483 -15.092  0.00  0.00    -0.101 C 
ATOM     14  C   UNL     1      36.853 -22.558 -15.998  0.00  0.00    -0.004 C 
ATOM     15  C   UNL     1      35.158 -24.526 -12.240  0.00  0.00    +0.061 C 
ATOM     16  C   UNL     1      38.093 -23.755 -14.247  0.00  0.00    +0.015 C 
ATOM     17  C   UNL     1      38.057 -23.037 -15.453  0.00  0.00    +0.001 C 
ATOM     18  C   UNL     1      37.445 -25.243 -11.529  0.00  0.00    +0.117 C 
ATOM     19  H   UNL     1      31.728 -21.762 -15.213  0.00  0.00    -0.080 HD
ENDROOT
BRANCH   6  20
ATOM     20  C   UNL     1      32.561 -21.636 -19.223  0.00  0.00    +0.091 C 
BRANCH  20  22
ATOM     21  O   UNL     1      35.031 -20.694 -20.428  0.00  0.00    -0.226 OA
ATOM     22  N   UNL     1      32.853 -20.325 -19.714  0.00  0.00    -0.271 N 
ATOM     23  C   UNL     1      34.064 -19.955 -20.278  0.00  0.00    +0.402 C 
ATOM     24  H   UNL     1      32.148 -19.641 -19.647  0.00  0.00    +0.153 HD
BRANCH  23  25
ATOM     25  O   UNL     1      34.029 -18.640 -20.648  0.00  0.00    -0.430 OA
BRANCH  25  26
ATOM     26  C   UNL     1      35.114 -18.193 -21.469  0.00  0.00    +0.237 C 
BRANCH  26  27
ATOM     27  C   UNL     1      34.575 -17.303 -22.551  0.00  0.00    +0.021 C 
ATOM     28  C   UNL     1      33.993 -17.868 -23.681  0.00  0.00    -0.001 C 
ATOM     29  C   UNL     1      34.662 -15.923 -22.414  0.00  0.00    -0.001 C 
ATOM     30  C   UNL     1      33.491 -17.042 -24.686  0.00  0.00    -0.000 C 
ATOM     31  C   UNL     1      34.162 -15.096 -23.420  0.00  0.00    -0.000 C 
ATOM     32  C   UNL     1      33.576 -15.656 -24.556  0.00  0.00    -0.000 C 
ENDBRANCH  26  27
ENDBRANCH  25  26
ENDBRANCH  23  25
ENDBRANCH  20  22
ENDBRANCH   6  20
TORSDOF 5
ENDMDL
MODEL 5
REMARK VINA RESULT:     -11.3      2.519     10.879
REMARK  Name = 28693
REMARK  5 active torsions:
REMARK  status: ('A' for Active; 'I' for Inactive)
REMARK    1  A    between atoms: C_6  and  C_20
REMARK    2  A    between atoms: C_20  and  N_22
REMARK    3  A    between atoms: C_23  and  O_25
REMARK    4  A    between atoms: O_25  and  C_26
REMARK    5  A    between atoms: C_26  and  C_27
REMARK                            x       y       z     vdW  Elec       q    Type
REMARK                         _______ _______ _______ _____ _____    ______ ____
ROOT
ATOM      1  N   UNL     1      34.502 -18.940 -23.553  0.00  0.00    +0.387 N 
ATOM      2  N   UNL     1      33.183 -13.085 -24.057  0.00  0.00    -0.284 N 
ATOM      3  C   UNL     1      34.614 -16.994 -21.961  0.00  0.00    +0.004 C 
ATOM      4  C   UNL     1      33.982 -17.572 -23.302  0.00  0.00    -0.050 C 
ATOM      5  C   UNL     1      34.323 -17.939 -20.788  0.00  0.00    +0.002 C 
ATOM      6  C   UNL     1      34.787 -19.361 -21.114  0.00  0.00    -0.001 C 
ATOM      7  C   UNL     1      34.208 -16.610 -24.532  0.00  0.00    +0.007 C 
ATOM      8  C   UNL     1      34.176 -19.842 -22.435  0.00  0.00    -0.076 C 
ATOM      9  C   UNL     1      34.155 -15.567 -21.709  0.00  0.00    -0.024 C 
ATOM     10  C   UNL     1      33.822 -14.804 -22.835  0.00  0.00    +0.007 C 
ATOM     11  C   UNL     1      33.819 -15.214 -24.184  0.00  0.00    -0.008 C 
ATOM     12  C   UNL     1      33.426 -13.482 -22.761  0.00  0.00    +0.051 C 
ATOM     13  C   UNL     1      33.993 -19.523 -24.798  0.00  0.00    -0.101 C 
ATOM     14  C   UNL     1      34.097 -14.903 -20.478  0.00  0.00    -0.004 C 
ATOM     15  C   UNL     1      33.422 -14.129 -24.929  0.00  0.00    +0.061 C 
ATOM     16  C   UNL     1      33.343 -12.818 -21.536  0.00  0.00    +0.015 C 
ATOM     17  C   UNL     1      33.692 -13.560 -20.397  0.00  0.00    +0.001 C 
ATOM     18  C   UNL     1      32.743 -11.768 -24.463  0.00  0.00    +0.117 C 
ATOM     19  H   UNL     1      35.513 -18.842 -23.640  0.00  0.00    -0.080 HD
ENDROOT
BRANCH   6  20
ATOM     20  C   UNL     1      34.431 -20.316 -19.974  0.00  0.00    +0.091 C 
BRANCH  20  22
ATOM     21  O   UNL     1      34.637 -22.162 -17.741  0.00  0.00    -0.226 OA
ATOM     22  N   UNL     1      35.555 -20.534 -19.118  0.00  0.00    -0.271 N 
ATOM     23  C   UNL     1      35.572 -21.439 -18.067  0.00  0.00    +0.402 C 
ATOM     24  H   UNL     1      36.370 -20.007 -19.285  0.00  0.00    +0.153 HD
BRANCH  23  25
ATOM     25  O   UNL     1      36.787 -21.413 -17.443  0.00  0.00    -0.430 OA
BRANCH  25  26
ATOM     26  C   UNL     1      36.753 -21.327 -16.014  0.00  0.00    +0.237 C 
BRANCH  26  27
ATOM     27  C   UNL     1      37.090 -22.669 -15.434  0.00  0.00    +0.021 C 
ATOM     28  C   UNL     1      36.077 -23.473 -14.922  0.00  0.00    -0.001 C 
ATOM     29  C   UNL     1      38.412 -23.098 -15.415  0.00  0.00    -0.001 C 
ATOM     30  C   UNL     1      36.391 -24.721 -14.384  0.00  0.00    -0.000 C 
ATOM     31  C   UNL     1      38.726 -24.346 -14.876  0.00  0.00    -0.000 C 
ATOM     32  C   UNL     1      37.715 -25.157 -14.360  0.00  0.00    -0.000 C 
ENDBRANCH  26  27
ENDBRANCH  25  26
ENDBRANCH  23  25
ENDBRANCH  20  22
ENDBRANCH   6  20
TORSDOF 5
ENDMDL
MODEL 6
REMARK VINA RESULT:     -11.0      1.601      3.104
REMARK  Name = 28693
REMARK  5 active torsions:
REMARK  status: ('A' for Active; 'I' for Inactive)
REMARK    1  A    between atoms: C_6  and  C_20
REMARK    2  A    between atoms: C_20  and  N_22
REMARK    3  A    between atoms: C_23  and  O_25
REMARK    4  A    between atoms: O_25  and  C_26
REMARK    5  A    between atoms: C_26  and  C_27
REMARK                            x       y       z     vdW  Elec       q    Type
REMARK                         _______ _______ _______ _____ _____    ______ ____
ROOT
ATOM      1  N   UNL     1      36.868 -21.329 -16.868  0.00  0.00    +0.387 N 
ATOM      2  N   UNL     1      35.074 -23.584 -11.581  0.00  0.00    -0.284 N 
ATOM      3  C   UNL     1      34.930 -22.772 -16.167  0.00  0.00    +0.004 C 
ATOM      4  C   UNL     1      36.047 -21.738 -15.702  0.00  0.00    -0.050 C 
ATOM      5  C   UNL     1      34.073 -22.158 -17.283  0.00  0.00    +0.002 C 
ATOM      6  C   UNL     1      34.956 -21.662 -18.429  0.00  0.00    -0.001 C 
ATOM      7  C   UNL     1      36.924 -22.300 -14.518  0.00  0.00    +0.007 C 
ATOM      8  C   UNL     1      36.034 -20.704 -17.910  0.00  0.00    -0.076 C 
ATOM      9  C   UNL     1      34.112 -23.264 -14.985  0.00  0.00    -0.024 C 
ATOM     10  C   UNL     1      34.750 -23.277 -13.738  0.00  0.00    +0.007 C 
ATOM     11  C   UNL     1      36.057 -22.846 -13.435  0.00  0.00    -0.008 C 
ATOM     12  C   UNL     1      34.143 -23.735 -12.584  0.00  0.00    +0.051 C 
ATOM     13  C   UNL     1      37.948 -20.405 -16.508  0.00  0.00    -0.101 C 
ATOM     14  C   UNL     1      32.809 -23.778 -15.013  0.00  0.00    -0.004 C 
ATOM     15  C   UNL     1      36.241 -23.048 -12.087  0.00  0.00    +0.061 C 
ATOM     16  C   UNL     1      32.838 -24.227 -12.598  0.00  0.00    +0.015 C 
ATOM     17  C   UNL     1      32.186 -24.241 -13.842  0.00  0.00    +0.001 C 
ATOM     18  C   UNL     1      34.874 -23.935 -10.192  0.00  0.00    +0.117 C 
ATOM     19  H   UNL     1      37.292 -22.185 -17.225  0.00  0.00    -0.080 HD
ENDROOT
BRANCH   6  20
ATOM     20  C   UNL     1      34.107 -20.986 -19.507  0.00  0.00    +0.091 C 
BRANCH  20  22
ATOM     21  O   UNL     1      33.459 -19.427 -21.871  0.00  0.00    -0.226 OA
ATOM     22  N   UNL     1      34.712 -19.766 -19.946  0.00  0.00    -0.271 N 
ATOM     23  C   UNL     1      34.342 -19.081 -21.093  0.00  0.00    +0.402 C 
ATOM     24  H   UNL     1      35.437 -19.390 -19.397  0.00  0.00    +0.153 HD
BRANCH  23  25
ATOM     25  O   UNL     1      35.105 -17.957 -21.236  0.00  0.00    -0.430 OA
BRANCH  25  26
ATOM     26  C   UNL     1      34.985 -17.276 -22.491  0.00  0.00    +0.237 C 
BRANCH  26  27
ATOM     27  C   UNL     1      34.478 -15.885 -22.247  0.00  0.00    +0.021 C 
ATOM     28  C   UNL     1      34.198 -15.472 -20.948  0.00  0.00    -0.001 C 
ATOM     29  C   UNL     1      34.292 -15.022 -23.320  0.00  0.00    -0.001 C 
ATOM     30  C   UNL     1      33.727 -14.179 -20.721  0.00  0.00    -0.000 C 
ATOM     31  C   UNL     1      33.821 -13.729 -23.093  0.00  0.00    -0.000 C 
ATOM     32  C   UNL     1      33.538 -13.308 -21.793  0.00  0.00    -0.000 C 
ENDBRANCH  26  27
ENDBRANCH  25  26
ENDBRANCH  23  25
ENDBRANCH  20  22
ENDBRANCH   6  20
TORSDOF 5
ENDMDL
MODEL 7
REMARK VINA RESULT:     -10.9      1.883      3.469
REMARK  Name = 28693
REMARK  5 active torsions:
REMARK  status: ('A' for Active; 'I' for Inactive)
REMARK    1  A    between atoms: C_6  and  C_20
REMARK    2  A    between atoms: C_20  and  N_22
REMARK    3  A    between atoms: C_23  and  O_25
REMARK    4  A    between atoms: O_25  and  C_26
REMARK    5  A    between atoms: C_26  and  C_27
REMARK                            x       y       z     vdW  Elec       q    Type
REMARK                         _______ _______ _______ _____ _____    ______ ____
ROOT
ATOM      1  N   UNL     1      35.404 -21.367 -18.622  0.00  0.00    +0.387 N 
ATOM      2  N   UNL     1      33.419 -23.548 -13.372  0.00  0.00    -0.284 N 
ATOM      3  C   UNL     1      33.177 -22.238 -17.837  0.00  0.00    +0.004 C 
ATOM      4  C   UNL     1      34.589 -21.638 -17.412  0.00  0.00    -0.050 C 
ATOM      5  C   UNL     1      32.465 -21.281 -18.803  0.00  0.00    +0.002 C 
ATOM      6  C   UNL     1      33.367 -20.948 -19.993  0.00  0.00    -0.001 C 
ATOM      7  C   UNL     1      35.341 -22.560 -16.377  0.00  0.00    +0.007 C 
ATOM      8  C   UNL     1      34.722 -20.414 -19.516  0.00  0.00    -0.076 C 
ATOM      9  C   UNL     1      32.341 -22.590 -16.617  0.00  0.00    -0.024 C 
ATOM     10  C   UNL     1      33.039 -22.927 -15.451  0.00  0.00    +0.007 C 
ATOM     11  C   UNL     1      34.435 -22.938 -15.255  0.00  0.00    -0.008 C 
ATOM     12  C   UNL     1      32.412 -23.306 -14.279  0.00  0.00    +0.051 C 
ATOM     13  C   UNL     1      36.738 -20.850 -18.306  0.00  0.00    -0.101 C 
ATOM     14  C   UNL     1      30.946 -22.688 -16.549  0.00  0.00    -0.004 C 
ATOM     15  C   UNL     1      34.652 -23.330 -13.954  0.00  0.00    +0.061 C 
ATOM     16  C   UNL     1      31.022 -23.385 -14.194  0.00  0.00    +0.015 C 
ATOM     17  C   UNL     1      30.304 -23.070 -15.359  0.00  0.00    +0.001 C 
ATOM     18  C   UNL     1      33.230 -23.972 -12.001  0.00  0.00    +0.117 C 
ATOM     19  H   UNL     1      35.517 -22.267 -19.089  0.00  0.00    -0.080 HD
ENDROOT
BRANCH   6  20
ATOM     20  C   UNL     1      32.684 -19.938 -20.917  0.00  0.00    +0.091 C 
BRANCH  20  22
ATOM     21  O   UNL     1      33.914 -19.353 -23.483  0.00  0.00    -0.226 OA
ATOM     22  N   UNL     1      33.568 -18.861 -21.241  0.00  0.00    -0.271 N 
ATOM     23  C   UNL     1      34.115 -18.651 -22.498  0.00  0.00    +0.402 C 
ATOM     24  H   UNL     1      33.803 -18.227 -20.525  0.00  0.00    +0.153 HD
BRANCH  23  25
ATOM     25  O   UNL     1      34.915 -17.543 -22.484  0.00  0.00    -0.430 OA
BRANCH  25  26
ATOM     26  C   UNL     1      34.867 -16.753 -21.291  0.00  0.00    +0.237 C 
BRANCH  26  27
ATOM     27  C   UNL     1      34.306 -15.401 -21.622  0.00  0.00    +0.021 C 
ATOM     28  C   UNL     1      34.314 -14.955 -22.939  0.00  0.00    -0.001 C 
ATOM     29  C   UNL     1      33.782 -14.606 -20.609  0.00  0.00    -0.001 C 
ATOM     30  C   UNL     1      33.793 -13.699 -23.247  0.00  0.00    -0.000 C 
ATOM     31  C   UNL     1      33.260 -13.349 -20.916  0.00  0.00    -0.000 C 
ATOM     32  C   UNL     1      33.266 -12.896 -22.235  0.00  0.00    -0.000 C 
ENDBRANCH  26  27
ENDBRANCH  25  26
ENDBRANCH  23  25
ENDBRANCH  20  22
ENDBRANCH   6  20
TORSDOF 5
ENDMDL
MODEL 8
REMARK VINA RESULT:     -10.4      9.660     17.368
REMARK  Name = 28693
REMARK  5 active torsions:
REMARK  status: ('A' for Active; 'I' for Inactive)
REMARK    1  A    between atoms: C_6  and  C_20
REMARK    2  A    between atoms: C_20  and  N_22
REMARK    3  A    between atoms: C_23  and  O_25
REMARK    4  A    between atoms: O_25  and  C_26
REMARK    5  A    between atoms: C_26  and  C_27
REMARK                            x       y       z     vdW  Elec       q    Type
REMARK                         _______ _______ _______ _____ _____    ______ ____
ROOT
ATOM      1  N   UNL     1      34.028  -7.072 -23.270  0.00  0.00    +0.387 N 
ATOM      2  N   UNL     1      32.686  -3.099 -27.592  0.00  0.00    -0.284 N 
ATOM      3  C   UNL     1      32.628  -4.982 -23.330  0.00  0.00    +0.004 C 
ATOM      4  C   UNL     1      33.302  -6.148 -24.177  0.00  0.00    -0.050 C 
ATOM      5  C   UNL     1      31.703  -5.574 -22.258  0.00  0.00    +0.002 C 
ATOM      6  C   UNL     1      32.457  -6.591 -21.398  0.00  0.00    -0.001 C 
ATOM      7  C   UNL     1      34.224  -5.592 -25.329  0.00  0.00    +0.007 C 
ATOM      8  C   UNL     1      33.115  -7.661 -22.275  0.00  0.00    -0.076 C 
ATOM      9  C   UNL     1      31.931  -3.979 -24.235  0.00  0.00    -0.024 C 
ATOM     10  C   UNL     1      32.443  -3.838 -25.531  0.00  0.00    +0.007 C 
ATOM     11  C   UNL     1      33.507  -4.551 -26.119  0.00  0.00    -0.008 C 
ATOM     12  C   UNL     1      31.935  -2.938 -26.448  0.00  0.00    +0.051 C 
ATOM     13  C   UNL     1      34.712  -8.152 -23.986  0.00  0.00    -0.101 C 
ATOM     14  C   UNL     1      30.878  -3.122 -23.894  0.00  0.00    -0.004 C 
ATOM     15  C   UNL     1      33.645  -4.074 -27.402  0.00  0.00    +0.061 C 
ATOM     16  C   UNL     1      30.871  -2.096 -26.126  0.00  0.00    +0.015 C 
ATOM     17  C   UNL     1      30.356  -2.208 -24.824  0.00  0.00    +0.001 C 
ATOM     18  C   UNL     1      32.509  -2.360 -28.823  0.00  0.00    +0.117 C 
ATOM     19  H   UNL     1      34.736  -6.505 -22.803  0.00  0.00    -0.080 HD
ENDROOT
BRANCH   6  20
ATOM     20  C   UNL     1      31.516  -7.233 -20.377  0.00  0.00    +0.091 C 
BRANCH  20  22
ATOM     21  O   UNL     1      31.391  -9.591 -18.686  0.00  0.00    -0.226 OA
ATOM     22  N   UNL     1      31.180  -8.569 -20.760  0.00  0.00    -0.271 N 
ATOM     23  C   UNL     1      31.143  -9.645 -19.887  0.00  0.00    +0.402 C 
ATOM     24  H   UNL     1      30.960  -8.735 -21.705  0.00  0.00    +0.153 HD
BRANCH  23  25
ATOM     25  O   UNL     1      30.789 -10.783 -20.555  0.00  0.00    -0.430 OA
BRANCH  25  26
ATOM     26  C   UNL     1      31.409 -10.976 -21.832  0.00  0.00    +0.237 C 
BRANCH  26  27
ATOM     27  C   UNL     1      32.272 -12.202 -21.777  0.00  0.00    +0.021 C 
ATOM     28  C   UNL     1      33.066 -12.535 -22.868  0.00  0.00    -0.001 C 
ATOM     29  C   UNL     1      32.269 -12.995 -20.635  0.00  0.00    -0.001 C 
ATOM     30  C   UNL     1      33.869 -13.674 -22.817  0.00  0.00    -0.000 C 
ATOM     31  C   UNL     1      33.071 -14.135 -20.584  0.00  0.00    -0.000 C 
ATOM     32  C   UNL     1      33.871 -14.475 -21.675  0.00  0.00    -0.000 C 
ENDBRANCH  26  27
ENDBRANCH  25  26
ENDBRANCH  23  25
ENDBRANCH  20  22
ENDBRANCH   6  20
TORSDOF 5
ENDMDL
MODEL 9
REMARK VINA RESULT:     -10.4      8.573     15.952
REMARK  Name = 28693
REMARK  5 active torsions:
REMARK  status: ('A' for Active; 'I' for Inactive)
REMARK    1  A    between atoms: C_6  and  C_20
REMARK    2  A    between atoms: C_20  and  N_22
REMARK    3  A    between atoms: C_23  and  O_25
REMARK    4  A    between atoms: O_25  and  C_26
REMARK    5  A    between atoms: C_26  and  C_27
REMARK                            x       y       z     vdW  Elec       q    Type
REMARK                         _______ _______ _______ _____ _____    ______ ____
ROOT
ATOM      1  N   UNL     1      31.375  -6.337 -20.129  0.00  0.00    +0.387 N 
ATOM      2  N   UNL     1      32.339  -3.422 -25.309  0.00  0.00    -0.284 N 
ATOM      3  C   UNL     1      31.003  -6.929 -22.546  0.00  0.00    +0.004 C 
ATOM      4  C   UNL     1      31.780  -5.998 -21.516  0.00  0.00    -0.050 C 
ATOM      5  C   UNL     1      31.259  -8.406 -22.221  0.00  0.00    +0.002 C 
ATOM      6  C   UNL     1      30.919  -8.703 -20.759  0.00  0.00    -0.001 C 
ATOM      7  C   UNL     1      31.593  -4.465 -21.837  0.00  0.00    +0.007 C 
ATOM      8  C   UNL     1      31.668  -7.748 -19.823  0.00  0.00    -0.076 C 
ATOM      9  C   UNL     1      31.345  -6.563 -23.981  0.00  0.00    -0.024 C 
ATOM     10  C   UNL     1      31.718  -5.234 -24.221  0.00  0.00    +0.007 C 
ATOM     11  C   UNL     1      31.858  -4.195 -23.279  0.00  0.00    -0.008 C 
ATOM     12  C   UNL     1      32.017  -4.751 -25.480  0.00  0.00    +0.051 C 
ATOM     13  C   UNL     1      32.022  -5.489 -19.123  0.00  0.00    -0.101 C 
ATOM     14  C   UNL     1      31.257  -7.389 -25.108  0.00  0.00    -0.004 C 
ATOM     15  C   UNL     1      32.242  -3.074 -23.977  0.00  0.00    +0.061 C 
ATOM     16  C   UNL     1      31.955  -5.572 -26.606  0.00  0.00    +0.015 C 
ATOM     17  C   UNL     1      31.564  -6.903 -26.390  0.00  0.00    +0.001 C 
ATOM     18  C   UNL     1      32.722  -2.509 -26.364  0.00  0.00    +0.117 C 
ATOM     19  H   UNL     1      30.370  -6.170 -20.083  0.00  0.00    -0.080 HD
ENDROOT
BRANCH   6  20
ATOM     20  C   UNL     1      31.244 -10.158 -20.418  0.00  0.00    +0.091 C 
BRANCH  20  22
ATOM     21  O   UNL     1      31.725 -13.015 -20.641  0.00  0.00    -0.226 OA
ATOM     22  N   UNL     1      31.542 -10.908 -21.599  0.00  0.00    -0.271 N 
ATOM     23  C   UNL     1      31.760 -12.277 -21.620  0.00  0.00    +0.402 C 
ATOM     24  H   UNL     1      31.596 -10.419 -22.452  0.00  0.00    +0.153 HD
BRANCH  23  25
ATOM     25  O   UNL     1      32.020 -12.692 -22.896  0.00  0.00    -0.430 OA
BRANCH  25  26
ATOM     26  C   UNL     1      33.404 -12.843 -23.233  0.00  0.00    +0.237 C 
BRANCH  26  27
ATOM     27  C   UNL     1      33.746 -14.304 -23.258  0.00  0.00    +0.021 C 
ATOM     28  C   UNL     1      34.259 -14.910 -22.117  0.00  0.00    -0.001 C 
ATOM     29  C   UNL     1      33.546 -15.038 -24.421  0.00  0.00    -0.001 C 
ATOM     30  C   UNL     1      34.577 -16.268 -22.140  0.00  0.00    -0.000 C 
ATOM     31  C   UNL     1      33.863 -16.396 -24.445  0.00  0.00    -0.000 C 
ATOM     32  C   UNL     1      34.379 -17.011 -23.304  0.00  0.00    -0.000 C 
ENDBRANCH  26  27
ENDBRANCH  25  26
ENDBRANCH  23  25
ENDBRANCH  20  22
ENDBRANCH   6  20
TORSDOF 5
ENDMDL
