MODEL 1
REMARK VINA RESULT:     -13.2      0.000      0.000
REMARK  Name = 24752833
REMARK  4 active torsions:
REMARK  status: ('A' for Active; 'I' for Inactive)
REMARK    1  A    between atoms: C_1  and  N_8
REMARK    2  A    between atoms: C_2  and  N_23
REMARK    3  A    between atoms: C_9  and  C_14
REMARK    4  A    between atoms: C_24  and  C_28
REMARK                            x       y       z     vdW  Elec       q    Type
REMARK                         _______ _______ _______ _____ _____    ______ ____
ROOT
ATOM      1  C   UNL     1      30.952 -22.727 -15.014  0.00  0.00    +0.090 C 
ATOM      2  C   UNL     1      30.466 -22.853 -16.469  0.00  0.00    +0.090 C 
ATOM      3  C   UNL     1      30.053 -23.513 -14.055  0.00  0.00    +0.021 C 
ATOM      4  C   UNL     1      28.985 -22.484 -16.602  0.00  0.00    +0.021 C 
ATOM      5  C   UNL     1      28.584 -23.128 -14.201  0.00  0.00    +0.002 C 
ATOM      6  C   UNL     1      28.110 -23.282 -15.641  0.00  0.00    +0.002 C 
ENDROOT
BRANCH   1   8
ATOM      7  O   UNL     1      32.434 -23.012 -12.571  0.00  0.00    -0.267 OA
ATOM      8  N   UNL     1      32.321 -23.176 -14.881  0.00  0.00    -0.298 N 
ATOM      9  C   UNL     1      32.952 -23.281 -13.652  0.00  0.00    +0.282 C 
ATOM     10  H   UNL     1      32.823 -23.416 -15.694  0.00  0.00    +0.150 HD
BRANCH   9  14
ATOM     11  S   UNL     1      35.398 -23.268 -14.985  0.00  0.00    -0.074 S 
ATOM     12  N   UNL     1      38.751 -25.394 -14.136  0.00  0.00    +0.387 N 
ATOM     13  N   UNL     1      34.900 -24.495 -12.753  0.00  0.00    -0.399 NA
ATOM     14  C   UNL     1      34.367 -23.733 -13.687  0.00  0.00    +0.210 C 
ATOM     15  C   UNL     1      36.217 -24.727 -13.084  0.00  0.00    +0.093 C 
ATOM     16  C   UNL     1      36.653 -24.149 -14.256  0.00  0.00    +0.082 C 
ATOM     17  C   UNL     1      37.113 -25.572 -12.251  0.00  0.00    +0.032 C 
ATOM     18  C   UNL     1      38.046 -24.260 -14.780  0.00  0.00    -0.059 C 
ATOM     19  C   UNL     1      38.591 -25.376 -12.665  0.00  0.00    -0.070 C 
ATOM     20  C   UNL     1      40.167 -25.384 -14.501  0.00  0.00    -0.101 C 
ATOM     21  H   UNL     1      38.329 -26.259 -14.477  0.00  0.00    -0.080 HD
ENDBRANCH   9  14
ENDBRANCH   1   8
BRANCH   2  23
ATOM     22  O   UNL     1      32.909 -23.598 -17.779  0.00  0.00    -0.269 OA
ATOM     23  N   UNL     1      31.258 -22.028 -17.355  0.00  0.00    -0.300 N 
ATOM     24  C   UNL     1      32.428 -22.480 -17.941  0.00  0.00    +0.259 C 
ATOM     25  H   UNL     1      30.953 -21.112 -17.548  0.00  0.00    +0.150 HD
BRANCH  24  28
ATOM     26 CL   UNL     1      35.132 -17.112 -22.791  0.00  0.00    -0.082 Cl
ATOM     27  N   UNL     1      34.498 -21.348 -18.819  0.00  0.00    -0.309 N 
ATOM     28  C   UNL     1      33.138 -21.502 -18.805  0.00  0.00    +0.102 C 
ATOM     29  C   UNL     1      32.601 -20.612 -19.706  0.00  0.00    +0.020 C 
ATOM     30  C   UNL     1      34.856 -20.369 -19.718  0.00  0.00    +0.048 C 
ATOM     31  C   UNL     1      33.677 -19.887 -20.292  0.00  0.00    +0.016 C 
ATOM     32  C   UNL     1      36.120 -19.876 -20.062  0.00  0.00    +0.015 C 
ATOM     33  C   UNL     1      33.761 -18.864 -21.257  0.00  0.00    +0.013 C 
ATOM     34  C   UNL     1      35.019 -18.363 -21.613  0.00  0.00    +0.058 C 
ATOM     35  C   UNL     1      36.179 -18.862 -21.023  0.00  0.00    +0.013 C 
ATOM     36  H   UNL     1      35.129 -21.864 -18.267  0.00  0.00    +0.152 HD
ENDBRANCH  24  28
ENDBRANCH   2  23
TORSDOF 4
ENDMDL
MODEL 2
REMARK VINA RESULT:     -12.5      2.946      7.522
REMARK  Name = 24752833
REMARK  4 active torsions:
REMARK  status: ('A' for Active; 'I' for Inactive)
REMARK    1  A    between atoms: C_1  and  N_8
REMARK    2  A    between atoms: C_2  and  N_23
REMARK    3  A    between atoms: C_9  and  C_14
REMARK    4  A    between atoms: C_24  and  C_28
REMARK                            x       y       z     vdW  Elec       q    Type
REMARK                         _______ _______ _______ _____ _____    ______ ____
ROOT
ATOM      1  C   UNL     1      30.934 -22.952 -16.257  0.00  0.00    +0.090 C 
ATOM      2  C   UNL     1      31.530 -22.835 -14.842  0.00  0.00    +0.090 C 
ATOM      3  C   UNL     1      29.439 -22.619 -16.262  0.00  0.00    +0.021 C 
ATOM      4  C   UNL     1      30.732 -23.656 -13.825  0.00  0.00    +0.021 C 
ATOM      5  C   UNL     1      28.662 -23.450 -15.245  0.00  0.00    +0.002 C 
ATOM      6  C   UNL     1      29.248 -23.303 -13.845  0.00  0.00    +0.002 C 
ENDROOT
BRANCH   1   8
ATOM      7  O   UNL     1      33.157 -23.676 -17.924  0.00  0.00    -0.267 OA
ATOM      8  N   UNL     1      31.631 -22.093 -17.189  0.00  0.00    -0.298 N 
ATOM      9  C   UNL     1      32.699 -22.538 -17.953  0.00  0.00    +0.282 C 
ATOM     10  H   UNL     1      31.336 -21.158 -17.285  0.00  0.00    +0.150 HD
BRANCH   9  14
ATOM     11  S   UNL     1      32.342 -20.503 -19.822  0.00  0.00    -0.074 S 
ATOM     12  N   UNL     1      35.159 -18.543 -21.994  0.00  0.00    +0.387 N 
ATOM     13  N   UNL     1      34.627 -21.358 -18.936  0.00  0.00    -0.399 NA
ATOM     14  C   UNL     1      33.323 -21.526 -18.844  0.00  0.00    +0.210 C 
ATOM     15  C   UNL     1      34.870 -20.348 -19.840  0.00  0.00    +0.093 C 
ATOM     16  C   UNL     1      33.757 -19.779 -20.420  0.00  0.00    +0.082 C 
ATOM     17  C   UNL     1      36.245 -19.911 -20.199  0.00  0.00    +0.032 C 
ATOM     18  C   UNL     1      33.802 -18.659 -21.406  0.00  0.00    -0.059 C 
ATOM     19  C   UNL     1      36.212 -18.561 -20.953  0.00  0.00    -0.070 C 
ATOM     20  C   UNL     1      35.257 -17.333 -22.808  0.00  0.00    -0.101 C 
ATOM     21  H   UNL     1      35.311 -19.357 -22.591  0.00  0.00    -0.080 HD
ENDBRANCH   9  14
ENDBRANCH   1   8
BRANCH   2  23
ATOM     22  O   UNL     1      33.131 -23.380 -12.523  0.00  0.00    -0.269 OA
ATOM     23  N   UNL     1      32.916 -23.248 -14.827  0.00  0.00    -0.300 N 
ATOM     24  C   UNL     1      33.606 -23.488 -13.651  0.00  0.00    +0.259 C 
ATOM     25  H   UNL     1      33.386 -23.364 -15.684  0.00  0.00    +0.150 HD
BRANCH  24  28
ATOM     26 CL   UNL     1      40.807 -26.280 -13.688  0.00  0.00    -0.082 Cl
ATOM     27  N   UNL     1      35.894 -23.278 -14.678  0.00  0.00    -0.309 N 
ATOM     28  C   UNL     1      35.031 -23.880 -13.804  0.00  0.00    +0.102 C 
ATOM     29  C   UNL     1      35.720 -24.868 -13.140  0.00  0.00    +0.020 C 
ATOM     30  C   UNL     1      37.139 -23.859 -14.593  0.00  0.00    +0.048 C 
ATOM     31  C   UNL     1      37.057 -24.867 -13.628  0.00  0.00    +0.016 C 
ATOM     32  C   UNL     1      38.319 -23.575 -15.288  0.00  0.00    +0.015 C 
ATOM     33  C   UNL     1      38.207 -25.628 -13.343  0.00  0.00    +0.013 C 
ATOM     34  C   UNL     1      39.395 -25.354 -14.030  0.00  0.00    +0.058 C 
ATOM     35  C   UNL     1      39.448 -24.343 -14.988  0.00  0.00    +0.013 C 
ATOM     36  H   UNL     1      35.660 -22.536 -15.281  0.00  0.00    +0.152 HD
ENDBRANCH  24  28
ENDBRANCH   2  23
TORSDOF 4
ENDMDL
MODEL 3
REMARK VINA RESULT:     -10.3      2.999      8.269
REMARK  Name = 24752833
REMARK  4 active torsions:
REMARK  status: ('A' for Active; 'I' for Inactive)
REMARK    1  A    between atoms: C_1  and  N_8
REMARK    2  A    between atoms: C_2  and  N_23
REMARK    3  A    between atoms: C_9  and  C_14
REMARK    4  A    between atoms: C_24  and  C_28
REMARK                            x       y       z     vdW  Elec       q    Type
REMARK                         _______ _______ _______ _____ _____    ______ ____
ROOT
ATOM      1  C   UNL     1      37.154 -23.403 -15.104  0.00  0.00    +0.090 C 
ATOM      2  C   UNL     1      36.401 -24.744 -15.058  0.00  0.00    +0.090 C 
ATOM      3  C   UNL     1      38.667 -23.608 -14.978  0.00  0.00    +0.021 C 
ATOM      4  C   UNL     1      36.791 -25.568 -13.827  0.00  0.00    +0.021 C 
ATOM      5  C   UNL     1      39.034 -24.426 -13.744  0.00  0.00    +0.002 C 
ATOM      6  C   UNL     1      38.301 -25.762 -13.725  0.00  0.00    +0.002 C 
ENDROOT
BRANCH   1   8
ATOM      7  O   UNL     1      35.023 -21.521 -15.505  0.00  0.00    -0.267 OA
ATOM      8  N   UNL     1      36.857 -22.680 -16.322  0.00  0.00    -0.298 N 
ATOM      9  C   UNL     1      35.801 -21.788 -16.416  0.00  0.00    +0.282 C 
ATOM     10  H   UNL     1      37.427 -22.826 -17.112  0.00  0.00    +0.150 HD
BRANCH   9  14
ATOM     11  S   UNL     1      34.247 -21.536 -18.715  0.00  0.00    -0.074 S 
ATOM     12  N   UNL     1      35.081 -19.486 -22.119  0.00  0.00    +0.387 N 
ATOM     13  N   UNL     1      36.458 -20.264 -18.239  0.00  0.00    -0.399 NA
ATOM     14  C   UNL     1      35.613 -21.145 -17.742  0.00  0.00    +0.210 C 
ATOM     15  C   UNL     1      35.993 -19.866 -19.472  0.00  0.00    +0.093 C 
ATOM     16  C   UNL     1      34.820 -20.454 -19.891  0.00  0.00    +0.082 C 
ATOM     17  C   UNL     1      36.721 -18.887 -20.323  0.00  0.00    +0.032 C 
ATOM     18  C   UNL     1      34.139 -20.145 -21.183  0.00  0.00    -0.059 C 
ATOM     19  C   UNL     1      35.814 -18.376 -21.468  0.00  0.00    -0.070 C 
ATOM     20  C   UNL     1      34.370 -19.010 -23.304  0.00  0.00    -0.101 C 
ATOM     21  H   UNL     1      35.774 -20.179 -22.405  0.00  0.00    -0.080 HD
ENDBRANCH   9  14
ENDBRANCH   1   8
BRANCH   2  23
ATOM     22  O   UNL     1      34.783 -23.760 -12.900  0.00  0.00    -0.269 OA
ATOM     23  N   UNL     1      34.970 -24.537 -15.076  0.00  0.00    -0.300 N 
ATOM     24  C   UNL     1      34.275 -24.056 -13.979  0.00  0.00    +0.259 C 
ATOM     25  H   UNL     1      34.471 -24.746 -15.899  0.00  0.00    +0.150 HD
BRANCH  24  28
ATOM     26 CL   UNL     1      26.850 -22.390 -15.297  0.00  0.00    -0.082 Cl
ATOM     27  N   UNL     1      31.909 -24.893 -13.790  0.00  0.00    -0.309 N 
ATOM     28  C   UNL     1      32.805 -23.924 -14.151  0.00  0.00    +0.102 C 
ATOM     29  C   UNL     1      32.099 -22.867 -14.676  0.00  0.00    +0.020 C 
ATOM     30  C   UNL     1      30.626 -24.481 -14.073  0.00  0.00    +0.048 C 
ATOM     31  C   UNL     1      30.718 -23.205 -14.633  0.00  0.00    +0.016 C 
ATOM     32  C   UNL     1      29.404 -25.134 -13.879  0.00  0.00    +0.015 C 
ATOM     33  C   UNL     1      29.533 -22.546 -15.018  0.00  0.00    +0.013 C 
ATOM     34  C   UNL     1      28.303 -23.187 -14.829  0.00  0.00    +0.058 C 
ATOM     35  C   UNL     1      28.241 -24.461 -14.268  0.00  0.00    +0.013 C 
ATOM     36  H   UNL     1      32.146 -25.758 -13.386  0.00  0.00    +0.152 HD
ENDBRANCH  24  28
ENDBRANCH   2  23
TORSDOF 4
ENDMDL
