MODEL 1
REMARK VINA RESULT:     -10.1      0.000      0.000
REMARK  Name = 78209992
REMARK  4 active torsions:
REMARK  status: ('A' for Active; 'I' for Inactive)
REMARK    1  A    between atoms: N_1  and  C_15
REMARK    2  A    between atoms: C_4  and  O_23
REMARK    3  A    between atoms: C_6  and  O_21
REMARK    4  A    between atoms: O_23  and  C_33
REMARK                            x       y       z     vdW  Elec       q    Type
REMARK                         _______ _______ _______ _____ _____    ______ ____
ROOT
ATOM      1  N   UNL     1      33.263 -11.058 -23.238  0.00  0.00    -0.296 N 
ATOM      2  N   UNL     1      30.544  -9.107 -20.803  0.00  0.00    -0.248 NA
ATOM      3  N   UNL     1      31.663 -11.119 -21.513  0.00  0.00    -0.230 NA
ATOM      4  C   UNL     1      32.667  -6.875 -23.611  0.00  0.00    +0.180 C 
ATOM      5  C   UNL     1      32.882  -8.246 -23.510  0.00  0.00    +0.044 C 
ATOM      6  C   UNL     1      31.743  -6.262 -22.772  0.00  0.00    +0.157 C 
ATOM      7  C   UNL     1      32.167  -9.002 -22.564  0.00  0.00    +0.048 C 
ATOM      8  C   UNL     1      31.232  -8.395 -21.711  0.00  0.00    +0.066 C 
ATOM      9  C   UNL     1      31.037  -7.021 -21.833  0.00  0.00    +0.112 C 
ATOM     10  C   UNL     1      32.335 -10.375 -22.412  0.00  0.00    +0.131 C 
ATOM     11  C   UNL     1      30.796 -10.431 -20.754  0.00  0.00    +0.252 C 
ATOM     12  H   UNL     1      34.027 -10.505 -23.517  0.00  0.00    +0.154 HD
ENDROOT
BRANCH   1  15
ATOM     13 CL   UNL     1      34.437 -15.991 -22.450  0.00  0.00    -0.080 Cl
ATOM     14  F   UNL     1      34.226 -13.143 -21.692  0.00  0.00    -0.202 F 
ATOM     15  C   UNL     1      33.303 -12.371 -23.732  0.00  0.00    +0.078 C 
ATOM     16  C   UNL     1      33.794 -13.405 -22.935  0.00  0.00    +0.164 C 
ATOM     17  C   UNL     1      32.853 -12.640 -25.023  0.00  0.00    +0.017 C 
ATOM     18  C   UNL     1      33.833 -14.709 -23.429  0.00  0.00    +0.086 C 
ATOM     19  C   UNL     1      32.892 -13.944 -25.518  0.00  0.00    +0.002 C 
ATOM     20  C   UNL     1      33.382 -14.978 -24.721  0.00  0.00    +0.014 C 
ENDBRANCH   1  15
BRANCH   6  21
ATOM     21  O   UNL     1      31.515  -4.921 -22.853  0.00  0.00    -0.472 OA
ATOM     22  C   UNL     1      30.460  -4.393 -22.052  0.00  0.00    +0.252 C 
ENDBRANCH   6  21
BRANCH   4  23
ATOM     23  O   UNL     1      33.381  -6.130 -24.554  0.00  0.00    -0.407 OA
BRANCH  23  33
ATOM     24  O   UNL     1      31.544  -6.286 -25.957  0.00  0.00    -0.226 OA
ATOM     25  N   UNL     1      33.545  -5.408 -26.759  0.00  0.00    -0.252 N 
ATOM     26  N   UNL     1      35.288  -4.694 -28.923  0.00  0.00    +0.388 N 
ATOM     27  C   UNL     1      34.877  -4.842 -26.470  0.00  0.00    +0.058 C 
ATOM     28  C   UNL     1      35.850  -5.112 -27.631  0.00  0.00    -0.057 C 
ATOM     29  C   UNL     1      33.012  -5.166 -28.099  0.00  0.00    +0.074 C 
ATOM     30  C   UNL     1      34.046  -5.432 -29.190  0.00  0.00    -0.055 C 
ATOM     31  C   UNL     1      34.767  -3.350 -26.142  0.00  0.00    +0.019 C 
ATOM     32  C   UNL     1      36.255  -4.914 -29.999  0.00  0.00    -0.101 C 
ATOM     33  C   UNL     1      32.720  -5.970 -25.776  0.00  0.00    +0.409 C 
ATOM     34  H   UNL     1      35.078  -3.697 -28.884  0.00  0.00    -0.080 HD
ENDBRANCH  23  33
ENDBRANCH   4  23
TORSDOF 4
ENDMDL
MODEL 2
REMARK VINA RESULT:      -9.5     11.098     15.022
REMARK  Name = 78209992
REMARK  4 active torsions:
REMARK  status: ('A' for Active; 'I' for Inactive)
REMARK    1  A    between atoms: N_1  and  C_15
REMARK    2  A    between atoms: C_4  and  O_23
REMARK    3  A    between atoms: C_6  and  O_21
REMARK    4  A    between atoms: O_23  and  C_33
REMARK                            x       y       z     vdW  Elec       q    Type
REMARK                         _______ _______ _______ _____ _____    ______ ____
ROOT
ATOM      1  N   UNL     1      35.800 -22.962 -15.394  0.00  0.00    -0.296 N 
ATOM      2  N   UNL     1      31.685 -22.631 -15.687  0.00  0.00    -0.248 NA
ATOM      3  N   UNL     1      33.665 -23.172 -14.426  0.00  0.00    -0.230 NA
ATOM      4  C   UNL     1      34.007 -21.630 -19.000  0.00  0.00    +0.180 C 
ATOM      5  C   UNL     1      34.622 -22.064 -17.830  0.00  0.00    +0.044 C 
ATOM      6  C   UNL     1      32.621 -21.534 -19.053  0.00  0.00    +0.157 C 
ATOM      7  C   UNL     1      33.841 -22.403 -16.710  0.00  0.00    +0.048 C 
ATOM      8  C   UNL     1      32.441 -22.310 -16.750  0.00  0.00    +0.066 C 
ATOM      9  C   UNL     1      31.852 -21.872 -17.935  0.00  0.00    +0.112 C 
ATOM     10  C   UNL     1      34.392 -22.843 -15.510  0.00  0.00    +0.131 C 
ATOM     11  C   UNL     1      32.338 -23.045 -14.582  0.00  0.00    +0.252 C 
ATOM     12  H   UNL     1      36.299 -22.322 -15.950  0.00  0.00    +0.154 HD
ENDROOT
BRANCH   1  15
ATOM     13 CL   UNL     1      40.521 -24.631 -14.276  0.00  0.00    -0.080 Cl
ATOM     14  F   UNL     1      38.550 -22.962 -15.711  0.00  0.00    -0.202 F 
ATOM     15  C   UNL     1      36.619 -23.814 -14.637  0.00  0.00    +0.078 C 
ATOM     16  C   UNL     1      38.002 -23.797 -14.815  0.00  0.00    +0.164 C 
ATOM     17  C   UNL     1      36.046 -24.680 -13.706  0.00  0.00    +0.017 C 
ATOM     18  C   UNL     1      38.812 -24.647 -14.062  0.00  0.00    +0.086 C 
ATOM     19  C   UNL     1      36.857 -25.530 -12.953  0.00  0.00    +0.002 C 
ATOM     20  C   UNL     1      38.240 -25.513 -13.130  0.00  0.00    +0.014 C 
ENDBRANCH   1  15
BRANCH   6  21
ATOM     21  O   UNL     1      31.998 -21.112 -20.188  0.00  0.00    -0.472 OA
ATOM     22  C   UNL     1      31.713 -19.718 -20.291  0.00  0.00    +0.252 C 
ENDBRANCH   6  21
BRANCH   4  23
ATOM     23  O   UNL     1      34.790 -21.295 -20.110  0.00  0.00    -0.407 OA
BRANCH  23  33
ATOM     24  O   UNL     1      36.263 -19.881 -19.016  0.00  0.00    -0.226 OA
ATOM     25  N   UNL     1      35.281 -19.211 -21.017  0.00  0.00    -0.252 N 
ATOM     26  N   UNL     1      34.517 -17.169 -22.882  0.00  0.00    +0.388 N 
ATOM     27  C   UNL     1      34.548 -19.578 -22.244  0.00  0.00    +0.058 C 
ATOM     28  C   UNL     1      33.712 -18.392 -22.757  0.00  0.00    -0.057 C 
ATOM     29  C   UNL     1      35.961 -17.917 -21.027  0.00  0.00    +0.074 C 
ATOM     30  C   UNL     1      35.074 -16.801 -21.572  0.00  0.00    -0.055 C 
ATOM     31  C   UNL     1      35.514 -20.108 -23.308  0.00  0.00    +0.019 C 
ATOM     32  C   UNL     1      33.709 -16.075 -23.420  0.00  0.00    -0.101 C 
ATOM     33  C   UNL     1      35.510 -20.106 -19.964  0.00  0.00    +0.409 C 
ATOM     34  H   UNL     1      35.286 -17.345 -23.529  0.00  0.00    -0.080 HD
ENDBRANCH  23  33
ENDBRANCH   4  23
TORSDOF 4
ENDMDL
MODEL 3
REMARK VINA RESULT:      -9.5      1.021      1.659
REMARK  Name = 78209992
REMARK  4 active torsions:
REMARK  status: ('A' for Active; 'I' for Inactive)
REMARK    1  A    between atoms: N_1  and  C_15
REMARK    2  A    between atoms: C_4  and  O_23
REMARK    3  A    between atoms: C_6  and  O_21
REMARK    4  A    between atoms: O_23  and  C_33
REMARK                            x       y       z     vdW  Elec       q    Type
REMARK                         _______ _______ _______ _____ _____    ______ ____
ROOT
ATOM      1  N   UNL     1      33.081 -11.120 -23.302  0.00  0.00    -0.296 N 
ATOM      2  N   UNL     1      30.732  -9.308 -20.416  0.00  0.00    -0.248 NA
ATOM      3  N   UNL     1      31.941 -11.219 -21.246  0.00  0.00    -0.230 NA
ATOM      4  C   UNL     1      31.816  -7.099 -23.781  0.00  0.00    +0.180 C 
ATOM      5  C   UNL     1      32.245  -8.416 -23.650  0.00  0.00    +0.044 C 
ATOM      6  C   UNL     1      31.028  -6.531 -22.786  0.00  0.00    +0.157 C 
ATOM      7  C   UNL     1      31.881  -9.164 -22.516  0.00  0.00    +0.048 C 
ATOM      8  C   UNL     1      31.086  -8.602 -21.504  0.00  0.00    +0.066 C 
ATOM      9  C   UNL     1      30.671  -7.282 -21.661  0.00  0.00    +0.112 C 
ATOM     10  C   UNL     1      32.276 -10.484 -22.323  0.00  0.00    +0.131 C 
ATOM     11  C   UNL     1      31.179 -10.578 -20.346  0.00  0.00    +0.252 C 
ATOM     12  H   UNL     1      33.673 -10.503 -23.789  0.00  0.00    +0.154 HD
ENDROOT
BRANCH   1  15
ATOM     13 CL   UNL     1      34.610 -15.898 -22.227  0.00  0.00    -0.080 Cl
ATOM     14  F   UNL     1      34.226 -13.025 -21.652  0.00  0.00    -0.202 F 
ATOM     15  C   UNL     1      33.198 -12.458 -23.709  0.00  0.00    +0.078 C 
ATOM     16  C   UNL     1      33.779 -13.400 -22.861  0.00  0.00    +0.164 C 
ATOM     17  C   UNL     1      32.732 -12.844 -24.965  0.00  0.00    +0.017 C 
ATOM     18  C   UNL     1      33.894 -14.729 -23.269  0.00  0.00    +0.086 C 
ATOM     19  C   UNL     1      32.847 -14.173 -25.374  0.00  0.00    +0.002 C 
ATOM     20  C   UNL     1      33.428 -15.115 -24.526  0.00  0.00    +0.014 C 
ENDBRANCH   1  15
BRANCH   6  21
ATOM     21  O   UNL     1      30.596  -5.244 -22.894  0.00  0.00    -0.472 OA
ATOM     22  C   UNL     1      29.988  -4.666 -21.740  0.00  0.00    +0.252 C 
ENDBRANCH   6  21
BRANCH   4  23
ATOM     23  O   UNL     1      32.181  -6.362 -24.912  0.00  0.00    -0.407 OA
BRANCH  23  33
ATOM     24  O   UNL     1      34.365  -6.424 -24.142  0.00  0.00    -0.226 OA
ATOM     25  N   UNL     1      33.841  -5.196 -26.049  0.00  0.00    -0.252 N 
ATOM     26  N   UNL     1      34.447  -3.148 -27.964  0.00  0.00    +0.388 N 
ATOM     27  C   UNL     1      32.886  -4.904 -27.135  0.00  0.00    +0.058 C 
ATOM     28  C   UNL     1      33.050  -3.457 -27.633  0.00  0.00    -0.057 C 
ATOM     29  C   UNL     1      35.219  -4.752 -26.256  0.00  0.00    +0.074 C 
ATOM     30  C   UNL     1      35.293  -3.318 -26.775  0.00  0.00    -0.055 C 
ATOM     31  C   UNL     1      33.031  -5.925 -28.267  0.00  0.00    +0.019 C 
ATOM     32  C   UNL     1      34.564  -1.786 -28.485  0.00  0.00    -0.101 C 
ATOM     33  C   UNL     1      33.537  -6.026 -24.962  0.00  0.00    +0.409 C 
ATOM     34  H   UNL     1      34.764  -3.793 -28.689  0.00  0.00    -0.080 HD
ENDBRANCH  23  33
ENDBRANCH   4  23
TORSDOF 4
ENDMDL
MODEL 4
REMARK VINA RESULT:      -9.5     13.495     18.118
REMARK  Name = 78209992
REMARK  4 active torsions:
REMARK  status: ('A' for Active; 'I' for Inactive)
REMARK    1  A    between atoms: N_1  and  C_15
REMARK    2  A    between atoms: C_4  and  O_23
REMARK    3  A    between atoms: C_6  and  O_21
REMARK    4  A    between atoms: O_23  and  C_33
REMARK                            x       y       z     vdW  Elec       q    Type
REMARK                         _______ _______ _______ _____ _____    ______ ____
ROOT
ATOM      1  N   UNL     1      33.358 -22.096 -18.040  0.00  0.00    -0.296 N 
ATOM      2  N   UNL     1      30.205 -22.704 -15.429  0.00  0.00    -0.248 NA
ATOM      3  N   UNL     1      31.054 -22.000 -17.571  0.00  0.00    -0.230 NA
ATOM      4  C   UNL     1      34.061 -23.642 -14.153  0.00  0.00    +0.180 C 
ATOM      5  C   UNL     1      33.860 -23.136 -15.433  0.00  0.00    +0.044 C 
ATOM      6  C   UNL     1      32.971 -23.830 -13.309  0.00  0.00    +0.157 C 
ATOM      7  C   UNL     1      32.560 -22.819 -15.866  0.00  0.00    +0.048 C 
ATOM      8  C   UNL     1      31.452 -23.004 -15.025  0.00  0.00    +0.066 C 
ATOM      9  C   UNL     1      31.682 -23.512 -13.749  0.00  0.00    +0.112 C 
ATOM     10  C   UNL     1      32.290 -22.310 -17.134  0.00  0.00    +0.131 C 
ATOM     11  C   UNL     1      30.075 -22.219 -16.680  0.00  0.00    +0.252 C 
ATOM     12  H   UNL     1      34.112 -22.717 -17.917  0.00  0.00    +0.154 HD
ENDROOT
BRANCH   1  15
ATOM     13 CL   UNL     1      36.592 -19.201 -20.777  0.00  0.00    -0.080 Cl
ATOM     14  F   UNL     1      35.880 -21.140 -18.664  0.00  0.00    -0.202 F 
ATOM     15  C   UNL     1      33.549 -21.172 -19.078  0.00  0.00    +0.078 C 
ATOM     16  C   UNL     1      34.829 -20.703 -19.374  0.00  0.00    +0.164 C 
ATOM     17  C   UNL     1      32.454 -20.720 -19.814  0.00  0.00    +0.017 C 
ATOM     18  C   UNL     1      35.014 -19.783 -20.406  0.00  0.00    +0.086 C 
ATOM     19  C   UNL     1      32.639 -19.800 -20.847  0.00  0.00    +0.002 C 
ATOM     20  C   UNL     1      33.919 -19.332 -21.143  0.00  0.00    +0.014 C 
ENDBRANCH   1  15
BRANCH   6  21
ATOM     21  O   UNL     1      33.145 -24.323 -12.051  0.00  0.00    -0.472 OA
ATOM     22  C   UNL     1      34.341 -23.949 -11.369  0.00  0.00    +0.252 C 
ENDBRANCH   6  21
BRANCH   4  23
ATOM     23  O   UNL     1      35.356 -23.954 -13.728  0.00  0.00    -0.407 OA
BRANCH  23  33
ATOM     24  O   UNL     1      36.138 -23.083 -15.727  0.00  0.00    -0.226 OA
ATOM     25  N   UNL     1      37.601 -24.181 -14.288  0.00  0.00    -0.252 N 
ATOM     26  N   UNL     1      40.072 -25.547 -13.779  0.00  0.00    +0.388 N 
ATOM     27  C   UNL     1      37.880 -24.711 -12.940  0.00  0.00    +0.058 C 
ATOM     28  C   UNL     1      38.869 -25.889 -13.009  0.00  0.00    -0.057 C 
ATOM     29  C   UNL     1      38.758 -23.984 -15.162  0.00  0.00    +0.074 C 
ATOM     30  C   UNL     1      39.700 -25.185 -15.154  0.00  0.00    -0.055 C 
ATOM     31  C   UNL     1      38.373 -23.595 -12.015  0.00  0.00    +0.019 C 
ATOM     32  C   UNL     1      41.016 -26.665 -13.782  0.00  0.00    -0.101 C 
ATOM     33  C   UNL     1      36.349 -23.688 -14.675  0.00  0.00    +0.409 C 
ATOM     34  H   UNL     1      40.529 -24.748 -13.339  0.00  0.00    -0.080 HD
ENDBRANCH  23  33
ENDBRANCH   4  23
TORSDOF 4
ENDMDL
MODEL 5
REMARK VINA RESULT:      -9.4      2.602      3.672
REMARK  Name = 78209992
REMARK  4 active torsions:
REMARK  status: ('A' for Active; 'I' for Inactive)
REMARK    1  A    between atoms: N_1  and  C_15
REMARK    2  A    between atoms: C_4  and  O_23
REMARK    3  A    between atoms: C_6  and  O_21
REMARK    4  A    between atoms: O_23  and  C_33
REMARK                            x       y       z     vdW  Elec       q    Type
REMARK                         _______ _______ _______ _____ _____    ______ ____
ROOT
ATOM      1  N   UNL     1      33.601 -13.545 -22.843  0.00  0.00    -0.296 N 
ATOM      2  N   UNL     1      31.270 -12.011 -19.786  0.00  0.00    -0.248 NA
ATOM      3  N   UNL     1      32.510 -13.824 -20.776  0.00  0.00    -0.230 NA
ATOM      4  C   UNL     1      32.219  -9.538 -23.004  0.00  0.00    +0.180 C 
ATOM      5  C   UNL     1      32.685 -10.848 -22.977  0.00  0.00    +0.044 C 
ATOM      6  C   UNL     1      31.438  -9.065 -21.955  0.00  0.00    +0.157 C 
ATOM      7  C   UNL     1      32.367 -11.685 -21.893  0.00  0.00    +0.048 C 
ATOM      8  C   UNL     1      31.580 -11.220 -20.827  0.00  0.00    +0.066 C 
ATOM      9  C   UNL     1      31.127  -9.904 -20.880  0.00  0.00    +0.112 C 
ATOM     10  C   UNL     1      32.802 -13.004 -21.804  0.00  0.00    +0.131 C 
ATOM     11  C   UNL     1      31.752 -13.270 -19.817  0.00  0.00    +0.252 C 
ATOM     12  H   UNL     1      34.165 -12.878 -23.296  0.00  0.00    +0.154 HD
ENDROOT
BRANCH   1  15
ATOM     13 CL   UNL     1      35.296 -18.338 -22.154  0.00  0.00    -0.080 Cl
ATOM     14  F   UNL     1      34.846 -15.527 -21.365  0.00  0.00    -0.202 F 
ATOM     15  C   UNL     1      33.744 -14.846 -23.348  0.00  0.00    +0.078 C 
ATOM     16  C   UNL     1      34.376 -15.828 -22.585  0.00  0.00    +0.164 C 
ATOM     17  C   UNL     1      33.254 -15.156 -24.616  0.00  0.00    +0.017 C 
ATOM     18  C   UNL     1      34.517 -17.120 -23.091  0.00  0.00    +0.086 C 
ATOM     19  C   UNL     1      33.395 -16.449 -25.121  0.00  0.00    +0.002 C 
ATOM     20  C   UNL     1      34.027 -17.431 -24.359  0.00  0.00    +0.014 C 
ENDBRANCH   1  15
BRANCH   6  21
ATOM     21  O   UNL     1      30.970  -7.786 -21.960  0.00  0.00    -0.472 OA
ATOM     22  C   UNL     1      31.348  -6.953 -20.866  0.00  0.00    +0.252 C 
ENDBRANCH   6  21
BRANCH   4  23
ATOM     23  O   UNL     1      32.539  -8.711 -24.086  0.00  0.00    -0.407 OA
BRANCH  23  33
ATOM     24  O   UNL     1      34.464  -7.763 -23.214  0.00  0.00    -0.226 OA
ATOM     25  N   UNL     1      32.808  -6.401 -24.120  0.00  0.00    -0.252 N 
ATOM     26  N   UNL     1      31.539  -3.845 -24.416  0.00  0.00    +0.388 N 
ATOM     27  C   UNL     1      31.598  -6.277 -24.955  0.00  0.00    +0.058 C 
ATOM     28  C   UNL     1      30.744  -5.077 -24.507  0.00  0.00    -0.057 C 
ATOM     29  C   UNL     1      33.545  -5.166 -23.853  0.00  0.00    +0.074 C 
ATOM     30  C   UNL     1      32.624  -4.021 -23.440  0.00  0.00    -0.055 C 
ATOM     31  C   UNL     1      31.975  -6.197 -26.438  0.00  0.00    +0.019 C 
ATOM     32  C   UNL     1      30.691  -2.714 -24.040  0.00  0.00    -0.101 C 
ATOM     33  C   UNL     1      33.367  -7.634 -23.757  0.00  0.00    +0.409 C 
ATOM     34  H   UNL     1      31.946  -3.647 -25.330  0.00  0.00    -0.080 HD
ENDBRANCH  23  33
ENDBRANCH   4  23
TORSDOF 4
ENDMDL
MODEL 6
REMARK VINA RESULT:      -8.8     12.687     16.673
REMARK  Name = 78209992
REMARK  4 active torsions:
REMARK  status: ('A' for Active; 'I' for Inactive)
REMARK    1  A    between atoms: N_1  and  C_15
REMARK    2  A    between atoms: C_4  and  O_23
REMARK    3  A    between atoms: C_6  and  O_21
REMARK    4  A    between atoms: O_23  and  C_33
REMARK                            x       y       z     vdW  Elec       q    Type
REMARK                         _______ _______ _______ _____ _____    ______ ____
ROOT
ATOM      1  N   UNL     1      34.726 -23.372 -14.069  0.00  0.00    -0.296 N 
ATOM      2  N   UNL     1      30.804 -23.938 -12.877  0.00  0.00    -0.248 NA
ATOM      3  N   UNL     1      33.170 -24.076 -12.450  0.00  0.00    -0.230 NA
ATOM      4  C   UNL     1      31.528 -22.341 -16.659  0.00  0.00    +0.180 C 
ATOM      5  C   UNL     1      32.596 -22.671 -15.830  0.00  0.00    +0.044 C 
ATOM      6  C   UNL     1      30.226 -22.549 -16.216  0.00  0.00    +0.157 C 
ATOM      7  C   UNL     1      32.355 -23.210 -14.554  0.00  0.00    +0.048 C 
ATOM      8  C   UNL     1      31.046 -23.424 -14.095  0.00  0.00    +0.066 C 
ATOM      9  C   UNL     1      29.995 -23.085 -14.945  0.00  0.00    +0.112 C 
ATOM     10  C   UNL     1      33.377 -23.560 -13.676  0.00  0.00    +0.131 C 
ATOM     11  C   UNL     1      31.879 -24.236 -12.121  0.00  0.00    +0.252 C 
ATOM     12  H   UNL     1      34.857 -22.620 -14.690  0.00  0.00    +0.154 HD
ENDROOT
BRANCH   1  15
ATOM     13 CL   UNL     1      39.629 -24.391 -15.187  0.00  0.00    -0.080 Cl
ATOM     14  F   UNL     1      37.006 -23.100 -15.615  0.00  0.00    -0.202 F 
ATOM     15  C   UNL     1      35.911 -24.050 -13.743  0.00  0.00    +0.078 C 
ATOM     16  C   UNL     1      37.047 -23.898 -14.537  0.00  0.00    +0.164 C 
ATOM     17  C   UNL     1      35.949 -24.879 -12.622  0.00  0.00    +0.017 C 
ATOM     18  C   UNL     1      38.222 -24.574 -14.211  0.00  0.00    +0.086 C 
ATOM     19  C   UNL     1      37.125 -25.555 -12.295  0.00  0.00    +0.002 C 
ATOM     20  C   UNL     1      38.261 -25.403 -13.089  0.00  0.00    +0.014 C 
ENDBRANCH   1  15
BRANCH   6  21
ATOM     21  O   UNL     1      29.165 -22.235 -17.011  0.00  0.00    -0.472 OA
ATOM     22  C   UNL     1      27.863 -22.455 -16.471  0.00  0.00    +0.252 C 
ENDBRANCH   6  21
BRANCH   4  23
ATOM     23  O   UNL     1      31.775 -21.806 -17.927  0.00  0.00    -0.407 OA
BRANCH  23  33
ATOM     24  O   UNL     1      33.303 -23.489 -18.376  0.00  0.00    -0.226 OA
ATOM     25  N   UNL     1      33.501 -21.427 -19.438  0.00  0.00    -0.252 N 
ATOM     26  N   UNL     1      35.037 -19.482 -20.883  0.00  0.00    +0.388 N 
ATOM     27  C   UNL     1      32.886 -20.139 -19.811  0.00  0.00    +0.058 C 
ATOM     28  C   UNL     1      33.960 -19.049 -19.983  0.00  0.00    -0.057 C 
ATOM     29  C   UNL     1      34.689 -21.824 -20.194  0.00  0.00    +0.074 C 
ATOM     30  C   UNL     1      35.690 -20.682 -20.341  0.00  0.00    -0.055 C 
ATOM     31  C   UNL     1      32.019 -20.300 -21.064  0.00  0.00    +0.019 C 
ATOM     32  C   UNL     1      36.013 -18.408 -21.069  0.00  0.00    -0.101 C 
ATOM     33  C   UNL     1      32.899 -22.341 -18.564  0.00  0.00    +0.409 C 
ATOM     34  H   UNL     1      34.636 -19.707 -21.794  0.00  0.00    -0.080 HD
ENDBRANCH  23  33
ENDBRANCH   4  23
TORSDOF 4
ENDMDL
MODEL 7
REMARK VINA RESULT:      -8.3     13.614     18.179
REMARK  Name = 78209992
REMARK  4 active torsions:
REMARK  status: ('A' for Active; 'I' for Inactive)
REMARK    1  A    between atoms: N_1  and  C_15
REMARK    2  A    between atoms: C_4  and  O_23
REMARK    3  A    between atoms: C_6  and  O_21
REMARK    4  A    between atoms: O_23  and  C_33
REMARK                            x       y       z     vdW  Elec       q    Type
REMARK                         _______ _______ _______ _____ _____    ______ ____
ROOT
ATOM      1  N   UNL     1      34.037 -22.031 -18.198  0.00  0.00    -0.296 N 
ATOM      2  N   UNL     1      30.230 -22.226 -16.586  0.00  0.00    -0.248 NA
ATOM      3  N   UNL     1      31.737 -21.549 -18.339  0.00  0.00    -0.230 NA
ATOM      4  C   UNL     1      33.387 -23.927 -14.460  0.00  0.00    +0.180 C 
ATOM      5  C   UNL     1      33.629 -23.311 -15.684  0.00  0.00    +0.044 C 
ATOM      6  C   UNL     1      32.091 -23.969 -13.957  0.00  0.00    +0.157 C 
ATOM      7  C   UNL     1      32.566 -22.736 -16.403  0.00  0.00    +0.048 C 
ATOM      8  C   UNL     1      31.253 -22.772 -15.907  0.00  0.00    +0.066 C 
ATOM      9  C   UNL     1      31.040 -23.396 -14.679  0.00  0.00    +0.112 C 
ATOM     10  C   UNL     1      32.739 -22.106 -17.632  0.00  0.00    +0.131 C 
ATOM     11  C   UNL     1      30.528 -21.644 -17.765  0.00  0.00    +0.252 C 
ATOM     12  H   UNL     1      34.620 -22.784 -17.954  0.00  0.00    +0.154 HD
ENDROOT
BRANCH   1  15
ATOM     13 CL   UNL     1      33.698 -18.956 -22.293  0.00  0.00    -0.080 Cl
ATOM     14  F   UNL     1      32.683 -20.941 -20.353  0.00  0.00    -0.202 F 
ATOM     15  C   UNL     1      34.649 -21.090 -19.041  0.00  0.00    +0.078 C 
ATOM     16  C   UNL     1      33.947 -20.555 -20.121  0.00  0.00    +0.164 C 
ATOM     17  C   UNL     1      35.962 -20.691 -18.797  0.00  0.00    +0.017 C 
ATOM     18  C   UNL     1      34.559 -19.622 -20.957  0.00  0.00    +0.086 C 
ATOM     19  C   UNL     1      36.574 -19.757 -19.633  0.00  0.00    +0.002 C 
ATOM     20  C   UNL     1      35.873 -19.222 -20.713  0.00  0.00    +0.014 C 
ENDBRANCH   1  15
BRANCH   6  21
ATOM     21  O   UNL     1      31.831 -24.566 -12.760  0.00  0.00    -0.472 OA
ATOM     22  C   UNL     1      30.460 -24.718 -12.396  0.00  0.00    +0.252 C 
ENDBRANCH   6  21
BRANCH   4  23
ATOM     23  O   UNL     1      34.449 -24.496 -13.750  0.00  0.00    -0.407 OA
BRANCH  23  33
ATOM     24  O   UNL     1      35.419 -22.409 -13.486  0.00  0.00    -0.226 OA
ATOM     25  N   UNL     1      36.745 -24.322 -13.428  0.00  0.00    -0.252 N 
ATOM     26  N   UNL     1      39.298 -25.616 -13.625  0.00  0.00    +0.388 N 
ATOM     27  C   UNL     1      36.834 -25.788 -13.295  0.00  0.00    +0.058 C 
ATOM     28  C   UNL     1      38.077 -26.329 -14.024  0.00  0.00    -0.057 C 
ATOM     29  C   UNL     1      37.982 -23.572 -13.209  0.00  0.00    +0.074 C 
ATOM     30  C   UNL     1      39.169 -24.188 -13.944  0.00  0.00    -0.055 C 
ATOM     31  C   UNL     1      36.805 -26.196 -11.819  0.00  0.00    +0.019 C 
ATOM     32  C   UNL     1      40.468 -26.187 -14.292  0.00  0.00    -0.101 C 
ATOM     33  C   UNL     1      35.530 -23.634 -13.551  0.00  0.00    +0.409 C 
ATOM     34  H   UNL     1      39.425 -25.719 -12.618  0.00  0.00    -0.080 HD
ENDBRANCH  23  33
ENDBRANCH   4  23
TORSDOF 4
ENDMDL
MODEL 8
REMARK VINA RESULT:      -8.1      2.203      3.383
REMARK  Name = 78209992
REMARK  4 active torsions:
REMARK  status: ('A' for Active; 'I' for Inactive)
REMARK    1  A    between atoms: N_1  and  C_15
REMARK    2  A    between atoms: C_4  and  O_23
REMARK    3  A    between atoms: C_6  and  O_21
REMARK    4  A    between atoms: O_23  and  C_33
REMARK                            x       y       z     vdW  Elec       q    Type
REMARK                         _______ _______ _______ _____ _____    ______ ____
ROOT
ATOM      1  N   UNL     1      32.391  -8.236 -22.727  0.00  0.00    -0.296 N 
ATOM      2  N   UNL     1      31.904  -4.780 -20.502  0.00  0.00    -0.248 NA
ATOM      3  N   UNL     1      32.295  -7.153 -20.639  0.00  0.00    -0.230 NA
ATOM      4  C   UNL     1      31.693  -4.523 -24.657  0.00  0.00    +0.180 C 
ATOM      5  C   UNL     1      31.923  -5.754 -24.050  0.00  0.00    +0.044 C 
ATOM      6  C   UNL     1      31.535  -3.388 -23.868  0.00  0.00    +0.157 C 
ATOM      7  C   UNL     1      31.994  -5.844 -22.648  0.00  0.00    +0.048 C 
ATOM      8  C   UNL     1      31.837  -4.706 -21.842  0.00  0.00    +0.066 C 
ATOM      9  C   UNL     1      31.609  -3.486 -22.476  0.00  0.00    +0.112 C 
ATOM     10  C   UNL     1      32.222  -7.043 -21.979  0.00  0.00    +0.131 C 
ATOM     11  C   UNL     1      32.129  -6.000 -19.973  0.00  0.00    +0.252 C 
ATOM     12  H   UNL     1      32.789  -8.093 -23.615  0.00  0.00    +0.154 HD
ENDROOT
BRANCH   1  15
ATOM     13 CL   UNL     1      33.647 -13.183 -23.254  0.00  0.00    -0.080 Cl
ATOM     14  F   UNL     1      33.998 -10.279 -23.677  0.00  0.00    -0.202 F 
ATOM     15  C   UNL     1      32.101  -9.580 -22.444  0.00  0.00    +0.078 C 
ATOM     16  C   UNL     1      32.925 -10.592 -22.934  0.00  0.00    +0.164 C 
ATOM     17  C   UNL     1      30.986  -9.901 -21.672  0.00  0.00    +0.017 C 
ATOM     18  C   UNL     1      32.634 -11.927 -22.652  0.00  0.00    +0.086 C 
ATOM     19  C   UNL     1      30.694 -11.236 -21.389  0.00  0.00    +0.002 C 
ATOM     20  C   UNL     1      31.518 -12.249 -21.880  0.00  0.00    +0.014 C 
ENDBRANCH   1  15
BRANCH   6  21
ATOM     21  O   UNL     1      31.308  -2.173 -24.441  0.00  0.00    -0.472 OA
ATOM     22  C   UNL     1      29.947  -1.786 -24.621  0.00  0.00    +0.252 C 
ENDBRANCH   6  21
BRANCH   4  23
ATOM     23  O   UNL     1      31.622  -4.441 -26.051  0.00  0.00    -0.407 OA
BRANCH  23  33
ATOM     24  O   UNL     1      32.693  -6.296 -26.934  0.00  0.00    -0.226 OA
ATOM     25  N   UNL     1      33.680  -4.195 -27.106  0.00  0.00    -0.252 N 
ATOM     26  N   UNL     1      35.972  -2.521 -27.525  0.00  0.00    +0.388 N 
ATOM     27  C   UNL     1      33.540  -2.728 -27.027  0.00  0.00    +0.058 C 
ATOM     28  C   UNL     1      34.880  -2.069 -26.653  0.00  0.00    -0.057 C 
ATOM     29  C   UNL     1      34.852  -4.699 -27.820  0.00  0.00    +0.074 C 
ATOM     30  C   UNL     1      36.134  -3.977 -27.411  0.00  0.00    -0.055 C 
ATOM     31  C   UNL     1      32.966  -2.172 -28.334  0.00  0.00    +0.019 C 
ATOM     32  C   UNL     1      37.220  -1.840 -27.181  0.00  0.00    -0.101 C 
ATOM     33  C   UNL     1      32.670  -5.084 -26.715  0.00  0.00    +0.409 C 
ATOM     34  H   UNL     1      35.740  -2.290 -28.491  0.00  0.00    -0.080 HD
ENDBRANCH  23  33
ENDBRANCH   4  23
TORSDOF 4
ENDMDL
MODEL 9
REMARK VINA RESULT:      -8.1      1.940      2.956
REMARK  Name = 78209992
REMARK  4 active torsions:
REMARK  status: ('A' for Active; 'I' for Inactive)
REMARK    1  A    between atoms: N_1  and  C_15
REMARK    2  A    between atoms: C_4  and  O_23
REMARK    3  A    between atoms: C_6  and  O_21
REMARK    4  A    between atoms: O_23  and  C_33
REMARK                            x       y       z     vdW  Elec       q    Type
REMARK                         _______ _______ _______ _____ _____    ______ ____
ROOT
ATOM      1  N   UNL     1      32.198  -8.779 -22.385  0.00  0.00    -0.296 N 
ATOM      2  N   UNL     1      31.247  -5.596 -19.917  0.00  0.00    -0.248 NA
ATOM      3  N   UNL     1      31.967  -7.874 -20.225  0.00  0.00    -0.230 NA
ATOM      4  C   UNL     1      30.971  -5.073 -24.043  0.00  0.00    +0.180 C 
ATOM      5  C   UNL     1      31.376  -6.299 -23.526  0.00  0.00    +0.044 C 
ATOM      6  C   UNL     1      30.660  -4.031 -23.175  0.00  0.00    +0.157 C 
ATOM      7  C   UNL     1      31.470  -6.479 -22.134  0.00  0.00    +0.048 C 
ATOM      8  C   UNL     1      31.160  -5.436 -21.248  0.00  0.00    +0.066 C 
ATOM      9  C   UNL     1      30.758  -4.218 -21.793  0.00  0.00    +0.112 C 
ATOM     10  C   UNL     1      31.869  -7.679 -21.554  0.00  0.00    +0.131 C 
ATOM     11  C   UNL     1      31.645  -6.807 -19.478  0.00  0.00    +0.252 C 
ATOM     12  H   UNL     1      32.566  -8.518 -23.259  0.00  0.00    +0.154 HD
ENDROOT
BRANCH   1  15
ATOM     13 CL   UNL     1      33.761 -13.482 -23.714  0.00  0.00    -0.080 Cl
ATOM     14  F   UNL     1      33.741 -10.532 -23.872  0.00  0.00    -0.202 F 
ATOM     15  C   UNL     1      32.103 -10.167 -22.201  0.00  0.00    +0.078 C 
ATOM     16  C   UNL     1      32.890 -11.031 -22.962  0.00  0.00    +0.164 C 
ATOM     17  C   UNL     1      31.217 -10.682 -21.255  0.00  0.00    +0.017 C 
ATOM     18  C   UNL     1      32.791 -12.410 -22.778  0.00  0.00    +0.086 C 
ATOM     19  C   UNL     1      31.119 -12.062 -21.070  0.00  0.00    +0.002 C 
ATOM     20  C   UNL     1      31.906 -12.925 -21.831  0.00  0.00    +0.014 C 
ENDBRANCH   1  15
BRANCH   6  21
ATOM     21  O   UNL     1      30.261  -2.822 -23.659  0.00  0.00    -0.472 OA
ATOM     22  C   UNL     1      31.240  -1.786 -23.703  0.00  0.00    +0.252 C 
ENDBRANCH   6  21
BRANCH   4  23
ATOM     23  O   UNL     1      30.879  -4.901 -25.428  0.00  0.00    -0.407 OA
BRANCH  23  33
ATOM     24  O   UNL     1      31.653  -6.870 -26.372  0.00  0.00    -0.226 OA
ATOM     25  N   UNL     1      32.871  -4.903 -26.626  0.00  0.00    -0.252 N 
ATOM     26  N   UNL     1      35.314  -3.518 -27.217  0.00  0.00    +0.388 N 
ATOM     27  C   UNL     1      32.915  -3.430 -26.547  0.00  0.00    +0.058 C 
ATOM     28  C   UNL     1      34.348  -2.939 -26.273  0.00  0.00    -0.057 C 
ATOM     29  C   UNL     1      33.921  -5.544 -27.418  0.00  0.00    +0.074 C 
ATOM     30  C   UNL     1      35.306  -4.983 -27.105  0.00  0.00    -0.055 C 
ATOM     31  C   UNL     1      32.322  -2.806 -27.814  0.00  0.00    +0.019 C 
ATOM     32  C   UNL     1      36.656  -2.993 -26.965  0.00  0.00    -0.101 C 
ATOM     33  C   UNL     1      31.792  -5.665 -26.160  0.00  0.00    +0.409 C 
ATOM     34  H   UNL     1      35.043  -3.258 -28.165  0.00  0.00    -0.080 HD
ENDBRANCH  23  33
ENDBRANCH   4  23
TORSDOF 4
ENDMDL
