MODEL 1
REMARK VINA RESULT:     -12.2      0.000      0.000
REMARK  Name = 46209133
REMARK  4 active torsions:
REMARK  status: ('A' for Active; 'I' for Inactive)
REMARK    1  A    between atoms: C_2  and  N_7
REMARK    2  A    between atoms: C_4  and  N_28
REMARK    3  A    between atoms: C_6  and  C_22
REMARK    4  A    between atoms: N_8  and  S_16
REMARK                            x       y       z     vdW  Elec       q    Type
REMARK                         _______ _______ _______ _____ _____    ______ ____
ROOT
ATOM      1  O   UNL     1      35.779 -19.642 -20.040  0.00  0.00    -0.356 OA
ATOM      2  C   UNL     1      34.924 -21.002 -18.223  0.00  0.00    -0.029 C 
ATOM      3  C   UNL     1      33.594 -21.172 -18.963  0.00  0.00    -0.038 C 
ATOM      4  C   UNL     1      33.360 -19.995 -19.921  0.00  0.00    -0.036 C 
ATOM      5  C   UNL     1      36.054 -20.781 -19.224  0.00  0.00    +0.122 C 
ATOM      6  C   UNL     1      34.591 -19.797 -20.833  0.00  0.00    +0.120 C 
ENDROOT
BRANCH   2   7
ATOM      7  N   UNL     1      35.199 -22.167 -17.398  0.00  0.00    +0.396 N 
ATOM      8  N   UNL     1      35.704 -23.854 -13.610  0.00  0.00    -0.092 N 
ATOM      9  N   UNL     1      36.690 -23.211 -14.292  0.00  0.00    -0.165 NA
ATOM     10  C   UNL     1      34.020 -22.575 -16.562  0.00  0.00    -0.047 C 
ATOM     11  C   UNL     1      36.411 -21.990 -16.533  0.00  0.00    -0.028 C 
ATOM     12  C   UNL     1      34.683 -23.101 -15.367  0.00  0.00    -0.012 C 
ATOM     13  C   UNL     1      36.029 -22.770 -15.353  0.00  0.00    +0.053 C 
ATOM     14  C   UNL     1      34.471 -23.812 -14.224  0.00  0.00    +0.104 C 
ATOM     15  H   UNL     1      35.391 -22.922 -18.055  0.00  0.00    -0.078 HD
BRANCH   8  16
ATOM     16  S   UNL     1      35.936 -24.646 -12.150  0.00  0.00    +0.077 S 
ATOM     17  O   UNL     1      34.746 -24.530 -11.277  0.00  0.00    -0.153 OA
ATOM     18  O   UNL     1      36.464 -26.008 -12.379  0.00  0.00    -0.153 OA
ATOM     19  C   UNL     1      37.234 -23.753 -11.285  0.00  0.00    +0.202 C 
ENDBRANCH   8  16
ENDBRANCH   2   7
BRANCH   6  22
ATOM     20  F   UNL     1      34.269 -19.830 -23.640  0.00  0.00    -0.204 F 
ATOM     21  F   UNL     1      34.501 -14.943 -21.195  0.00  0.00    -0.204 F 
ATOM     22  C   UNL     1      34.485 -18.553 -21.651  0.00  0.00    +0.032 C 
ATOM     23  C   UNL     1      34.327 -18.635 -23.035  0.00  0.00    +0.138 C 
ATOM     24  C   UNL     1      34.544 -17.306 -21.029  0.00  0.00    +0.030 C 
ATOM     25  C   UNL     1      34.445 -16.141 -21.791  0.00  0.00    +0.140 C 
ATOM     26  C   UNL     1      34.227 -17.471 -23.796  0.00  0.00    +0.032 C 
ATOM     27  C   UNL     1      34.286 -16.225 -23.175  0.00  0.00    +0.032 C 
ENDBRANCH   6  22
BRANCH   4  28
ATOM     28  N   UNL     1      32.137 -20.241 -20.686  0.00  0.00    +0.384 N 
ATOM     29  H   UNL     1      31.967 -19.456 -21.316  0.00  0.00    -0.089 HD
ATOM     30  H   UNL     1      31.349 -20.341 -20.046  0.00  0.00    -0.089 HD
ATOM     31  H   UNL     1      32.244 -21.097 -21.230  0.00  0.00    -0.089 HD
ENDBRANCH   4  28
TORSDOF 4
ENDMDL
MODEL 2
REMARK VINA RESULT:     -11.8      1.896      2.522
REMARK  Name = 46209133
REMARK  4 active torsions:
REMARK  status: ('A' for Active; 'I' for Inactive)
REMARK    1  A    between atoms: C_2  and  N_7
REMARK    2  A    between atoms: C_4  and  N_28
REMARK    3  A    between atoms: C_6  and  C_22
REMARK    4  A    between atoms: N_8  and  S_16
REMARK                            x       y       z     vdW  Elec       q    Type
REMARK                         _______ _______ _______ _____ _____    ______ ____
ROOT
ATOM      1  O   UNL     1      33.590 -18.766 -21.052  0.00  0.00    -0.356 OA
ATOM      2  C   UNL     1      34.877 -20.700 -20.354  0.00  0.00    -0.029 C 
ATOM      3  C   UNL     1      36.176 -19.907 -20.518  0.00  0.00    -0.038 C 
ATOM      4  C   UNL     1      35.988 -18.776 -21.540  0.00  0.00    -0.036 C 
ATOM      5  C   UNL     1      33.725 -19.754 -20.029  0.00  0.00    +0.122 C 
ATOM      6  C   UNL     1      34.750 -17.927 -21.174  0.00  0.00    +0.120 C 
ENDROOT
BRANCH   2   7
ATOM      7  N   UNL     1      35.021 -21.701 -19.309  0.00  0.00    +0.396 N 
ATOM      8  N   UNL     1      34.926 -22.708 -15.257  0.00  0.00    -0.092 N 
ATOM      9  N   UNL     1      36.005 -22.161 -15.877  0.00  0.00    -0.165 NA
ATOM     10  C   UNL     1      33.726 -21.996 -18.609  0.00  0.00    -0.047 C 
ATOM     11  C   UNL     1      36.081 -21.345 -18.310  0.00  0.00    -0.028 C 
ATOM     12  C   UNL     1      34.193 -22.293 -17.253  0.00  0.00    -0.012 C 
ATOM     13  C   UNL     1      35.519 -21.925 -17.087  0.00  0.00    +0.053 C 
ATOM     14  C   UNL     1      33.805 -22.807 -16.052  0.00  0.00    +0.104 C 
ATOM     15  H   UNL     1      35.317 -22.550 -19.790  0.00  0.00    -0.078 HD
BRANCH   8  16
ATOM     16  S   UNL     1      34.926 -23.236 -13.664  0.00  0.00    +0.077 S 
ATOM     17  O   UNL     1      35.855 -22.439 -12.831  0.00  0.00    -0.153 OA
ATOM     18  O   UNL     1      33.541 -23.378 -13.167  0.00  0.00    -0.153 OA
ATOM     19  C   UNL     1      35.619 -24.894 -13.676  0.00  0.00    +0.202 C 
ENDBRANCH   8  16
ENDBRANCH   2   7
BRANCH   6  22
ATOM     20  F   UNL     1      34.056 -18.678 -23.808  0.00  0.00    -0.204 F 
ATOM     21  F   UNL     1      34.165 -13.330 -22.666  0.00  0.00    -0.204 F 
ATOM     22  C   UNL     1      34.420 -16.934 -22.239  0.00  0.00    +0.032 C 
ATOM     23  C   UNL     1      34.084 -17.369 -23.522  0.00  0.00    +0.138 C 
ATOM     24  C   UNL     1      34.448 -15.570 -21.950  0.00  0.00    +0.030 C 
ATOM     25  C   UNL     1      34.139 -14.640 -22.943  0.00  0.00    +0.140 C 
ATOM     26  C   UNL     1      33.776 -16.439 -24.514  0.00  0.00    +0.032 C 
ATOM     27  C   UNL     1      33.803 -15.075 -24.225  0.00  0.00    +0.032 C 
ENDBRANCH   6  22
BRANCH   4  28
ATOM     28  N   UNL     1      37.212 -17.975 -21.594  0.00  0.00    +0.384 N 
ATOM     29  H   UNL     1      37.289 -17.415 -20.745  0.00  0.00    -0.089 HD
ATOM     30  H   UNL     1      37.180 -17.359 -22.407  0.00  0.00    -0.089 HD
ATOM     31  H   UNL     1      38.019 -18.594 -21.669  0.00  0.00    -0.089 HD
ENDBRANCH   4  28
TORSDOF 4
ENDMDL
MODEL 3
REMARK VINA RESULT:     -11.6      2.197      2.742
REMARK  Name = 46209133
REMARK  4 active torsions:
REMARK  status: ('A' for Active; 'I' for Inactive)
REMARK    1  A    between atoms: C_2  and  N_7
REMARK    2  A    between atoms: C_4  and  N_28
REMARK    3  A    between atoms: C_6  and  C_22
REMARK    4  A    between atoms: N_8  and  S_16
REMARK                            x       y       z     vdW  Elec       q    Type
REMARK                         _______ _______ _______ _____ _____    ______ ____
ROOT
ATOM      1  O   UNL     1      33.274 -19.419 -20.970  0.00  0.00    -0.356 OA
ATOM      2  C   UNL     1      34.388 -21.247 -19.831  0.00  0.00    -0.029 C 
ATOM      3  C   UNL     1      35.649 -20.393 -19.671  0.00  0.00    -0.038 C 
ATOM      4  C   UNL     1      35.711 -19.320 -20.769  0.00  0.00    -0.036 C 
ATOM      5  C   UNL     1      33.154 -20.351 -19.895  0.00  0.00    +0.122 C 
ATOM      6  C   UNL     1      34.387 -18.525 -20.812  0.00  0.00    +0.120 C 
ENDROOT
BRANCH   2   7
ATOM      7  N   UNL     1      34.271 -22.192 -18.731  0.00  0.00    +0.396 N 
ATOM      8  N   UNL     1      33.069 -23.028 -14.820  0.00  0.00    -0.092 N 
ATOM      9  N   UNL     1      34.255 -22.446 -15.141  0.00  0.00    -0.165 NA
ATOM     10  C   UNL     1      32.845 -22.532 -18.410  0.00  0.00    -0.047 C 
ATOM     11  C   UNL     1      34.986 -21.732 -17.496  0.00  0.00    -0.028 C 
ATOM     12  C   UNL     1      32.918 -22.742 -16.963  0.00  0.00    -0.012 C 
ATOM     13  C   UNL     1      34.125 -22.291 -16.451  0.00  0.00    +0.053 C 
ATOM     14  C   UNL     1      32.227 -23.226 -15.893  0.00  0.00    +0.104 C 
ATOM     15  H   UNL     1      34.729 -23.042 -19.059  0.00  0.00    -0.078 HD
BRANCH   8  16
ATOM     16  S   UNL     1      32.638 -23.485 -13.265  0.00  0.00    +0.077 S 
ATOM     17  O   UNL     1      33.790 -24.051 -12.529  0.00  0.00    -0.153 OA
ATOM     18  O   UNL     1      31.888 -22.400 -12.596  0.00  0.00    -0.153 OA
ATOM     19  C   UNL     1      31.482 -24.850 -13.436  0.00  0.00    +0.202 C 
ENDBRANCH   8  16
ENDBRANCH   2   7
BRANCH   6  22
ATOM     20  F   UNL     1      34.084 -19.431 -23.471  0.00  0.00    -0.204 F 
ATOM     21  F   UNL     1      34.473 -14.032 -22.685  0.00  0.00    -0.204 F 
ATOM     22  C   UNL     1      34.331 -17.599 -21.981  0.00  0.00    +0.032 C 
ATOM     23  C   UNL     1      34.180 -18.108 -23.271  0.00  0.00    +0.138 C 
ATOM     24  C   UNL     1      34.431 -16.221 -21.783  0.00  0.00    +0.030 C 
ATOM     25  C   UNL     1      34.378 -15.354 -22.875  0.00  0.00    +0.140 C 
ATOM     26  C   UNL     1      34.127 -17.241 -24.362  0.00  0.00    +0.032 C 
ATOM     27  C   UNL     1      34.226 -15.865 -24.164  0.00  0.00    +0.032 C 
ENDBRANCH   6  22
BRANCH   4  28
ATOM     28  N   UNL     1      36.868 -18.457 -20.525  0.00  0.00    +0.384 N 
ATOM     29  H   UNL     1      36.602 -17.484 -20.672  0.00  0.00    -0.089 HD
ATOM     30  H   UNL     1      37.620 -18.707 -21.168  0.00  0.00    -0.089 HD
ATOM     31  H   UNL     1      37.187 -18.582 -19.564  0.00  0.00    -0.089 HD
ENDBRANCH   4  28
TORSDOF 4
ENDMDL
MODEL 4
REMARK VINA RESULT:     -11.5      1.065      1.810
REMARK  Name = 46209133
REMARK  4 active torsions:
REMARK  status: ('A' for Active; 'I' for Inactive)
REMARK    1  A    between atoms: C_2  and  N_7
REMARK    2  A    between atoms: C_4  and  N_28
REMARK    3  A    between atoms: C_6  and  C_22
REMARK    4  A    between atoms: N_8  and  S_16
REMARK                            x       y       z     vdW  Elec       q    Type
REMARK                         _______ _______ _______ _____ _____    ______ ____
ROOT
ATOM      1  O   UNL     1      35.746 -19.897 -20.147  0.00  0.00    -0.356 OA
ATOM      2  C   UNL     1      34.972 -21.040 -18.153  0.00  0.00    -0.029 C 
ATOM      3  C   UNL     1      33.587 -21.219 -18.780  0.00  0.00    -0.038 C 
ATOM      4  C   UNL     1      33.330 -20.127 -19.830  0.00  0.00    -0.036 C 
ATOM      5  C   UNL     1      36.035 -20.966 -19.246  0.00  0.00    +0.122 C 
ATOM      6  C   UNL     1      34.499 -20.072 -20.839  0.00  0.00    +0.120 C 
ENDROOT
BRANCH   2   7
ATOM      7  N   UNL     1      35.261 -22.134 -17.239  0.00  0.00    +0.396 N 
ATOM      8  N   UNL     1      35.758 -23.520 -13.331  0.00  0.00    -0.092 N 
ATOM      9  N   UNL     1      36.738 -22.911 -14.050  0.00  0.00    -0.165 NA
ATOM     10  C   UNL     1      34.082 -22.502 -16.387  0.00  0.00    -0.047 C 
ATOM     11  C   UNL     1      36.460 -21.868 -16.379  0.00  0.00    -0.028 C 
ATOM     12  C   UNL     1      34.741 -22.923 -15.148  0.00  0.00    -0.012 C 
ATOM     13  C   UNL     1      36.080 -22.564 -15.147  0.00  0.00    +0.053 C 
ATOM     14  C   UNL     1      34.530 -23.550 -13.958  0.00  0.00    +0.104 C 
ATOM     15  H   UNL     1      35.475 -22.933 -17.836  0.00  0.00    -0.078 HD
BRANCH   8  16
ATOM     16  S   UNL     1      35.989 -24.195 -11.812  0.00  0.00    +0.077 S 
ATOM     17  O   UNL     1      36.917 -23.382 -10.996  0.00  0.00    -0.153 OA
ATOM     18  O   UNL     1      34.690 -24.541 -11.198  0.00  0.00    -0.153 OA
ATOM     19  C   UNL     1      36.843 -25.754 -12.072  0.00  0.00    +0.202 C 
ENDBRANCH   8  16
ENDBRANCH   2   7
BRANCH   6  22
ATOM     20  F   UNL     1      35.534 -17.517 -20.222  0.00  0.00    -0.204 F 
ATOM     21  F   UNL     1      33.014 -18.110 -25.040  0.00  0.00    -0.204 F 
ATOM     22  C   UNL     1      34.382 -18.906 -21.764  0.00  0.00    +0.032 C 
ATOM     23  C   UNL     1      34.916 -17.669 -21.401  0.00  0.00    +0.138 C 
ATOM     24  C   UNL     1      33.740 -19.055 -22.993  0.00  0.00    +0.030 C 
ATOM     25  C   UNL     1      33.630 -17.967 -23.859  0.00  0.00    +0.140 C 
ATOM     26  C   UNL     1      34.806 -16.581 -22.268  0.00  0.00    +0.032 C 
ATOM     27  C   UNL     1      34.164 -16.730 -23.496  0.00  0.00    +0.032 C 
ENDBRANCH   6  22
BRANCH   4  28
ATOM     28  N   UNL     1      32.046 -20.388 -20.483  0.00  0.00    +0.384 N 
ATOM     29  H   UNL     1      32.165 -20.341 -21.495  0.00  0.00    -0.089 HD
ATOM     30  H   UNL     1      31.365 -19.689 -20.187  0.00  0.00    -0.089 HD
ATOM     31  H   UNL     1      31.716 -21.316 -20.221  0.00  0.00    -0.089 HD
ENDBRANCH   4  28
TORSDOF 4
ENDMDL
MODEL 5
REMARK VINA RESULT:     -10.7      7.705     11.549
REMARK  Name = 46209133
REMARK  4 active torsions:
REMARK  status: ('A' for Active; 'I' for Inactive)
REMARK    1  A    between atoms: C_2  and  N_7
REMARK    2  A    between atoms: C_4  and  N_28
REMARK    3  A    between atoms: C_6  and  C_22
REMARK    4  A    between atoms: N_8  and  S_16
REMARK                            x       y       z     vdW  Elec       q    Type
REMARK                         _______ _______ _______ _____ _____    ______ ____
ROOT
ATOM      1  O   UNL     1      31.345  -9.448 -22.475  0.00  0.00    -0.356 OA
ATOM      2  C   UNL     1      32.184 -11.608 -23.191  0.00  0.00    -0.029 C 
ATOM      3  C   UNL     1      33.584 -11.016 -23.370  0.00  0.00    -0.038 C 
ATOM      4  C   UNL     1      33.497  -9.507 -23.639  0.00  0.00    -0.036 C 
ATOM      5  C   UNL     1      31.420 -10.830 -22.123  0.00  0.00    +0.122 C 
ATOM      6  C   UNL     1      32.636  -8.821 -22.555  0.00  0.00    +0.120 C 
ENDROOT
BRANCH   2   7
ATOM      7  N   UNL     1      32.269 -13.014 -22.829  0.00  0.00    +0.396 N 
ATOM      8  N   UNL     1      34.597 -16.384 -22.014  0.00  0.00    -0.092 N 
ATOM      9  N   UNL     1      34.249 -15.988 -23.267  0.00  0.00    -0.165 NA
ATOM     10  C   UNL     1      32.886 -13.227 -21.477  0.00  0.00    -0.047 C 
ATOM     11  C   UNL     1      32.983 -13.834 -23.860  0.00  0.00    -0.028 C 
ATOM     12  C   UNL     1      33.577 -14.503 -21.674  0.00  0.00    -0.012 C 
ATOM     13  C   UNL     1      33.630 -14.842 -23.017  0.00  0.00    +0.053 C 
ATOM     14  C   UNL     1      34.211 -15.514 -21.017  0.00  0.00    +0.104 C 
ATOM     15  H   UNL     1      31.303 -13.338 -22.785  0.00  0.00    -0.078 HD
BRANCH   8  16
ATOM     16  S   UNL     1      35.419 -17.806 -21.674  0.00  0.00    +0.077 S 
ATOM     17  O   UNL     1      36.257 -18.233 -22.817  0.00  0.00    -0.153 OA
ATOM     18  O   UNL     1      36.085 -17.716 -20.357  0.00  0.00    -0.153 OA
ATOM     19  C   UNL     1      34.172 -19.090 -21.510  0.00  0.00    +0.202 C 
ENDBRANCH   8  16
ENDBRANCH   2   7
BRANCH   6  22
ATOM     20  F   UNL     1      33.099  -6.725 -20.718  0.00  0.00    -0.204 F 
ATOM     21  F   UNL     1      31.143  -5.365 -25.642  0.00  0.00    -0.204 F 
ATOM     22  C   UNL     1      32.370  -7.388 -22.878  0.00  0.00    +0.032 C 
ATOM     23  C   UNL     1      32.620  -6.398 -21.927  0.00  0.00    +0.138 C 
ATOM     24  C   UNL     1      31.871  -7.039 -24.133  0.00  0.00    +0.030 C 
ATOM     25  C   UNL     1      31.622  -5.700 -24.437  0.00  0.00    +0.140 C 
ATOM     26  C   UNL     1      32.371  -5.060 -22.232  0.00  0.00    +0.032 C 
ATOM     27  C   UNL     1      31.873  -4.711 -23.486  0.00  0.00    +0.032 C 
ENDBRANCH   6  22
BRANCH   4  28
ATOM     28  N   UNL     1      34.852  -8.956 -23.700  0.00  0.00    +0.384 N 
ATOM     29  H   UNL     1      35.329  -9.317 -24.526  0.00  0.00    -0.089 HD
ATOM     30  H   UNL     1      35.368  -9.227 -22.863  0.00  0.00    -0.089 HD
ATOM     31  H   UNL     1      34.802  -7.939 -23.754  0.00  0.00    -0.089 HD
ENDBRANCH   4  28
TORSDOF 4
ENDMDL
MODEL 6
REMARK VINA RESULT:     -10.7      7.490     11.060
REMARK  Name = 46209133
REMARK  4 active torsions:
REMARK  status: ('A' for Active; 'I' for Inactive)
REMARK    1  A    between atoms: C_2  and  N_7
REMARK    2  A    between atoms: C_4  and  N_28
REMARK    3  A    between atoms: C_6  and  C_22
REMARK    4  A    between atoms: N_8  and  S_16
REMARK                            x       y       z     vdW  Elec       q    Type
REMARK                         _______ _______ _______ _____ _____    ______ ____
ROOT
ATOM      1  O   UNL     1      32.662  -9.804 -23.645  0.00  0.00    -0.356 OA
ATOM      2  C   UNL     1      32.817 -11.714 -22.159  0.00  0.00    -0.029 C 
ATOM      3  C   UNL     1      31.688 -11.147 -21.295  0.00  0.00    -0.038 C 
ATOM      4  C   UNL     1      31.621  -9.619 -21.438  0.00  0.00    -0.036 C 
ATOM      5  C   UNL     1      32.667 -11.231 -23.599  0.00  0.00    +0.122 C 
ATOM      6  C   UNL     1      31.557  -9.226 -22.931  0.00  0.00    +0.120 C 
ENDROOT
BRANCH   2   7
ATOM      7  N   UNL     1      32.814 -13.168 -22.109  0.00  0.00    +0.396 N 
ATOM      8  N   UNL     1      34.898 -16.755 -21.635  0.00  0.00    -0.092 N 
ATOM      9  N   UNL     1      34.810 -16.080 -22.812  0.00  0.00    -0.165 NA
ATOM     10  C   UNL     1      33.149 -13.700 -20.747  0.00  0.00    -0.047 C 
ATOM     11  C   UNL     1      33.710 -13.783 -23.142  0.00  0.00    -0.028 C 
ATOM     12  C   UNL     1      33.851 -14.940 -21.086  0.00  0.00    -0.012 C 
ATOM     13  C   UNL     1      34.166 -14.984 -22.436  0.00  0.00    +0.053 C 
ATOM     14  C   UNL     1      34.331 -16.102 -20.562  0.00  0.00    +0.104 C 
ATOM     15  H   UNL     1      31.855 -13.441 -22.324  0.00  0.00    -0.078 HD
BRANCH   8  16
ATOM     16  S   UNL     1      35.622 -18.260 -21.469  0.00  0.00    +0.077 S 
ATOM     17  O   UNL     1      36.220 -18.715 -22.744  0.00  0.00    -0.153 OA
ATOM     18  O   UNL     1      36.495 -18.285 -20.277  0.00  0.00    -0.153 OA
ATOM     19  C   UNL     1      34.298 -19.428 -21.136  0.00  0.00    +0.202 C 
ENDBRANCH   8  16
ENDBRANCH   2   7
BRANCH   6  22
ATOM     20  F   UNL     1      29.331  -7.559 -23.429  0.00  0.00    -0.204 F 
ATOM     21  F   UNL     1      34.249  -5.177 -23.183  0.00  0.00    -0.204 F 
ATOM     22  C   UNL     1      31.678  -7.751 -23.125  0.00  0.00    +0.032 C 
ATOM     23  C   UNL     1      30.539  -6.981 -23.367  0.00  0.00    +0.138 C 
ATOM     24  C   UNL     1      32.931  -7.142 -23.063  0.00  0.00    +0.030 C 
ATOM     25  C   UNL     1      33.046  -5.763 -23.243  0.00  0.00    +0.140 C 
ATOM     26  C   UNL     1      30.655  -5.603 -23.548  0.00  0.00    +0.032 C 
ATOM     27  C   UNL     1      31.907  -4.994 -23.485  0.00  0.00    +0.032 C 
ENDBRANCH   6  22
BRANCH   4  28
ATOM     28  N   UNL     1      30.468  -9.121 -20.685  0.00  0.00    +0.384 N 
ATOM     29  H   UNL     1      30.691  -9.112 -19.690  0.00  0.00    -0.089 HD
ATOM     30  H   UNL     1      29.666  -9.729 -20.849  0.00  0.00    -0.089 HD
ATOM     31  H   UNL     1      30.246  -8.175 -20.993  0.00  0.00    -0.089 HD
ENDBRANCH   4  28
TORSDOF 4
ENDMDL
MODEL 7
REMARK VINA RESULT:     -10.5      2.328      3.681
REMARK  Name = 46209133
REMARK  4 active torsions:
REMARK  status: ('A' for Active; 'I' for Inactive)
REMARK    1  A    between atoms: C_2  and  N_7
REMARK    2  A    between atoms: C_4  and  N_28
REMARK    3  A    between atoms: C_6  and  C_22
REMARK    4  A    between atoms: N_8  and  S_16
REMARK                            x       y       z     vdW  Elec       q    Type
REMARK                         _______ _______ _______ _____ _____    ______ ____
ROOT
ATOM      1  O   UNL     1      34.764 -16.914 -21.172  0.00  0.00    -0.356 OA
ATOM      2  C   UNL     1      34.302 -19.249 -20.708  0.00  0.00    -0.029 C 
ATOM      3  C   UNL     1      34.115 -19.520 -22.202  0.00  0.00    -0.038 C 
ATOM      4  C   UNL     1      33.690 -18.235 -22.930  0.00  0.00    -0.036 C 
ATOM      5  C   UNL     1      35.257 -18.076 -20.505  0.00  0.00    +0.122 C 
ATOM      6  C   UNL     1      34.667 -17.086 -22.595  0.00  0.00    +0.120 C 
ENDROOT
BRANCH   2   7
ATOM      7  N   UNL     1      34.808 -20.436 -20.036  0.00  0.00    +0.396 N 
ATOM      8  N   UNL     1      35.842 -22.401 -16.498  0.00  0.00    -0.092 N 
ATOM      9  N   UNL     1      36.667 -21.547 -17.160  0.00  0.00    -0.165 NA
ATOM     10  C   UNL     1      33.770 -21.105 -19.183  0.00  0.00    -0.047 C 
ATOM     11  C   UNL     1      36.043 -20.162 -19.230  0.00  0.00    -0.028 C 
ATOM     12  C   UNL     1      34.591 -21.641 -18.095  0.00  0.00    -0.012 C 
ATOM     13  C   UNL     1      35.870 -21.108 -18.124  0.00  0.00    +0.053 C 
ATOM     14  C   UNL     1      34.573 -22.489 -17.030  0.00  0.00    +0.104 C 
ATOM     15  H   UNL     1      35.060 -21.080 -20.784  0.00  0.00    -0.078 HD
BRANCH   8  16
ATOM     16  S   UNL     1      36.298 -23.292 -15.152  0.00  0.00    +0.077 S 
ATOM     17  O   UNL     1      35.992 -24.730 -15.327  0.00  0.00    -0.153 OA
ATOM     18  O   UNL     1      37.678 -22.949 -14.748  0.00  0.00    -0.153 OA
ATOM     19  C   UNL     1      35.240 -22.755 -13.802  0.00  0.00    +0.202 C 
ENDBRANCH   8  16
ENDBRANCH   2   7
BRANCH   6  22
ATOM     20  F   UNL     1      34.383 -14.785 -20.981  0.00  0.00    -0.204 F 
ATOM     21  F   UNL     1      33.106 -14.311 -26.278  0.00  0.00    -0.204 F 
ATOM     22  C   UNL     1      34.190 -15.776 -23.129  0.00  0.00    +0.032 C 
ATOM     23  C   UNL     1      34.072 -14.675 -22.280  0.00  0.00    +0.138 C 
ATOM     24  C   UNL     1      33.864 -15.653 -24.480  0.00  0.00    +0.030 C 
ATOM     25  C   UNL     1      33.419 -14.430 -24.982  0.00  0.00    +0.140 C 
ATOM     26  C   UNL     1      33.627 -13.452 -22.782  0.00  0.00    +0.032 C 
ATOM     27  C   UNL     1      33.301 -13.329 -24.132  0.00  0.00    +0.032 C 
ENDBRANCH   6  22
BRANCH   4  28
ATOM     28  N   UNL     1      33.622 -18.503 -24.367  0.00  0.00    +0.384 N 
ATOM     29  H   UNL     1      33.647 -19.511 -24.527  0.00  0.00    -0.089 HD
ATOM     30  H   UNL     1      34.417 -18.065 -24.833  0.00  0.00    -0.089 HD
ATOM     31  H   UNL     1      32.755 -18.121 -24.743  0.00  0.00    -0.089 HD
ENDBRANCH   4  28
TORSDOF 4
ENDMDL
MODEL 8
REMARK VINA RESULT:     -10.5     10.521     15.272
REMARK  Name = 46209133
REMARK  4 active torsions:
REMARK  status: ('A' for Active; 'I' for Inactive)
REMARK    1  A    between atoms: C_2  and  N_7
REMARK    2  A    between atoms: C_4  and  N_28
REMARK    3  A    between atoms: C_6  and  C_22
REMARK    4  A    between atoms: N_8  and  S_16
REMARK                            x       y       z     vdW  Elec       q    Type
REMARK                         _______ _______ _______ _____ _____    ______ ____
ROOT
ATOM      1  O   UNL     1      33.534 -11.543 -23.592  0.00  0.00    -0.356 OA
ATOM      2  C   UNL     1      31.918  -9.900 -22.836  0.00  0.00    -0.029 C 
ATOM      3  C   UNL     1      31.536 -10.802 -21.659  0.00  0.00    -0.038 C 
ATOM      4  C   UNL     1      31.828 -12.272 -21.995  0.00  0.00    -0.036 C 
ATOM      5  C   UNL     1      33.362 -10.167 -23.251  0.00  0.00    +0.122 C 
ATOM      6  C   UNL     1      33.285 -12.427 -22.487  0.00  0.00    +0.120 C 
ENDROOT
BRANCH   2   7
ATOM      7  N   UNL     1      31.744  -8.500 -22.480  0.00  0.00    +0.396 N 
ATOM      8  N   UNL     1      31.369  -4.510 -23.657  0.00  0.00    -0.092 N 
ATOM      9  N   UNL     1      32.560  -5.146 -23.499  0.00  0.00    -0.165 NA
ATOM     10  C   UNL     1      30.430  -7.945 -22.945  0.00  0.00    -0.047 C 
ATOM     11  C   UNL     1      32.871  -7.637 -22.963  0.00  0.00    -0.028 C 
ATOM     12  C   UNL     1      30.789  -6.554 -23.231  0.00  0.00    -0.012 C 
ATOM     13  C   UNL     1      32.164  -6.384 -23.240  0.00  0.00    +0.053 C 
ATOM     14  C   UNL     1      30.268  -5.325 -23.504  0.00  0.00    +0.104 C 
ATOM     15  H   UNL     1      31.749  -8.480 -21.461  0.00  0.00    -0.078 HD
BRANCH   8  16
ATOM     16  S   UNL     1      31.214  -2.875 -24.000  0.00  0.00    +0.077 S 
ATOM     17  O   UNL     1      29.921  -2.581 -24.656  0.00  0.00    -0.153 OA
ATOM     18  O   UNL     1      31.560  -2.063 -22.814  0.00  0.00    -0.153 OA
ATOM     19  C   UNL     1      32.460  -2.495 -25.239  0.00  0.00    +0.202 C 
ENDBRANCH   8  16
ENDBRANCH   2   7
BRANCH   6  22
ATOM     20  F   UNL     1      32.462 -13.299 -25.045  0.00  0.00    -0.204 F 
ATOM     21  F   UNL     1      35.163 -16.882 -21.917  0.00  0.00    -0.204 F 
ATOM     22  C   UNL     1      33.557 -13.802 -22.999  0.00  0.00    +0.032 C 
ATOM     23  C   UNL     1      33.125 -14.173 -24.273  0.00  0.00    +0.138 C 
ATOM     24  C   UNL     1      34.246 -14.717 -22.203  0.00  0.00    +0.030 C 
ATOM     25  C   UNL     1      34.502 -16.003 -22.681  0.00  0.00    +0.140 C 
ATOM     26  C   UNL     1      33.381 -15.458 -24.750  0.00  0.00    +0.032 C 
ATOM     27  C   UNL     1      34.069 -16.372 -23.955  0.00  0.00    +0.032 C 
ENDBRANCH   6  22
BRANCH   4  28
ATOM     28  N   UNL     1      31.552 -13.093 -20.816  0.00  0.00    +0.384 N 
ATOM     29  H   UNL     1      30.823 -13.772 -21.038  0.00  0.00    -0.089 HD
ATOM     30  H   UNL     1      31.239 -12.495 -20.051  0.00  0.00    -0.089 HD
ATOM     31  H   UNL     1      32.401 -13.584 -20.538  0.00  0.00    -0.089 HD
ENDBRANCH   4  28
TORSDOF 4
ENDMDL
MODEL 9
REMARK VINA RESULT:     -10.1     10.275     15.057
REMARK  Name = 46209133
REMARK  4 active torsions:
REMARK  status: ('A' for Active; 'I' for Inactive)
REMARK    1  A    between atoms: C_2  and  N_7
REMARK    2  A    between atoms: C_4  and  N_28
REMARK    3  A    between atoms: C_6  and  C_22
REMARK    4  A    between atoms: N_8  and  S_16
REMARK                            x       y       z     vdW  Elec       q    Type
REMARK                         _______ _______ _______ _____ _____    ______ ____
ROOT
ATOM      1  O   UNL     1      33.487 -11.844 -23.323  0.00  0.00    -0.356 OA
ATOM      2  C   UNL     1      31.812 -10.231 -22.635  0.00  0.00    -0.029 C 
ATOM      3  C   UNL     1      31.521 -11.053 -21.377  0.00  0.00    -0.038 C 
ATOM      4  C   UNL     1      31.880 -12.528 -21.608  0.00  0.00    -0.036 C 
ATOM      5  C   UNL     1      33.253 -10.456 -23.085  0.00  0.00    +0.122 C 
ATOM      6  C   UNL     1      33.325 -12.648 -22.142  0.00  0.00    +0.120 C 
ENDROOT
BRANCH   2   7
ATOM      7  N   UNL     1      31.575  -8.817 -22.384  0.00  0.00    +0.396 N 
ATOM      8  N   UNL     1      31.447  -4.887 -23.789  0.00  0.00    -0.092 N 
ATOM      9  N   UNL     1      32.583  -5.506 -23.373  0.00  0.00    -0.165 NA
ATOM     10  C   UNL     1      30.378  -8.292 -23.121  0.00  0.00    -0.047 C 
ATOM     11  C   UNL     1      32.777  -7.969 -22.674  0.00  0.00    -0.028 C 
ATOM     12  C   UNL     1      30.790  -6.913 -23.394  0.00  0.00    -0.012 C 
ATOM     13  C   UNL     1      32.141  -6.735 -23.141  0.00  0.00    +0.053 C 
ATOM     14  C   UNL     1      30.335  -5.701 -23.818  0.00  0.00    +0.104 C 
ATOM     15  H   UNL     1      31.380  -8.752 -21.385  0.00  0.00    -0.078 HD
BRANCH   8  16
ATOM     16  S   UNL     1      31.367  -3.270 -24.230  0.00  0.00    +0.077 S 
ATOM     17  O   UNL     1      32.603  -2.836 -24.919  0.00  0.00    -0.153 OA
ATOM     18  O   UNL     1      30.088  -2.983 -24.912  0.00  0.00    -0.153 OA
ATOM     19  C   UNL     1      31.334  -2.326 -22.701  0.00  0.00    +0.202 C 
ENDBRANCH   8  16
ENDBRANCH   2   7
BRANCH   6  22
ATOM     20  F   UNL     1      34.443 -14.547 -20.375  0.00  0.00    -0.204 F 
ATOM     21  F   UNL     1      33.477 -16.159 -25.511  0.00  0.00    -0.204 F 
ATOM     22  C   UNL     1      33.653 -14.044 -22.556  0.00  0.00    +0.032 C 
ATOM     23  C   UNL     1      34.204 -14.936 -21.635  0.00  0.00    +0.138 C 
ATOM     24  C   UNL     1      33.408 -14.457 -23.866  0.00  0.00    +0.030 C 
ATOM     25  C   UNL     1      33.713 -15.762 -24.254  0.00  0.00    +0.140 C 
ATOM     26  C   UNL     1      34.509 -16.240 -22.024  0.00  0.00    +0.032 C 
ATOM     27  C   UNL     1      34.263 -16.653 -23.333  0.00  0.00    +0.032 C 
ENDBRANCH   6  22
BRANCH   4  28
ATOM     28  N   UNL     1      31.691 -13.265 -20.357  0.00  0.00    +0.384 N 
ATOM     29  H   UNL     1      30.915 -12.856 -19.836  0.00  0.00    -0.089 HD
ATOM     30  H   UNL     1      32.542 -13.212 -19.798  0.00  0.00    -0.089 HD
ATOM     31  H   UNL     1      31.482 -14.241 -20.567  0.00  0.00    -0.089 HD
ENDBRANCH   4  28
TORSDOF 4
ENDMDL
