MODEL 1
REMARK VINA RESULT:     -12.1      0.000      0.000
REMARK  Name = 16750123
REMARK  4 active torsions:
REMARK  status: ('A' for Active; 'I' for Inactive)
REMARK    1  A    between atoms: C_5  and  O_14
REMARK    2  A    between atoms: C_8  and  C_13
REMARK    3  A    between atoms: O_14  and  C_15
REMARK    4  A    between atoms: C_15  and  C_17
REMARK                            x       y       z     vdW  Elec       q    Type
REMARK                         _______ _______ _______ _____ _____    ______ ____
ROOT
ATOM      1  O   UNL     1      33.659 -14.933 -24.740  0.00  0.00    -0.421 OA
ATOM      2  O   UNL     1      32.967 -13.744 -26.567  0.00  0.00    -0.244 OA
ATOM      3  C   UNL     1      33.364 -13.984 -22.509  0.00  0.00    +0.038 C 
ATOM      4  C   UNL     1      33.798 -15.018 -23.340  0.00  0.00    +0.152 C 
ATOM      5  C   UNL     1      34.549 -16.320 -21.465  0.00  0.00    +0.142 C 
ATOM      6  C   UNL     1      34.386 -16.181 -22.839  0.00  0.00    +0.074 C 
ATOM      7  C   UNL     1      33.536 -14.143 -21.128  0.00  0.00    +0.006 C 
ATOM      8  C   UNL     1      32.758 -12.807 -23.130  0.00  0.00    +0.052 C 
ATOM      9  C   UNL     1      34.125 -15.302 -20.610  0.00  0.00    +0.037 C 
ATOM     10  C   UNL     1      32.634 -12.740 -24.462  0.00  0.00    +0.086 C 
ATOM     11  C   UNL     1      33.090 -13.825 -25.350  0.00  0.00    +0.346 C 
ENDROOT
BRANCH   8  13
ATOM     12  O   UNL     1      32.129 -10.541 -22.921  0.00  0.00    -0.283 OA
ATOM     13  C   UNL     1      32.252 -11.639 -22.398  0.00  0.00    +0.234 C 
ENDBRANCH   8  13
BRANCH   5  14
ATOM     14  O   UNL     1      35.119 -17.445 -20.954  0.00  0.00    -0.471 OA
BRANCH  14  15
ATOM     15  C   UNL     1      34.798 -18.681 -21.589  0.00  0.00    +0.232 C 
BRANCH  15  17
ATOM     16 CL   UNL     1      36.405 -21.732 -17.686  0.00  0.00    -0.082 Cl
ATOM     17  C   UNL     1      34.470 -19.701 -20.538  0.00  0.00    +0.022 C 
ATOM     18  C   UNL     1      35.474 -20.184 -19.698  0.00  0.00    +0.011 C 
ATOM     19  C   UNL     1      33.163 -20.169 -20.405  0.00  0.00    -0.001 C 
ATOM     20  C   UNL     1      35.169 -21.135 -18.723  0.00  0.00    +0.057 C 
ATOM     21  C   UNL     1      32.858 -21.120 -19.430  0.00  0.00    +0.001 C 
ATOM     22  C   UNL     1      33.861 -21.602 -18.589  0.00  0.00    +0.011 C 
ENDBRANCH  15  17
ENDBRANCH  14  15
ENDBRANCH   5  14
TORSDOF 4
ENDMDL
MODEL 2
REMARK VINA RESULT:     -12.1      3.741      8.901
REMARK  Name = 16750123
REMARK  4 active torsions:
REMARK  status: ('A' for Active; 'I' for Inactive)
REMARK    1  A    between atoms: C_5  and  O_14
REMARK    2  A    between atoms: C_8  and  C_13
REMARK    3  A    between atoms: O_14  and  C_15
REMARK    4  A    between atoms: C_15  and  C_17
REMARK                            x       y       z     vdW  Elec       q    Type
REMARK                         _______ _______ _______ _____ _____    ______ ____
ROOT
ATOM      1  O   UNL     1      31.644 -21.680 -18.098  0.00  0.00    -0.421 OA
ATOM      2  O   UNL     1      30.467 -22.759 -16.460  0.00  0.00    -0.244 OA
ATOM      3  C   UNL     1      34.085 -21.684 -18.023  0.00  0.00    +0.038 C 
ATOM      4  C   UNL     1      32.891 -21.308 -18.639  0.00  0.00    +0.152 C 
ATOM      5  C   UNL     1      34.064 -20.153 -20.390  0.00  0.00    +0.142 C 
ATOM      6  C   UNL     1      32.863 -20.550 -19.812  0.00  0.00    +0.074 C 
ATOM      7  C   UNL     1      35.283 -21.275 -18.620  0.00  0.00    +0.006 C 
ATOM      8  C   UNL     1      34.008 -22.479 -16.797  0.00  0.00    +0.052 C 
ATOM      9  C   UNL     1      35.272 -20.515 -19.795  0.00  0.00    +0.037 C 
ATOM     10  C   UNL     1      32.816 -22.825 -16.295  0.00  0.00    +0.086 C 
ATOM     11  C   UNL     1      31.548 -22.432 -16.936  0.00  0.00    +0.346 C 
ENDROOT
BRANCH   8  13
ATOM     12  O   UNL     1      35.185 -24.042 -15.476  0.00  0.00    -0.283 OA
ATOM     13  C   UNL     1      35.168 -22.954 -16.032  0.00  0.00    +0.234 C 
ENDBRANCH   8  13
BRANCH   5  14
ATOM     14  O   UNL     1      34.061 -19.415 -21.533  0.00  0.00    -0.471 OA
BRANCH  14  15
ATOM     15  C   UNL     1      35.188 -18.571 -21.765  0.00  0.00    +0.232 C 
BRANCH  15  17
ATOM     16 CL   UNL     1      33.890 -13.622 -20.797  0.00  0.00    -0.082 Cl
ATOM     17  C   UNL     1      34.710 -17.245 -22.280  0.00  0.00    +0.022 C 
ATOM     18  C   UNL     1      34.543 -16.175 -21.401  0.00  0.00    +0.011 C 
ATOM     19  C   UNL     1      34.428 -17.085 -23.637  0.00  0.00    -0.001 C 
ATOM     20  C   UNL     1      34.096 -14.943 -21.879  0.00  0.00    +0.057 C 
ATOM     21  C   UNL     1      33.981 -15.853 -24.115  0.00  0.00    +0.001 C 
ATOM     22  C   UNL     1      33.815 -14.782 -23.236  0.00  0.00    +0.011 C 
ENDBRANCH  15  17
ENDBRANCH  14  15
ENDBRANCH   5  14
TORSDOF 4
ENDMDL
MODEL 3
REMARK VINA RESULT:     -11.9      1.118      2.508
REMARK  Name = 16750123
REMARK  4 active torsions:
REMARK  status: ('A' for Active; 'I' for Inactive)
REMARK    1  A    between atoms: C_5  and  O_14
REMARK    2  A    between atoms: C_8  and  C_13
REMARK    3  A    between atoms: O_14  and  C_15
REMARK    4  A    between atoms: C_15  and  C_17
REMARK                            x       y       z     vdW  Elec       q    Type
REMARK                         _______ _______ _______ _____ _____    ______ ____
ROOT
ATOM      1  O   UNL     1      32.892 -13.511 -20.937  0.00  0.00    -0.421 OA
ATOM      2  O   UNL     1      31.662 -11.587 -21.071  0.00  0.00    -0.244 OA
ATOM      3  C   UNL     1      33.604 -14.625 -22.991  0.00  0.00    +0.038 C 
ATOM      4  C   UNL     1      33.562 -14.561 -21.597  0.00  0.00    +0.152 C 
ATOM      5  C   UNL     1      34.849 -16.579 -21.384  0.00  0.00    +0.142 C 
ATOM      6  C   UNL     1      34.173 -15.521 -20.787  0.00  0.00    +0.074 C 
ATOM      7  C   UNL     1      34.289 -15.698 -23.573  0.00  0.00    +0.006 C 
ATOM      8  C   UNL     1      32.934 -13.570 -23.751  0.00  0.00    +0.052 C 
ATOM      9  C   UNL     1      34.907 -16.669 -22.775  0.00  0.00    +0.037 C 
ATOM     10  C   UNL     1      32.301 -12.580 -23.109  0.00  0.00    +0.086 C 
ATOM     11  C   UNL     1      32.247 -12.502 -21.638  0.00  0.00    +0.346 C 
ENDROOT
BRANCH   8  13
ATOM     12  O   UNL     1      32.995 -14.479 -25.928  0.00  0.00    -0.283 OA
ATOM     13  C   UNL     1      32.888 -13.492 -25.216  0.00  0.00    +0.234 C 
ENDBRANCH   8  13
BRANCH   5  14
ATOM     14  O   UNL     1      35.452 -17.525 -20.615  0.00  0.00    -0.471 OA
BRANCH  14  15
ATOM     15  C   UNL     1      35.594 -18.828 -21.180  0.00  0.00    +0.232 C 
BRANCH  15  17
ATOM     16 CL   UNL     1      36.516 -21.920 -17.092  0.00  0.00    -0.082 Cl
ATOM     17  C   UNL     1      35.088 -19.845 -20.200  0.00  0.00    +0.022 C 
ATOM     18  C   UNL     1      35.938 -20.349 -19.215  0.00  0.00    +0.011 C 
ATOM     19  C   UNL     1      33.768 -20.290 -20.276  0.00  0.00    -0.001 C 
ATOM     20  C   UNL     1      35.469 -21.297 -18.306  0.00  0.00    +0.057 C 
ATOM     21  C   UNL     1      33.298 -21.238 -19.367  0.00  0.00    +0.001 C 
ATOM     22  C   UNL     1      34.148 -21.741 -18.381  0.00  0.00    +0.011 C 
ENDBRANCH  15  17
ENDBRANCH  14  15
ENDBRANCH   5  14
TORSDOF 4
ENDMDL
MODEL 4
REMARK VINA RESULT:     -11.8      1.533      3.186
REMARK  Name = 16750123
REMARK  4 active torsions:
REMARK  status: ('A' for Active; 'I' for Inactive)
REMARK    1  A    between atoms: C_5  and  O_14
REMARK    2  A    between atoms: C_8  and  C_13
REMARK    3  A    between atoms: O_14  and  C_15
REMARK    4  A    between atoms: C_15  and  C_17
REMARK                            x       y       z     vdW  Elec       q    Type
REMARK                         _______ _______ _______ _____ _____    ______ ____
ROOT
ATOM      1  O   UNL     1      34.238 -14.895 -20.974  0.00  0.00    -0.421 OA
ATOM      2  O   UNL     1      33.553 -12.736 -21.295  0.00  0.00    -0.244 OA
ATOM      3  C   UNL     1      34.261 -16.440 -22.865  0.00  0.00    +0.038 C 
ATOM      4  C   UNL     1      34.483 -16.174 -21.513  0.00  0.00    +0.152 C 
ATOM      5  C   UNL     1      35.211 -18.427 -21.106  0.00  0.00    +0.142 C 
ATOM      6  C   UNL     1      34.953 -17.147 -20.629  0.00  0.00    +0.074 C 
ATOM      7  C   UNL     1      34.527 -17.735 -23.326  0.00  0.00    +0.006 C 
ATOM      8  C   UNL     1      33.768 -15.352 -23.711  0.00  0.00    +0.052 C 
ATOM      9  C   UNL     1      34.998 -18.721 -22.452  0.00  0.00    +0.037 C 
ATOM     10  C   UNL     1      33.539 -14.143 -23.184  0.00  0.00    +0.086 C 
ATOM     11  C   UNL     1      33.768 -13.850 -21.757  0.00  0.00    +0.346 C 
ENDROOT
BRANCH   8  13
ATOM     12  O   UNL     1      33.126 -14.517 -25.824  0.00  0.00    -0.283 OA
ATOM     13  C   UNL     1      33.487 -15.469 -25.147  0.00  0.00    +0.234 C 
ENDBRANCH   8  13
BRANCH   5  14
ATOM     14  O   UNL     1      35.671 -19.390 -20.262  0.00  0.00    -0.471 OA
BRANCH  14  15
ATOM     15  C   UNL     1      35.069 -20.680 -20.360  0.00  0.00    +0.232 C 
BRANCH  15  17
ATOM     16 CL   UNL     1      37.287 -21.854 -15.796  0.00  0.00    -0.082 Cl
ATOM     17  C   UNL     1      34.943 -21.268 -18.984  0.00  0.00    +0.022 C 
ATOM     18  C   UNL     1      36.045 -21.284 -18.129  0.00  0.00    +0.011 C 
ATOM     19  C   UNL     1      33.725 -21.802 -18.564  0.00  0.00    -0.001 C 
ATOM     20  C   UNL     1      35.929 -21.833 -16.852  0.00  0.00    +0.057 C 
ATOM     21  C   UNL     1      33.609 -22.351 -17.287  0.00  0.00    +0.001 C 
ATOM     22  C   UNL     1      34.711 -22.366 -16.430  0.00  0.00    +0.011 C 
ENDBRANCH  15  17
ENDBRANCH  14  15
ENDBRANCH   5  14
TORSDOF 4
ENDMDL
MODEL 5
REMARK VINA RESULT:     -11.7      4.493      8.908
REMARK  Name = 16750123
REMARK  4 active torsions:
REMARK  status: ('A' for Active; 'I' for Inactive)
REMARK    1  A    between atoms: C_5  and  O_14
REMARK    2  A    between atoms: C_8  and  C_13
REMARK    3  A    between atoms: O_14  and  C_15
REMARK    4  A    between atoms: C_15  and  C_17
REMARK                            x       y       z     vdW  Elec       q    Type
REMARK                         _______ _______ _______ _____ _____    ______ ____
ROOT
ATOM      1  O   UNL     1      34.021 -15.270 -20.472  0.00  0.00    -0.421 OA
ATOM      2  O   UNL     1      35.247 -17.201 -20.473  0.00  0.00    -0.244 OA
ATOM      3  C   UNL     1      33.374 -14.259 -22.599  0.00  0.00    +0.038 C 
ATOM      4  C   UNL     1      33.374 -14.253 -21.203  0.00  0.00    +0.152 C 
ATOM      5  C   UNL     1      32.089 -12.224 -21.130  0.00  0.00    +0.142 C 
ATOM      6  C   UNL     1      32.743 -13.253 -20.461  0.00  0.00    +0.074 C 
ATOM      7  C   UNL     1      32.711 -13.214 -23.254  0.00  0.00    +0.006 C 
ATOM      8  C   UNL     1      34.063 -15.352 -23.285  0.00  0.00    +0.052 C 
ATOM      9  C   UNL     1      32.073 -12.204 -22.525  0.00  0.00    +0.037 C 
ATOM     10  C   UNL     1      34.673 -16.310 -22.577  0.00  0.00    +0.086 C 
ATOM     11  C   UNL     1      34.682 -16.314 -21.103  0.00  0.00    +0.346 C 
ENDROOT
BRANCH   8  13
ATOM     12  O   UNL     1      33.199 -15.844 -25.427  0.00  0.00    -0.283 OA
ATOM     13  C   UNL     1      34.153 -15.502 -24.743  0.00  0.00    +0.234 C 
ENDBRANCH   8  13
BRANCH   5  14
ATOM     14  O   UNL     1      31.466 -11.240 -20.428  0.00  0.00    -0.471 OA
BRANCH  14  15
ATOM     15  C   UNL     1      30.706 -10.290 -21.174  0.00  0.00    +0.232 C 
BRANCH  15  17
ATOM     16 CL   UNL     1      33.387  -6.570 -23.643  0.00  0.00    -0.082 Cl
ATOM     17  C   UNL     1      31.399  -8.960 -21.125  0.00  0.00    +0.022 C 
ATOM     18  C   UNL     1      31.999  -8.444 -22.274  0.00  0.00    +0.011 C 
ATOM     19  C   UNL     1      31.447  -8.242 -19.930  0.00  0.00    -0.001 C 
ATOM     20  C   UNL     1      32.646  -7.209 -22.227  0.00  0.00    +0.057 C 
ATOM     21  C   UNL     1      32.094  -7.007 -19.883  0.00  0.00    +0.001 C 
ATOM     22  C   UNL     1      32.693  -6.490 -21.033  0.00  0.00    +0.011 C 
ENDBRANCH  15  17
ENDBRANCH  14  15
ENDBRANCH   5  14
TORSDOF 4
ENDMDL
MODEL 6
REMARK VINA RESULT:     -11.6      3.570      8.416
REMARK  Name = 16750123
REMARK  4 active torsions:
REMARK  status: ('A' for Active; 'I' for Inactive)
REMARK    1  A    between atoms: C_5  and  O_14
REMARK    2  A    between atoms: C_8  and  C_13
REMARK    3  A    between atoms: O_14  and  C_15
REMARK    4  A    between atoms: C_15  and  C_17
REMARK                            x       y       z     vdW  Elec       q    Type
REMARK                         _______ _______ _______ _____ _____    ______ ____
ROOT
ATOM      1  O   UNL     1      32.498 -21.211 -19.241  0.00  0.00    -0.421 OA
ATOM      2  O   UNL     1      31.729 -22.651 -17.638  0.00  0.00    -0.244 OA
ATOM      3  C   UNL     1      34.870 -20.633 -19.297  0.00  0.00    +0.038 C 
ATOM      4  C   UNL     1      33.580 -20.513 -19.815  0.00  0.00    +0.152 C 
ATOM      5  C   UNL     1      34.319 -18.994 -21.523  0.00  0.00    +0.142 C 
ATOM      6  C   UNL     1      33.290 -19.706 -20.917  0.00  0.00    +0.074 C 
ATOM      7  C   UNL     1      35.892 -19.908 -19.921  0.00  0.00    +0.006 C 
ATOM      8  C   UNL     1      35.071 -21.506 -18.140  0.00  0.00    +0.052 C 
ATOM      9  C   UNL     1      35.618 -19.094 -21.026  0.00  0.00    +0.037 C 
ATOM     10  C   UNL     1      34.033 -22.161 -17.605  0.00  0.00    +0.086 C 
ATOM     11  C   UNL     1      32.665 -22.042 -18.143  0.00  0.00    +0.346 C 
ENDROOT
BRANCH   8  13
ATOM     12  O   UNL     1      36.450 -22.272 -16.384  0.00  0.00    -0.283 OA
ATOM     13  C   UNL     1      36.362 -21.739 -17.480  0.00  0.00    +0.234 C 
ENDBRANCH   8  13
BRANCH   5  14
ATOM     14  O   UNL     1      34.060 -18.202 -22.599  0.00  0.00    -0.471 OA
BRANCH  14  15
ATOM     15  C   UNL     1      35.003 -17.170 -22.887  0.00  0.00    +0.232 C 
BRANCH  15  17
ATOM     16 CL   UNL     1      32.895 -12.650 -24.385  0.00  0.00    -0.082 Cl
ATOM     17  C   UNL     1      34.408 -15.844 -22.513  0.00  0.00    +0.022 C 
ATOM     18  C   UNL     1      33.977 -14.967 -23.508  0.00  0.00    +0.011 C 
ATOM     19  C   UNL     1      34.291 -15.487 -21.169  0.00  0.00    -0.001 C 
ATOM     20  C   UNL     1      33.427 -13.733 -23.160  0.00  0.00    +0.057 C 
ATOM     21  C   UNL     1      33.741 -14.254 -20.821  0.00  0.00    +0.001 C 
ATOM     22  C   UNL     1      33.309 -13.376 -21.816  0.00  0.00    +0.011 C 
ENDBRANCH  15  17
ENDBRANCH  14  15
ENDBRANCH   5  14
TORSDOF 4
ENDMDL
MODEL 7
REMARK VINA RESULT:     -11.5      4.000      8.900
REMARK  Name = 16750123
REMARK  4 active torsions:
REMARK  status: ('A' for Active; 'I' for Inactive)
REMARK    1  A    between atoms: C_5  and  O_14
REMARK    2  A    between atoms: C_8  and  C_13
REMARK    3  A    between atoms: O_14  and  C_15
REMARK    4  A    between atoms: C_15  and  C_17
REMARK                            x       y       z     vdW  Elec       q    Type
REMARK                         _______ _______ _______ _____ _____    ______ ____
ROOT
ATOM      1  O   UNL     1      35.190 -22.288 -17.374  0.00  0.00    -0.421 OA
ATOM      2  O   UNL     1      35.326 -23.593 -15.500  0.00  0.00    -0.244 OA
ATOM      3  C   UNL     1      32.997 -21.588 -18.191  0.00  0.00    +0.038 C 
ATOM      4  C   UNL     1      34.389 -21.596 -18.304  0.00  0.00    +0.152 C 
ATOM      5  C   UNL     1      34.318 -20.228 -20.278  0.00  0.00    +0.142 C 
ATOM      6  C   UNL     1      35.058 -20.927 -19.331  0.00  0.00    +0.074 C 
ATOM      7  C   UNL     1      32.270 -20.878 -19.154  0.00  0.00    +0.006 C 
ATOM      8  C   UNL     1      32.391 -22.318 -17.078  0.00  0.00    +0.052 C 
ATOM      9  C   UNL     1      32.926 -20.203 -20.190  0.00  0.00    +0.037 C 
ATOM     10  C   UNL     1      33.166 -22.972 -16.203  0.00  0.00    +0.086 C 
ATOM     11  C   UNL     1      34.636 -22.989 -16.312  0.00  0.00    +0.346 C 
ENDROOT
BRANCH   8  13
ATOM     12  O   UNL     1      30.495 -22.699 -15.723  0.00  0.00    -0.283 OA
ATOM     13  C   UNL     1      30.948 -22.407 -16.820  0.00  0.00    +0.234 C 
ENDBRANCH   8  13
BRANCH   5  14
ATOM     14  O   UNL     1      34.948 -19.568 -21.287  0.00  0.00    -0.471 OA
BRANCH  14  15
ATOM     15  C   UNL     1      35.291 -18.202 -21.056  0.00  0.00    +0.232 C 
BRANCH  15  17
ATOM     16 CL   UNL     1      33.956 -13.490 -22.826  0.00  0.00    -0.082 Cl
ATOM     17  C   UNL     1      34.719 -17.360 -22.158  0.00  0.00    +0.022 C 
ATOM     18  C   UNL     1      34.617 -15.978 -21.998  0.00  0.00    +0.011 C 
ATOM     19  C   UNL     1      34.287 -17.959 -23.341  0.00  0.00    -0.001 C 
ATOM     20  C   UNL     1      34.083 -15.195 -23.021  0.00  0.00    +0.057 C 
ATOM     21  C   UNL     1      33.752 -17.176 -24.365  0.00  0.00    +0.001 C 
ATOM     22  C   UNL     1      33.651 -15.794 -24.205  0.00  0.00    +0.011 C 
ENDBRANCH  15  17
ENDBRANCH  14  15
ENDBRANCH   5  14
TORSDOF 4
ENDMDL
MODEL 8
REMARK VINA RESULT:     -11.4      6.218     11.548
REMARK  Name = 16750123
REMARK  4 active torsions:
REMARK  status: ('A' for Active; 'I' for Inactive)
REMARK    1  A    between atoms: C_5  and  O_14
REMARK    2  A    between atoms: C_8  and  C_13
REMARK    3  A    between atoms: O_14  and  C_15
REMARK    4  A    between atoms: C_15  and  C_17
REMARK                            x       y       z     vdW  Elec       q    Type
REMARK                         _______ _______ _______ _____ _____    ______ ____
ROOT
ATOM      1  O   UNL     1      39.077 -23.894 -14.999  0.00  0.00    -0.421 OA
ATOM      2  O   UNL     1      40.568 -25.325 -14.020  0.00  0.00    -0.244 OA
ATOM      3  C   UNL     1      36.851 -23.631 -14.027  0.00  0.00    +0.038 C 
ATOM      4  C   UNL     1      37.795 -23.308 -15.004  0.00  0.00    +0.152 C 
ATOM      5  C   UNL     1      36.277 -21.790 -16.084  0.00  0.00    +0.142 C 
ATOM      6  C   UNL     1      37.526 -22.398 -16.029  0.00  0.00    +0.074 C 
ATOM      7  C   UNL     1      35.600 -23.008 -14.100  0.00  0.00    +0.006 C 
ATOM      8  C   UNL     1      37.230 -24.595 -12.994  0.00  0.00    +0.052 C 
ATOM      9  C   UNL     1      35.314 -22.094 -15.121  0.00  0.00    +0.037 C 
ATOM     10  C   UNL     1      38.451 -25.143 -13.003  0.00  0.00    +0.086 C 
ATOM     11  C   UNL     1      39.455 -24.812 -14.030  0.00  0.00    +0.346 C 
ENDROOT
BRANCH   8  13
ATOM     12  O   UNL     1      36.580 -26.048 -11.251  0.00  0.00    -0.283 OA
ATOM     13  C   UNL     1      36.357 -25.037 -11.900  0.00  0.00    +0.234 C 
ENDBRANCH   8  13
BRANCH   5  14
ATOM     14  O   UNL     1      35.993 -20.900 -17.073  0.00  0.00    -0.471 OA
BRANCH  14  15
ATOM     15  C   UNL     1      36.086 -21.370 -18.417  0.00  0.00    +0.232 C 
BRANCH  15  17
ATOM     16 CL   UNL     1      34.097 -18.626 -22.370  0.00  0.00    -0.082 Cl
ATOM     17  C   UNL     1      34.880 -20.911 -19.182  0.00  0.00    +0.022 C 
ATOM     18  C   UNL     1      35.033 -20.080 -20.292  0.00  0.00    +0.011 C 
ATOM     19  C   UNL     1      33.606 -21.313 -18.781  0.00  0.00    -0.001 C 
ATOM     20  C   UNL     1      33.911 -19.651 -21.002  0.00  0.00    +0.057 C 
ATOM     21  C   UNL     1      32.484 -20.884 -19.491  0.00  0.00    +0.001 C 
ATOM     22  C   UNL     1      32.637 -20.053 -20.602  0.00  0.00    +0.011 C 
ENDBRANCH  15  17
ENDBRANCH  14  15
ENDBRANCH   5  14
TORSDOF 4
ENDMDL
MODEL 9
REMARK VINA RESULT:     -11.0      2.642      4.660
REMARK  Name = 16750123
REMARK  4 active torsions:
REMARK  status: ('A' for Active; 'I' for Inactive)
REMARK    1  A    between atoms: C_5  and  O_14
REMARK    2  A    between atoms: C_8  and  C_13
REMARK    3  A    between atoms: O_14  and  C_15
REMARK    4  A    between atoms: C_15  and  C_17
REMARK                            x       y       z     vdW  Elec       q    Type
REMARK                         _______ _______ _______ _____ _____    ______ ____
ROOT
ATOM      1  O   UNL     1      31.910  -9.678 -23.362  0.00  0.00    -0.421 OA
ATOM      2  O   UNL     1      31.368  -7.456 -23.384  0.00  0.00    -0.244 OA
ATOM      3  C   UNL     1      31.751 -10.932 -21.272  0.00  0.00    +0.038 C 
ATOM      4  C   UNL     1      32.043 -10.879 -22.636  0.00  0.00    +0.152 C 
ATOM      5  C   UNL     1      32.630 -13.209 -22.683  0.00  0.00    +0.142 C 
ATOM      6  C   UNL     1      32.480 -11.997 -23.349  0.00  0.00    +0.074 C 
ATOM      7  C   UNL     1      31.908 -12.161 -20.620  0.00  0.00    +0.006 C 
ATOM      8  C   UNL     1      31.298  -9.706 -20.615  0.00  0.00    +0.052 C 
ATOM      9  C   UNL     1      32.345 -13.291 -21.321  0.00  0.00    +0.037 C 
ATOM     10  C   UNL     1      31.178  -8.573 -21.318  0.00  0.00    +0.086 C 
ATOM     11  C   UNL     1      31.486  -8.504 -22.758  0.00  0.00    +0.346 C 
ENDROOT
BRANCH   8  13
ATOM     12  O   UNL     1      31.742  -9.191 -18.354  0.00  0.00    -0.283 OA
ATOM     13  C   UNL     1      30.951  -9.596 -19.193  0.00  0.00    +0.234 C 
ENDBRANCH   8  13
BRANCH   5  14
ATOM     14  O   UNL     1      33.053 -14.312 -23.359  0.00  0.00    -0.471 OA
BRANCH  14  15
ATOM     15  C   UNL     1      34.377 -14.771 -23.089  0.00  0.00    +0.232 C 
BRANCH  15  17
ATOM     16 CL   UNL     1      35.824 -19.146 -20.664  0.00  0.00    -0.082 Cl
ATOM     17  C   UNL     1      34.375 -16.271 -23.037  0.00  0.00    +0.022 C 
ATOM     18  C   UNL     1      35.024 -16.933 -21.995  0.00  0.00    +0.011 C 
ATOM     19  C   UNL     1      33.728 -17.002 -24.033  0.00  0.00    -0.001 C 
ATOM     20  C   UNL     1      35.025 -18.327 -21.948  0.00  0.00    +0.057 C 
ATOM     21  C   UNL     1      33.729 -18.396 -23.987  0.00  0.00    +0.001 C 
ATOM     22  C   UNL     1      34.377 -19.059 -22.944  0.00  0.00    +0.011 C 
ENDBRANCH  15  17
ENDBRANCH  14  15
ENDBRANCH   5  14
TORSDOF 4
ENDMDL
