MODEL 1
REMARK VINA RESULT:     -12.8      0.000      0.000
REMARK  Name = 23586146
REMARK  5 active torsions:
REMARK  status: ('A' for Active; 'I' for Inactive)
REMARK    1  A    between atoms: N_1  and  C_12
REMARK    2  A    between atoms: C_8  and  N_18
REMARK    3  A    between atoms: N_18  and  C_20
REMARK    4  A    between atoms: C_23  and  S_26
REMARK    5  A    between atoms: S_26  and  N_29
REMARK                            x       y       z     vdW  Elec       q    Type
REMARK                         _______ _______ _______ _____ _____    ______ ____
ROOT
ATOM      1  N   UNL     1      35.191 -23.797 -14.220  0.00  0.00    -0.309 N 
ATOM      2  N   UNL     1      32.934 -23.377 -14.230  0.00  0.00    -0.321 NA
ATOM      3  N   UNL     1      31.869 -22.811 -16.307  0.00  0.00    -0.106 N 
ATOM      4  N   UNL     1      30.622 -22.501 -16.753  0.00  0.00    -0.139 NA
ATOM      5  N   UNL     1      30.578 -22.890 -14.510  0.00  0.00    -0.145 NA
ATOM      6  C   UNL     1      34.069 -23.472 -14.883  0.00  0.00    +0.196 C 
ATOM      7  C   UNL     1      34.180 -23.229 -16.364  0.00  0.00    +0.081 C 
ATOM      8  C   UNL     1      33.062 -22.904 -17.029  0.00  0.00    +0.140 C 
ATOM      9  C   UNL     1      31.817 -23.045 -14.932  0.00  0.00    +0.176 C 
ATOM     10  C   UNL     1      29.899 -22.564 -15.639  0.00  0.00    +0.230 C 
ATOM     11  H   UNL     1      36.036 -23.849 -14.722  0.00  0.00    +0.149 HD
ENDROOT
BRANCH   1  12
ATOM     12  C   UNL     1      35.211 -24.077 -12.796  0.00  0.00    +0.071 C 
ATOM     13  C   UNL     1      36.133 -25.265 -12.506  0.00  0.00    +0.020 C 
ATOM     14  C   UNL     1      35.643 -22.827 -12.022  0.00  0.00    +0.020 C 
ATOM     15  C   UNL     1      37.613 -24.925 -12.693  0.00  0.00    +0.002 C 
ATOM     16  C   UNL     1      37.123 -22.497 -12.210  0.00  0.00    +0.002 C 
ATOM     17  C   UNL     1      38.013 -23.693 -11.888  0.00  0.00    +0.000 C 
ENDBRANCH   1  12
BRANCH   8  18
ATOM     18  N   UNL     1      33.011 -22.655 -18.371  0.00  0.00    -0.299 N 
ATOM     19  H   UNL     1      32.519 -23.314 -18.911  0.00  0.00    +0.153 HD
BRANCH  18  20
ATOM     20  C   UNL     1      33.570 -21.583 -19.076  0.00  0.00    +0.049 C 
ATOM     21  C   UNL     1      32.743 -20.696 -19.767  0.00  0.00    +0.016 C 
ATOM     22  C   UNL     1      34.952 -21.401 -19.089  0.00  0.00    +0.016 C 
ATOM     23  C   UNL     1      34.683 -19.446 -20.482  0.00  0.00    +0.122 C 
ATOM     24  C   UNL     1      33.300 -19.627 -20.469  0.00  0.00    +0.021 C 
ATOM     25  C   UNL     1      35.508 -20.332 -19.792  0.00  0.00    +0.021 C 
BRANCH  23  26
ATOM     26  S   UNL     1      35.378 -18.108 -21.361  0.00  0.00    +0.057 S 
ATOM     27  O   UNL     1      35.055 -18.268 -22.772  0.00  0.00    -0.153 OA
ATOM     28  O   UNL     1      35.031 -16.871 -20.675  0.00  0.00    -0.153 OA
BRANCH  26  29
ATOM     29  N   UNL     1      37.047 -18.406 -21.142  0.00  0.00    -0.203 NA
ATOM     30  H   UNL     1      37.385 -17.876 -20.340  0.00  0.00    +0.144 HD
ATOM     31  H   UNL     1      37.556 -18.119 -21.979  0.00  0.00    +0.144 HD
ENDBRANCH  26  29
ENDBRANCH  23  26
ENDBRANCH  18  20
ENDBRANCH   8  18
TORSDOF 5
ENDMDL
MODEL 2
REMARK VINA RESULT:     -11.0      1.683      4.600
REMARK  Name = 23586146
REMARK  5 active torsions:
REMARK  status: ('A' for Active; 'I' for Inactive)
REMARK    1  A    between atoms: N_1  and  C_12
REMARK    2  A    between atoms: C_8  and  N_18
REMARK    3  A    between atoms: N_18  and  C_20
REMARK    4  A    between atoms: C_23  and  S_26
REMARK    5  A    between atoms: S_26  and  N_29
REMARK                            x       y       z     vdW  Elec       q    Type
REMARK                         _______ _______ _______ _____ _____    ______ ____
ROOT
ATOM      1  N   UNL     1      30.366 -22.511 -15.733  0.00  0.00    -0.309 N 
ATOM      2  N   UNL     1      32.434 -22.684 -14.751  0.00  0.00    -0.321 NA
ATOM      3  N   UNL     1      34.389 -22.635 -16.147  0.00  0.00    -0.106 N 
ATOM      4  N   UNL     1      35.739 -22.702 -15.998  0.00  0.00    -0.139 NA
ATOM      5  N   UNL     1      34.720 -22.849 -13.967  0.00  0.00    -0.145 NA
ATOM      6  C   UNL     1      31.705 -22.555 -15.834  0.00  0.00    +0.196 C 
ATOM      7  C   UNL     1      32.303 -22.453 -17.212  0.00  0.00    +0.081 C 
ATOM      8  C   UNL     1      33.639 -22.497 -17.318  0.00  0.00    +0.140 C 
ATOM      9  C   UNL     1      33.787 -22.726 -14.890  0.00  0.00    +0.176 C 
ATOM     10  C   UNL     1      35.874 -22.829 -14.682  0.00  0.00    +0.230 C 
ATOM     11  H   UNL     1      29.834 -22.429 -16.557  0.00  0.00    +0.149 HD
ENDROOT
BRANCH   1  12
ATOM     12  C   UNL     1      29.671 -22.578 -14.461  0.00  0.00    +0.071 C 
ATOM     13  C   UNL     1      28.171 -22.781 -14.691  0.00  0.00    +0.020 C 
ATOM     14  C   UNL     1      30.264 -23.695 -13.597  0.00  0.00    +0.020 C 
ATOM     15  C   UNL     1      27.836 -24.181 -15.208  0.00  0.00    +0.002 C 
ATOM     16  C   UNL     1      29.922 -25.091 -14.117  0.00  0.00    +0.002 C 
ATOM     17  C   UNL     1      28.418 -25.267 -14.311  0.00  0.00    +0.000 C 
ENDBRANCH   1  12
BRANCH   8  18
ATOM     18  N   UNL     1      34.319 -22.416 -18.499  0.00  0.00    -0.299 N 
ATOM     19  H   UNL     1      34.707 -23.258 -18.829  0.00  0.00    +0.153 HD
BRANCH  18  20
ATOM     20  C   UNL     1      34.534 -21.290 -19.301  0.00  0.00    +0.049 C 
ATOM     21  C   UNL     1      35.825 -20.786 -19.465  0.00  0.00    +0.016 C 
ATOM     22  C   UNL     1      33.458 -20.670 -19.937  0.00  0.00    +0.016 C 
ATOM     23  C   UNL     1      34.962 -19.044 -20.901  0.00  0.00    +0.122 C 
ATOM     24  C   UNL     1      36.039 -19.664 -20.266  0.00  0.00    +0.021 C 
ATOM     25  C   UNL     1      33.672 -19.548 -20.736  0.00  0.00    +0.021 C 
BRANCH  23  26
ATOM     26  S   UNL     1      35.231 -17.640 -21.901  0.00  0.00    +0.057 S 
ATOM     27  O   UNL     1      34.550 -17.844 -23.172  0.00  0.00    -0.153 OA
ATOM     28  O   UNL     1      34.949 -16.448 -21.113  0.00  0.00    -0.153 OA
BRANCH  26  29
ATOM     29  N   UNL     1      36.917 -17.741 -22.159  0.00  0.00    -0.203 NA
ATOM     30  H   UNL     1      37.119 -18.506 -22.801  0.00  0.00    +0.144 HD
ATOM     31  H   UNL     1      37.388 -17.911 -21.270  0.00  0.00    +0.144 HD
ENDBRANCH  26  29
ENDBRANCH  23  26
ENDBRANCH  18  20
ENDBRANCH   8  18
TORSDOF 5
ENDMDL
MODEL 3
REMARK VINA RESULT:     -10.7      7.919     11.616
REMARK  Name = 23586146
REMARK  5 active torsions:
REMARK  status: ('A' for Active; 'I' for Inactive)
REMARK    1  A    between atoms: N_1  and  C_12
REMARK    2  A    between atoms: C_8  and  N_18
REMARK    3  A    between atoms: N_18  and  C_20
REMARK    4  A    between atoms: C_23  and  S_26
REMARK    5  A    between atoms: S_26  and  N_29
REMARK                            x       y       z     vdW  Elec       q    Type
REMARK                         _______ _______ _______ _____ _____    ______ ____
ROOT
ATOM      1  N   UNL     1      34.773 -16.604 -21.740  0.00  0.00    -0.309 N 
ATOM      2  N   UNL     1      34.061 -15.672 -23.714  0.00  0.00    -0.321 NA
ATOM      3  N   UNL     1      32.911 -13.564 -23.653  0.00  0.00    -0.106 N 
ATOM      4  N   UNL     1      32.345 -12.695 -24.533  0.00  0.00    -0.139 NA
ATOM      5  N   UNL     1      33.211 -14.483 -25.646  0.00  0.00    -0.145 NA
ATOM      6  C   UNL     1      34.161 -15.611 -22.407  0.00  0.00    +0.196 C 
ATOM      7  C   UNL     1      33.614 -14.465 -21.600  0.00  0.00    +0.081 C 
ATOM      8  C   UNL     1      33.001 -13.471 -22.262  0.00  0.00    +0.140 C 
ATOM      9  C   UNL     1      33.435 -14.650 -24.357  0.00  0.00    +0.176 C 
ATOM     10  C   UNL     1      32.555 -13.296 -25.700  0.00  0.00    +0.230 C 
ATOM     11  H   UNL     1      34.826 -16.550 -20.759  0.00  0.00    +0.149 HD
ENDROOT
BRANCH   1  12
ATOM     12  C   UNL     1      35.361 -17.752 -22.405  0.00  0.00    +0.071 C 
ATOM     13  C   UNL     1      36.626 -18.197 -21.666  0.00  0.00    +0.020 C 
ATOM     14  C   UNL     1      34.335 -18.886 -22.498  0.00  0.00    +0.020 C 
ATOM     15  C   UNL     1      36.325 -18.846 -20.314  0.00  0.00    +0.002 C 
ATOM     16  C   UNL     1      34.043 -19.532 -21.144  0.00  0.00    +0.002 C 
ATOM     17  C   UNL     1      35.322 -19.986 -20.448  0.00  0.00    +0.000 C 
ENDBRANCH   1  12
BRANCH   8  18
ATOM     18  N   UNL     1      32.458 -12.371 -21.663  0.00  0.00    -0.299 N 
ATOM     19  H   UNL     1      32.162 -12.491 -20.733  0.00  0.00    +0.153 HD
BRANCH  18  20
ATOM     20  C   UNL     1      32.268 -11.094 -22.204  0.00  0.00    +0.049 C 
ATOM     21  C   UNL     1      31.043 -10.444 -22.046  0.00  0.00    +0.016 C 
ATOM     22  C   UNL     1      33.303 -10.470 -22.901  0.00  0.00    +0.016 C 
ATOM     23  C   UNL     1      31.891  -8.548 -23.281  0.00  0.00    +0.122 C 
ATOM     24  C   UNL     1      30.855  -9.171 -22.584  0.00  0.00    +0.021 C 
ATOM     25  C   UNL     1      33.114  -9.198 -23.439  0.00  0.00    +0.021 C 
BRANCH  23  26
ATOM     26  S   UNL     1      31.654  -6.955 -23.954  0.00  0.00    +0.057 S 
ATOM     27  O   UNL     1      32.949  -6.296 -24.043  0.00  0.00    -0.153 OA
ATOM     28  O   UNL     1      30.820  -7.074 -25.143  0.00  0.00    -0.153 OA
BRANCH  26  29
ATOM     29  N   UNL     1      30.741  -6.211 -22.716  0.00  0.00    -0.203 NA
ATOM     30  H   UNL     1      31.284  -6.197 -21.854  0.00  0.00    +0.144 HD
ATOM     31  H   UNL     1      29.878  -6.735 -22.567  0.00  0.00    +0.144 HD
ENDBRANCH  26  29
ENDBRANCH  23  26
ENDBRANCH  18  20
ENDBRANCH   8  18
TORSDOF 5
ENDMDL
MODEL 4
REMARK VINA RESULT:     -10.5      5.542     10.894
REMARK  Name = 23586146
REMARK  5 active torsions:
REMARK  status: ('A' for Active; 'I' for Inactive)
REMARK    1  A    between atoms: N_1  and  C_12
REMARK    2  A    between atoms: C_8  and  N_18
REMARK    3  A    between atoms: N_18  and  C_20
REMARK    4  A    between atoms: C_23  and  S_26
REMARK    5  A    between atoms: S_26  and  N_29
REMARK                            x       y       z     vdW  Elec       q    Type
REMARK                         _______ _______ _______ _____ _____    ______ ____
ROOT
ATOM      1  N   UNL     1      33.639 -13.435 -22.976  0.00  0.00    -0.309 N 
ATOM      2  N   UNL     1      33.107 -15.339 -24.142  0.00  0.00    -0.321 NA
ATOM      3  N   UNL     1      34.004 -17.441 -23.401  0.00  0.00    -0.106 N 
ATOM      4  N   UNL     1      33.954 -18.748 -23.772  0.00  0.00    -0.139 NA
ATOM      5  N   UNL     1      32.701 -17.484 -25.192  0.00  0.00    -0.145 NA
ATOM      6  C   UNL     1      33.738 -14.763 -23.146  0.00  0.00    +0.196 C 
ATOM      7  C   UNL     1      34.586 -15.529 -22.166  0.00  0.00    +0.081 C 
ATOM      8  C   UNL     1      34.688 -16.856 -22.332  0.00  0.00    +0.140 C 
ATOM      9  C   UNL     1      33.230 -16.686 -24.285  0.00  0.00    +0.176 C 
ATOM     10  C   UNL     1      33.165 -18.710 -24.841  0.00  0.00    +0.230 C 
ATOM     11  H   UNL     1      34.132 -13.017 -22.233  0.00  0.00    +0.149 HD
ENDROOT
BRANCH   1  12
ATOM     12  C   UNL     1      32.837 -12.589 -23.840  0.00  0.00    +0.071 C 
ATOM     13  C   UNL     1      31.450 -12.375 -23.225  0.00  0.00    +0.020 C 
ATOM     14  C   UNL     1      33.554 -11.258 -24.085  0.00  0.00    +0.020 C 
ATOM     15  C   UNL     1      31.482 -11.474 -21.990  0.00  0.00    +0.002 C 
ATOM     16  C   UNL     1      33.579 -10.361 -22.848  0.00  0.00    +0.002 C 
ATOM     17  C   UNL     1      32.180 -10.149 -22.278  0.00  0.00    +0.000 C 
ENDBRANCH   1  12
BRANCH   8  18
ATOM     18  N   UNL     1      35.420 -17.677 -21.523  0.00  0.00    -0.299 N 
ATOM     19  H   UNL     1      36.372 -17.448 -21.428  0.00  0.00    +0.153 HD
BRANCH  18  20
ATOM     20  C   UNL     1      34.989 -18.803 -20.811  0.00  0.00    +0.049 C 
ATOM     21  C   UNL     1      35.924 -19.665 -20.237  0.00  0.00    +0.016 C 
ATOM     22  C   UNL     1      33.625 -19.063 -20.676  0.00  0.00    +0.016 C 
ATOM     23  C   UNL     1      34.130 -21.046 -19.392  0.00  0.00    +0.122 C 
ATOM     24  C   UNL     1      35.494 -20.786 -19.527  0.00  0.00    +0.021 C 
ATOM     25  C   UNL     1      33.196 -20.184 -19.967  0.00  0.00    +0.021 C 
BRANCH  23  26
ATOM     26  S   UNL     1      33.593 -22.449 -18.504  0.00  0.00    +0.057 S 
ATOM     27  O   UNL     1      33.525 -23.577 -19.423  0.00  0.00    -0.153 OA
ATOM     28  O   UNL     1      34.383 -22.556 -17.285  0.00  0.00    -0.153 OA
BRANCH  26  29
ATOM     29  N   UNL     1      32.003 -21.983 -18.087  0.00  0.00    -0.203 NA
ATOM     30  H   UNL     1      31.682 -22.539 -17.295  0.00  0.00    +0.144 HD
ATOM     31  H   UNL     1      31.384 -22.136 -18.883  0.00  0.00    +0.144 HD
ENDBRANCH  26  29
ENDBRANCH  23  26
ENDBRANCH  18  20
ENDBRANCH   8  18
TORSDOF 5
ENDMDL
MODEL 5
REMARK VINA RESULT:     -10.1      5.454      8.825
REMARK  Name = 23586146
REMARK  5 active torsions:
REMARK  status: ('A' for Active; 'I' for Inactive)
REMARK    1  A    between atoms: N_1  and  C_12
REMARK    2  A    between atoms: C_8  and  N_18
REMARK    3  A    between atoms: N_18  and  C_20
REMARK    4  A    between atoms: C_23  and  S_26
REMARK    5  A    between atoms: S_26  and  N_29
REMARK                            x       y       z     vdW  Elec       q    Type
REMARK                         _______ _______ _______ _____ _____    ______ ____
ROOT
ATOM      1  N   UNL     1      34.515 -19.449 -20.267  0.00  0.00    -0.309 N 
ATOM      2  N   UNL     1      33.918 -18.975 -22.432  0.00  0.00    -0.321 NA
ATOM      3  N   UNL     1      34.010 -16.696 -23.187  0.00  0.00    -0.106 N 
ATOM      4  N   UNL     1      33.760 -15.998 -24.327  0.00  0.00    -0.139 NA
ATOM      5  N   UNL     1      33.342 -18.212 -24.658  0.00  0.00    -0.145 NA
ATOM      6  C   UNL     1      34.337 -18.562 -21.259  0.00  0.00    +0.196 C 
ATOM      7  C   UNL     1      34.633 -17.116 -20.962  0.00  0.00    +0.081 C 
ATOM      8  C   UNL     1      34.457 -16.226 -21.950  0.00  0.00    +0.140 C 
ATOM      9  C   UNL     1      33.748 -18.049 -23.414  0.00  0.00    +0.176 C 
ATOM     10  C   UNL     1      33.366 -16.953 -25.164  0.00  0.00    +0.230 C 
ATOM     11  H   UNL     1      34.814 -19.121 -19.389  0.00  0.00    +0.149 HD
ENDROOT
BRANCH   1  12
ATOM     12  C   UNL     1      34.284 -20.872 -20.434  0.00  0.00    +0.071 C 
ATOM     13  C   UNL     1      35.321 -21.670 -19.638  0.00  0.00    +0.020 C 
ATOM     14  C   UNL     1      32.855 -21.226 -20.009  0.00  0.00    +0.020 C 
ATOM     15  C   UNL     1      35.106 -21.580 -18.127  0.00  0.00    +0.002 C 
ATOM     16  C   UNL     1      32.649 -21.138 -18.497  0.00  0.00    +0.002 C 
ATOM     17  C   UNL     1      33.682 -21.964 -17.737  0.00  0.00    +0.000 C 
ENDBRANCH   1  12
BRANCH   8  18
ATOM     18  N   UNL     1      34.685 -14.886 -21.825  0.00  0.00    -0.299 N 
ATOM     19  H   UNL     1      35.630 -14.610 -21.824  0.00  0.00    +0.153 HD
BRANCH  18  20
ATOM     20  C   UNL     1      33.748 -13.854 -21.701  0.00  0.00    +0.049 C 
ATOM     21  C   UNL     1      33.670 -12.860 -22.678  0.00  0.00    +0.016 C 
ATOM     22  C   UNL     1      32.892 -13.818 -20.601  0.00  0.00    +0.016 C 
ATOM     23  C   UNL     1      31.879 -11.797 -21.452  0.00  0.00    +0.122 C 
ATOM     24  C   UNL     1      32.735 -11.833 -22.554  0.00  0.00    +0.021 C 
ATOM     25  C   UNL     1      31.958 -12.790 -20.477  0.00  0.00    +0.021 C 
BRANCH  23  26
ATOM     26  S   UNL     1      30.710 -10.510 -21.298  0.00  0.00    +0.057 S 
ATOM     27  O   UNL     1      29.434 -10.985 -21.814  0.00  0.00    -0.153 OA
ATOM     28  O   UNL     1      30.789  -9.972 -19.947  0.00  0.00    -0.153 OA
BRANCH  26  29
ATOM     29  N   UNL     1      31.349  -9.357 -22.386  0.00  0.00    -0.203 NA
ATOM     30  H   UNL     1      32.350  -9.512 -22.497  0.00  0.00    +0.144 HD
ATOM     31  H   UNL     1      31.188  -8.419 -22.019  0.00  0.00    +0.144 HD
ENDBRANCH  26  29
ENDBRANCH  23  26
ENDBRANCH  18  20
ENDBRANCH   8  18
TORSDOF 5
ENDMDL
