MODEL 1
REMARK VINA RESULT:     -12.8      0.000      0.000
REMARK  Name = 449162
REMARK  12 active torsions:
REMARK  status: ('A' for Active; 'I' for Inactive)
REMARK    1  A    between atoms: C_1  and  C_9
REMARK    2  A    between atoms: C_3  and  C_19
REMARK    3  A    between atoms: C_10  and  C_16
REMARK    4  A    between atoms: C_11  and  C_13
REMARK    5  A    between atoms: C_13  and  O_14
REMARK    6  A    between atoms: C_16  and  O_17
REMARK    7  A    between atoms: C_20  and  C_21
REMARK    8  A    between atoms: C_21  and  O_22
REMARK    9  A    between atoms: O_22  and  C_23
REMARK   10  A    between atoms: C_24  and  C_32
REMARK   11  A    between atoms: C_25  and  O_29
REMARK   12  A    between atoms: C_32  and  O_33
REMARK                            x       y       z     vdW  Elec       q    Type
REMARK                         _______ _______ _______ _____ _____    ______ ____
ROOT
ATOM      1  C   UNL     1      34.752 -17.950 -22.105  0.00  0.00    +0.037 C 
ATOM      2  C   UNL     1      33.924 -18.837 -21.417  0.00  0.00    +0.003 C 
ATOM      3  C   UNL     1      34.469 -19.715 -20.480  0.00  0.00    -0.000 C 
ATOM      4  C   UNL     1      36.124 -17.939 -21.855  0.00  0.00    +0.003 C 
ATOM      5  C   UNL     1      35.841 -19.705 -20.230  0.00  0.00    -0.000 C 
ATOM      6  C   UNL     1      36.668 -18.818 -20.918  0.00  0.00    +0.000 C 
ENDROOT
BRANCH   1   9
ATOM      7  O   UNL     1      33.793 -17.614 -24.237  0.00  0.00    -0.353 OA
ATOM      8  N   UNL     1      33.277 -16.631 -25.072  0.00  0.00    -0.071 NA
ATOM      9  C   UNL     1      34.190 -17.042 -23.075  0.00  0.00    +0.175 A 
ATOM     10  C   UNL     1      33.954 -15.699 -23.107  0.00  0.00    +0.071 A 
ATOM     11  C   UNL     1      33.383 -15.495 -24.376  0.00  0.00    +0.196 A 
BRANCH  11  13
ATOM     12  O   UNL     1      33.063 -13.944 -26.146  0.00  0.00    -0.243 OA
ATOM     13  C   UNL     1      32.933 -14.262 -24.955  0.00  0.00    +0.359 C 
BRANCH  13  14
ATOM     14  O   UNL     1      32.317 -13.401 -24.080  0.00  0.00    -0.476 OA
ATOM     15  H   UNL     1      31.994 -12.576 -24.385  0.00  0.00    +0.295 HD
ENDBRANCH  13  14
ENDBRANCH  11  13
BRANCH  10  16
ATOM     16  C   UNL     1      34.233 -14.699 -22.062  0.00  0.00    +0.169 C 
BRANCH  16  17
ATOM     17  O   UNL     1      34.220 -15.262 -20.745  0.00  0.00    -0.377 OA
ATOM     18  H   UNL     1      33.827 -16.149 -20.777  0.00  0.00    +0.211 HD
ENDBRANCH  16  17
ENDBRANCH  10  16
ENDBRANCH   1   9
BRANCH   3  19
ATOM     19  C   UNL     1      33.605 -20.640 -19.763  0.00  0.00    -0.001 C 
ATOM     20  C   UNL     1      34.007 -21.562 -18.859  0.00  0.00    +0.021 C 
BRANCH  20  21
ATOM     21  C   UNL     1      33.078 -22.482 -18.135  0.00  0.00    +0.232 C 
BRANCH  21  22
ATOM     22  O   UNL     1      33.770 -23.059 -17.036  0.00  0.00    -0.470 OA
BRANCH  22  23
ATOM     23  C   UNL     1      33.096 -23.119 -15.844  0.00  0.00    +0.148 C 
ATOM     24  C   UNL     1      33.698 -23.665 -14.716  0.00  0.00    +0.143 C 
ATOM     25  C   UNL     1      32.993 -23.717 -13.513  0.00  0.00    +0.143 C 
ATOM     26  C   UNL     1      31.798 -22.624 -15.783  0.00  0.00    +0.037 C 
ATOM     27  C   UNL     1      31.691 -23.223 -13.445  0.00  0.00    +0.037 C 
ATOM     28  C   UNL     1      31.093 -22.677 -14.581  0.00  0.00    +0.006 C 
BRANCH  25  29
ATOM     29  O   UNL     1      33.559 -24.246 -12.391  0.00  0.00    -0.505 OA
ATOM     30  H   UNL     1      34.492 -24.303 -12.319  0.00  0.00    +0.292 HD
ENDBRANCH  25  29
BRANCH  24  32
ATOM     31  O   UNL     1      35.371 -25.258 -15.309  0.00  0.00    -0.245 OA
ATOM     32  C   UNL     1      35.060 -24.182 -14.786  0.00  0.00    +0.347 C 
BRANCH  32  33
ATOM     33  O   UNL     1      35.950 -23.325 -14.201  0.00  0.00    -0.441 OA
ATOM     34  C   UNL     1      36.902 -22.697 -15.066  0.00  0.00    +0.256 C 
ENDBRANCH  32  33
ENDBRANCH  24  32
ENDBRANCH  22  23
ENDBRANCH  21  22
ENDBRANCH  20  21
ENDBRANCH   3  19
TORSDOF 12
ENDMDL
MODEL 2
REMARK VINA RESULT:     -12.2      1.731      3.766
REMARK  Name = 449162
REMARK  12 active torsions:
REMARK  status: ('A' for Active; 'I' for Inactive)
REMARK    1  A    between atoms: C_1  and  C_9
REMARK    2  A    between atoms: C_3  and  C_19
REMARK    3  A    between atoms: C_10  and  C_16
REMARK    4  A    between atoms: C_11  and  C_13
REMARK    5  A    between atoms: C_13  and  O_14
REMARK    6  A    between atoms: C_16  and  O_17
REMARK    7  A    between atoms: C_20  and  C_21
REMARK    8  A    between atoms: C_21  and  O_22
REMARK    9  A    between atoms: O_22  and  C_23
REMARK   10  A    between atoms: C_24  and  C_32
REMARK   11  A    between atoms: C_25  and  O_29
REMARK   12  A    between atoms: C_32  and  O_33
REMARK                            x       y       z     vdW  Elec       q    Type
REMARK                         _______ _______ _______ _____ _____    ______ ____
ROOT
ATOM      1  C   UNL     1      33.784 -19.758 -20.736  0.00  0.00    +0.037 C 
ATOM      2  C   UNL     1      34.935 -20.141 -20.049  0.00  0.00    +0.003 C 
ATOM      3  C   UNL     1      34.845 -21.033 -18.980  0.00  0.00    -0.000 C 
ATOM      4  C   UNL     1      32.542 -20.267 -20.356  0.00  0.00    +0.003 C 
ATOM      5  C   UNL     1      33.604 -21.542 -18.599  0.00  0.00    -0.000 C 
ATOM      6  C   UNL     1      32.453 -21.159 -19.286  0.00  0.00    +0.000 C 
ENDROOT
BRANCH   1   9
ATOM      7  O   UNL     1      33.395 -19.300 -23.020  0.00  0.00    -0.353 OA
ATOM      8  N   UNL     1      33.546 -18.316 -23.989  0.00  0.00    -0.071 NA
ATOM      9  C   UNL     1      33.875 -18.835 -21.841  0.00  0.00    +0.175 A 
ATOM     10  C   UNL     1      34.345 -17.564 -21.993  0.00  0.00    +0.071 A 
ATOM     11  C   UNL     1      34.115 -17.288 -23.352  0.00  0.00    +0.196 A 
BRANCH  11  13
ATOM     12  O   UNL     1      34.203 -15.904 -25.281  0.00  0.00    -0.243 OA
ATOM     13  C   UNL     1      34.415 -16.084 -24.073  0.00  0.00    +0.359 C 
BRANCH  13  14
ATOM     14  O   UNL     1      34.978 -15.083 -23.321  0.00  0.00    -0.476 OA
ATOM     15  H   UNL     1      34.513 -14.730 -22.588  0.00  0.00    +0.295 HD
ENDBRANCH  13  14
ENDBRANCH  11  13
BRANCH  10  16
ATOM     16  C   UNL     1      34.950 -16.689 -20.975  0.00  0.00    +0.169 C 
BRANCH  16  17
ATOM     17  O   UNL     1      34.149 -15.535 -20.694  0.00  0.00    -0.377 OA
ATOM     18  H   UNL     1      34.617 -14.737 -20.987  0.00  0.00    +0.211 HD
ENDBRANCH  16  17
ENDBRANCH  10  16
ENDBRANCH   1   9
BRANCH   3  19
ATOM     19  C   UNL     1      36.047 -21.432 -18.264  0.00  0.00    -0.001 C 
ATOM     20  C   UNL     1      36.297 -21.215 -16.953  0.00  0.00    +0.021 C 
BRANCH  20  21
ATOM     21  C   UNL     1      37.543 -21.659 -16.256  0.00  0.00    +0.232 C 
BRANCH  21  22
ATOM     22  O   UNL     1      37.190 -22.204 -14.992  0.00  0.00    -0.470 OA
BRANCH  22  23
ATOM     23  C   UNL     1      37.426 -23.541 -14.809  0.00  0.00    +0.148 C 
ATOM     24  C   UNL     1      36.372 -24.447 -14.751  0.00  0.00    +0.143 C 
ATOM     25  C   UNL     1      36.636 -25.804 -14.563  0.00  0.00    +0.143 C 
ATOM     26  C   UNL     1      38.741 -23.978 -14.680  0.00  0.00    +0.037 C 
ATOM     27  C   UNL     1      37.951 -26.248 -14.434  0.00  0.00    +0.037 C 
ATOM     28  C   UNL     1      39.004 -25.335 -14.491  0.00  0.00    +0.006 C 
BRANCH  25  29
ATOM     29  O   UNL     1      35.621 -26.713 -14.505  0.00  0.00    -0.505 OA
ATOM     30  H   UNL     1      35.771 -27.600 -14.768  0.00  0.00    +0.292 HD
ENDBRANCH  25  29
BRANCH  24  32
ATOM     31  O   UNL     1      34.441 -23.757 -15.968  0.00  0.00    -0.245 OA
ATOM     32  C   UNL     1      34.996 -23.983 -14.888  0.00  0.00    +0.347 C 
BRANCH  32  33
ATOM     33  O   UNL     1      34.399 -23.830 -13.667  0.00  0.00    -0.441 OA
ATOM     34  C   UNL     1      32.977 -23.988 -13.623  0.00  0.00    +0.256 C 
ENDBRANCH  32  33
ENDBRANCH  24  32
ENDBRANCH  22  23
ENDBRANCH  21  22
ENDBRANCH  20  21
ENDBRANCH   3  19
TORSDOF 12
ENDMDL
MODEL 3
REMARK VINA RESULT:     -12.1      2.496      3.547
REMARK  Name = 449162
REMARK  12 active torsions:
REMARK  status: ('A' for Active; 'I' for Inactive)
REMARK    1  A    between atoms: C_1  and  C_9
REMARK    2  A    between atoms: C_3  and  C_19
REMARK    3  A    between atoms: C_10  and  C_16
REMARK    4  A    between atoms: C_11  and  C_13
REMARK    5  A    between atoms: C_13  and  O_14
REMARK    6  A    between atoms: C_16  and  O_17
REMARK    7  A    between atoms: C_20  and  C_21
REMARK    8  A    between atoms: C_21  and  O_22
REMARK    9  A    between atoms: O_22  and  C_23
REMARK   10  A    between atoms: C_24  and  C_32
REMARK   11  A    between atoms: C_25  and  O_29
REMARK   12  A    between atoms: C_32  and  O_33
REMARK                            x       y       z     vdW  Elec       q    Type
REMARK                         _______ _______ _______ _____ _____    ______ ____
ROOT
ATOM      1  C   UNL     1      33.839 -19.841 -20.630  0.00  0.00    +0.037 C 
ATOM      2  C   UNL     1      34.980 -20.147 -19.889  0.00  0.00    +0.003 C 
ATOM      3  C   UNL     1      34.899 -21.037 -18.819  0.00  0.00    -0.000 C 
ATOM      4  C   UNL     1      32.616 -20.426 -20.300  0.00  0.00    +0.003 C 
ATOM      5  C   UNL     1      33.677 -21.623 -18.488  0.00  0.00    -0.000 C 
ATOM      6  C   UNL     1      32.535 -21.317 -19.229  0.00  0.00    +0.000 C 
ENDROOT
BRANCH   1   9
ATOM      7  O   UNL     1      33.435 -19.388 -22.912  0.00  0.00    -0.353 OA
ATOM      8  N   UNL     1      33.577 -18.405 -23.883  0.00  0.00    -0.071 NA
ATOM      9  C   UNL     1      33.920 -18.920 -21.737  0.00  0.00    +0.175 A 
ATOM     10  C   UNL     1      34.385 -17.647 -21.893  0.00  0.00    +0.071 A 
ATOM     11  C   UNL     1      34.147 -17.374 -23.252  0.00  0.00    +0.196 A 
BRANCH  11  13
ATOM     12  O   UNL     1      34.202 -15.987 -25.179  0.00  0.00    -0.243 OA
ATOM     13  C   UNL     1      34.438 -16.171 -23.976  0.00  0.00    +0.359 C 
BRANCH  13  14
ATOM     14  O   UNL     1      35.023 -15.175 -23.234  0.00  0.00    -0.476 OA
ATOM     15  H   UNL     1      35.018 -15.223 -22.299  0.00  0.00    +0.295 HD
ENDBRANCH  13  14
ENDBRANCH  11  13
BRANCH  10  16
ATOM     16  C   UNL     1      34.993 -16.768 -20.880  0.00  0.00    +0.169 C 
BRANCH  16  17
ATOM     17  O   UNL     1      34.186 -15.622 -20.591  0.00  0.00    -0.377 OA
ATOM     18  H   UNL     1      34.566 -15.140 -19.839  0.00  0.00    +0.211 HD
ENDBRANCH  16  17
ENDBRANCH  10  16
ENDBRANCH   1   9
BRANCH   3  19
ATOM     19  C   UNL     1      36.090 -21.356 -18.046  0.00  0.00    -0.001 C 
ATOM     20  C   UNL     1      36.121 -21.683 -16.735  0.00  0.00    +0.021 C 
BRANCH  20  21
ATOM     21  C   UNL     1      37.371 -22.018 -15.987  0.00  0.00    +0.232 C 
BRANCH  21  22
ATOM     22  O   UNL     1      37.286 -23.362 -15.533  0.00  0.00    -0.470 OA
BRANCH  22  23
ATOM     23  C   UNL     1      37.016 -23.550 -14.203  0.00  0.00    +0.148 C 
ATOM     24  C   UNL     1      37.057 -24.822 -13.644  0.00  0.00    +0.143 C 
ATOM     25  C   UNL     1      36.779 -24.990 -12.286  0.00  0.00    +0.143 C 
ATOM     26  C   UNL     1      36.700 -22.444 -13.421  0.00  0.00    +0.037 C 
ATOM     27  C   UNL     1      36.461 -23.885 -11.498  0.00  0.00    +0.037 C 
ATOM     28  C   UNL     1      36.421 -22.612 -12.065  0.00  0.00    +0.006 C 
BRANCH  25  29
ATOM     29  O   UNL     1      36.813 -26.226 -11.712  0.00  0.00    -0.505 OA
ATOM     30  H   UNL     1      37.601 -26.733 -11.737  0.00  0.00    +0.292 HD
ENDBRANCH  25  29
BRANCH  24  32
ATOM     31  O   UNL     1      36.654 -26.443 -15.345  0.00  0.00    -0.245 OA
ATOM     32  C   UNL     1      37.390 -25.978 -14.469  0.00  0.00    +0.347 C 
BRANCH  32  33
ATOM     33  O   UNL     1      38.621 -26.481 -14.149  0.00  0.00    -0.441 OA
ATOM     34  C   UNL     1      39.743 -25.618 -14.360  0.00  0.00    +0.256 C 
ENDBRANCH  32  33
ENDBRANCH  24  32
ENDBRANCH  22  23
ENDBRANCH  21  22
ENDBRANCH  20  21
ENDBRANCH   3  19
TORSDOF 12
ENDMDL
MODEL 4
REMARK VINA RESULT:     -12.1      3.173     11.122
REMARK  Name = 449162
REMARK  12 active torsions:
REMARK  status: ('A' for Active; 'I' for Inactive)
REMARK    1  A    between atoms: C_1  and  C_9
REMARK    2  A    between atoms: C_3  and  C_19
REMARK    3  A    between atoms: C_10  and  C_16
REMARK    4  A    between atoms: C_11  and  C_13
REMARK    5  A    between atoms: C_13  and  O_14
REMARK    6  A    between atoms: C_16  and  O_17
REMARK    7  A    between atoms: C_20  and  C_21
REMARK    8  A    between atoms: C_21  and  O_22
REMARK    9  A    between atoms: O_22  and  C_23
REMARK   10  A    between atoms: C_24  and  C_32
REMARK   11  A    between atoms: C_25  and  O_29
REMARK   12  A    between atoms: C_32  and  O_33
REMARK                            x       y       z     vdW  Elec       q    Type
REMARK                         _______ _______ _______ _____ _____    ______ ____
ROOT
ATOM      1  C   UNL     1      35.345 -22.500 -16.355  0.00  0.00    +0.037 C 
ATOM      2  C   UNL     1      36.024 -21.773 -17.332  0.00  0.00    +0.003 C 
ATOM      3  C   UNL     1      35.345 -21.323 -18.464  0.00  0.00    -0.000 C 
ATOM      4  C   UNL     1      33.987 -22.777 -16.509  0.00  0.00    +0.003 C 
ATOM      5  C   UNL     1      33.987 -21.600 -18.620  0.00  0.00    -0.000 C 
ATOM      6  C   UNL     1      33.308 -22.327 -17.642  0.00  0.00    +0.000 C 
ENDROOT
BRANCH   1   9
ATOM      7  O   UNL     1      36.691 -22.005 -14.478  0.00  0.00    -0.353 OA
ATOM      8  N   UNL     1      37.318 -22.591 -13.386  0.00  0.00    -0.071 NA
ATOM      9  C   UNL     1      36.046 -22.966 -15.183  0.00  0.00    +0.175 A 
ATOM     10  C   UNL     1      36.224 -24.183 -14.593  0.00  0.00    +0.071 A 
ATOM     11  C   UNL     1      37.025 -23.892 -13.475  0.00  0.00    +0.196 A 
BRANCH  11  13
ATOM     12  O   UNL     1      37.232 -24.777 -11.280  0.00  0.00    -0.243 OA
ATOM     13  C   UNL     1      37.525 -24.802 -12.485  0.00  0.00    +0.359 C 
BRANCH  13  14
ATOM     14  O   UNL     1      38.392 -25.755 -12.958  0.00  0.00    -0.476 OA
ATOM     15  H   UNL     1      38.769 -26.379 -12.370  0.00  0.00    +0.295 HD
ENDBRANCH  13  14
ENDBRANCH  11  13
BRANCH  10  16
ATOM     16  C   UNL     1      35.702 -25.490 -15.025  0.00  0.00    +0.169 C 
BRANCH  16  17
ATOM     17  O   UNL     1      36.722 -26.338 -15.566  0.00  0.00    -0.377 OA
ATOM     18  H   UNL     1      37.504 -26.311 -14.991  0.00  0.00    +0.211 HD
ENDBRANCH  16  17
ENDBRANCH  10  16
ENDBRANCH   1   9
BRANCH   3  19
ATOM     19  C   UNL     1      36.054 -20.564 -19.484  0.00  0.00    -0.001 C 
ATOM     20  C   UNL     1      35.632 -19.412 -20.051  0.00  0.00    +0.021 C 
BRANCH  20  21
ATOM     21  C   UNL     1      36.405 -18.659 -21.086  0.00  0.00    +0.232 C 
BRANCH  21  22
ATOM     22  O   UNL     1      35.644 -17.529 -21.492  0.00  0.00    -0.470 OA
BRANCH  22  23
ATOM     23  C   UNL     1      34.816 -17.697 -22.571  0.00  0.00    +0.148 C 
ATOM     24  C   UNL     1      34.195 -16.604 -23.165  0.00  0.00    +0.143 C 
ATOM     25  C   UNL     1      33.355 -16.798 -24.263  0.00  0.00    +0.143 C 
ATOM     26  C   UNL     1      34.607 -18.982 -23.061  0.00  0.00    +0.037 C 
ATOM     27  C   UNL     1      33.141 -18.084 -24.759  0.00  0.00    +0.037 C 
ATOM     28  C   UNL     1      33.767 -19.176 -24.157  0.00  0.00    +0.006 C 
BRANCH  25  29
ATOM     29  O   UNL     1      32.735 -15.744 -24.866  0.00  0.00    -0.505 OA
ATOM     30  H   UNL     1      31.859 -15.514 -24.623  0.00  0.00    +0.292 HD
ENDBRANCH  25  29
BRANCH  24  32
ATOM     31  O   UNL     1      34.647 -14.270 -23.352  0.00  0.00    -0.245 OA
ATOM     32  C   UNL     1      34.419 -15.259 -22.647  0.00  0.00    +0.347 C 
BRANCH  32  33
ATOM     33  O   UNL     1      34.344 -15.232 -21.283  0.00  0.00    -0.441 OA
ATOM     34  C   UNL     1      33.608 -14.150 -20.701  0.00  0.00    +0.256 C 
ENDBRANCH  32  33
ENDBRANCH  24  32
ENDBRANCH  22  23
ENDBRANCH  21  22
ENDBRANCH  20  21
ENDBRANCH   3  19
TORSDOF 12
ENDMDL
MODEL 5
REMARK VINA RESULT:     -12.0      2.945     10.462
REMARK  Name = 449162
REMARK  12 active torsions:
REMARK  status: ('A' for Active; 'I' for Inactive)
REMARK    1  A    between atoms: C_1  and  C_9
REMARK    2  A    between atoms: C_3  and  C_19
REMARK    3  A    between atoms: C_10  and  C_16
REMARK    4  A    between atoms: C_11  and  C_13
REMARK    5  A    between atoms: C_13  and  O_14
REMARK    6  A    between atoms: C_16  and  O_17
REMARK    7  A    between atoms: C_20  and  C_21
REMARK    8  A    between atoms: C_21  and  O_22
REMARK    9  A    between atoms: O_22  and  C_23
REMARK   10  A    between atoms: C_24  and  C_32
REMARK   11  A    between atoms: C_25  and  O_29
REMARK   12  A    between atoms: C_32  and  O_33
REMARK                            x       y       z     vdW  Elec       q    Type
REMARK                         _______ _______ _______ _____ _____    ______ ____
ROOT
ATOM      1  C   UNL     1      34.120 -22.870 -15.941  0.00  0.00    +0.037 C 
ATOM      2  C   UNL     1      33.878 -22.314 -17.198  0.00  0.00    +0.003 C 
ATOM      3  C   UNL     1      32.570 -22.071 -17.613  0.00  0.00    -0.000 C 
ATOM      4  C   UNL     1      33.052 -23.182 -15.100  0.00  0.00    +0.003 C 
ATOM      5  C   UNL     1      31.501 -22.383 -16.772  0.00  0.00    -0.000 C 
ATOM      6  C   UNL     1      31.743 -22.939 -15.516  0.00  0.00    +0.000 C 
ENDROOT
BRANCH   1   9
ATOM      7  O   UNL     1      36.292 -22.042 -15.524  0.00  0.00    -0.353 OA
ATOM      8  N   UNL     1      37.554 -22.427 -15.090  0.00  0.00    -0.071 NA
ATOM      9  C   UNL     1      35.474 -23.122 -15.510  0.00  0.00    +0.175 A 
ATOM     10  C   UNL     1      36.153 -24.222 -15.077  0.00  0.00    +0.071 A 
ATOM     11  C   UNL     1      37.447 -23.733 -14.828  0.00  0.00    +0.196 A 
BRANCH  11  13
ATOM     12  O   UNL     1      39.053 -24.382 -13.203  0.00  0.00    -0.243 OA
ATOM     13  C   UNL     1      38.589 -24.458 -14.350  0.00  0.00    +0.359 C 
BRANCH  13  14
ATOM     14  O   UNL     1      39.178 -25.287 -15.273  0.00  0.00    -0.476 OA
ATOM     15  H   UNL     1      38.787 -25.401 -16.116  0.00  0.00    +0.295 HD
ENDBRANCH  13  14
ENDBRANCH  11  13
BRANCH  10  16
ATOM     16  C   UNL     1      35.650 -25.597 -14.912  0.00  0.00    +0.169 C 
BRANCH  16  17
ATOM     17  O   UNL     1      36.412 -26.554 -15.655  0.00  0.00    -0.377 OA
ATOM     18  H   UNL     1      37.336 -26.533 -15.359  0.00  0.00    +0.211 HD
ENDBRANCH  16  17
ENDBRANCH  10  16
ENDBRANCH   1   9
BRANCH   3  19
ATOM     19  C   UNL     1      32.319 -21.492 -18.924  0.00  0.00    -0.001 C 
ATOM     20  C   UNL     1      32.979 -20.444 -19.467  0.00  0.00    +0.021 C 
BRANCH  20  21
ATOM     21  C   UNL     1      32.695 -19.893 -20.827  0.00  0.00    +0.232 C 
BRANCH  21  22
ATOM     22  O   UNL     1      33.930 -19.626 -21.479  0.00  0.00    -0.470 OA
BRANCH  22  23
ATOM     23  C   UNL     1      33.912 -18.683 -22.473  0.00  0.00    +0.148 C 
ATOM     24  C   UNL     1      34.427 -17.410 -22.253  0.00  0.00    +0.143 C 
ATOM     25  C   UNL     1      34.399 -16.466 -23.280  0.00  0.00    +0.143 C 
ATOM     26  C   UNL     1      33.368 -19.022 -23.708  0.00  0.00    +0.037 C 
ATOM     27  C   UNL     1      33.855 -16.800 -24.520  0.00  0.00    +0.037 C 
ATOM     28  C   UNL     1      33.340 -18.078 -24.734  0.00  0.00    +0.006 C 
BRANCH  25  29
ATOM     29  O   UNL     1      34.898 -15.211 -23.092  0.00  0.00    -0.505 OA
ATOM     30  H   UNL     1      35.508 -15.048 -22.400  0.00  0.00    +0.292 HD
ENDBRANCH  25  29
BRANCH  24  32
ATOM     31  O   UNL     1      34.569 -16.159 -20.229  0.00  0.00    -0.245 OA
ATOM     32  C   UNL     1      34.996 -17.061 -20.956  0.00  0.00    +0.347 C 
BRANCH  32  33
ATOM     33  O   UNL     1      36.062 -17.859 -20.649  0.00  0.00    -0.441 OA
ATOM     34  C   UNL     1      36.951 -18.188 -21.722  0.00  0.00    +0.256 C 
ENDBRANCH  32  33
ENDBRANCH  24  32
ENDBRANCH  22  23
ENDBRANCH  21  22
ENDBRANCH  20  21
ENDBRANCH   3  19
TORSDOF 12
ENDMDL
MODEL 6
REMARK VINA RESULT:     -11.9      1.297      2.465
REMARK  Name = 449162
REMARK  12 active torsions:
REMARK  status: ('A' for Active; 'I' for Inactive)
REMARK    1  A    between atoms: C_1  and  C_9
REMARK    2  A    between atoms: C_3  and  C_19
REMARK    3  A    between atoms: C_10  and  C_16
REMARK    4  A    between atoms: C_11  and  C_13
REMARK    5  A    between atoms: C_13  and  O_14
REMARK    6  A    between atoms: C_16  and  O_17
REMARK    7  A    between atoms: C_20  and  C_21
REMARK    8  A    between atoms: C_21  and  O_22
REMARK    9  A    between atoms: O_22  and  C_23
REMARK   10  A    between atoms: C_24  and  C_32
REMARK   11  A    between atoms: C_25  and  O_29
REMARK   12  A    between atoms: C_32  and  O_33
REMARK                            x       y       z     vdW  Elec       q    Type
REMARK                         _______ _______ _______ _____ _____    ______ ____
ROOT
ATOM      1  C   UNL     1      34.710 -17.994 -22.072  0.00  0.00    +0.037 C 
ATOM      2  C   UNL     1      33.890 -18.933 -21.448  0.00  0.00    +0.003 C 
ATOM      3  C   UNL     1      34.421 -19.798 -20.492  0.00  0.00    -0.000 C 
ATOM      4  C   UNL     1      36.063 -17.919 -21.740  0.00  0.00    +0.003 C 
ATOM      5  C   UNL     1      35.774 -19.724 -20.159  0.00  0.00    -0.000 C 
ATOM      6  C   UNL     1      36.594 -18.785 -20.783  0.00  0.00    +0.000 C 
ENDROOT
BRANCH   1   9
ATOM      7  O   UNL     1      33.737 -17.693 -24.203  0.00  0.00    -0.353 OA
ATOM      8  N   UNL     1      33.238 -16.720 -25.060  0.00  0.00    -0.071 NA
ATOM      9  C   UNL     1      34.162 -17.098 -23.062  0.00  0.00    +0.175 A 
ATOM     10  C   UNL     1      33.962 -15.751 -23.130  0.00  0.00    +0.071 A 
ATOM     11  C   UNL     1      33.382 -15.568 -24.397  0.00  0.00    +0.196 A 
BRANCH  11  13
ATOM     12  O   UNL     1      33.121 -14.042 -26.199  0.00  0.00    -0.243 OA
ATOM     13  C   UNL     1      32.958 -14.340 -25.007  0.00  0.00    +0.359 C 
BRANCH  13  14
ATOM     14  O   UNL     1      32.329 -13.460 -24.161  0.00  0.00    -0.476 OA
ATOM     15  H   UNL     1      32.825 -12.990 -23.521  0.00  0.00    +0.295 HD
ENDBRANCH  13  14
ENDBRANCH  11  13
BRANCH  10  16
ATOM     16  C   UNL     1      34.278 -14.730 -22.116  0.00  0.00    +0.169 C 
BRANCH  16  17
ATOM     17  O   UNL     1      33.119 -14.285 -21.403  0.00  0.00    -0.377 OA
ATOM     18  H   UNL     1      32.322 -14.513 -21.907  0.00  0.00    +0.211 HD
ENDBRANCH  16  17
ENDBRANCH  10  16
ENDBRANCH   1   9
BRANCH   3  19
ATOM     19  C   UNL     1      33.564 -20.777 -19.841  0.00  0.00    -0.001 C 
ATOM     20  C   UNL     1      33.934 -21.619 -18.850  0.00  0.00    +0.021 C 
BRANCH  20  21
ATOM     21  C   UNL     1      33.011 -22.600 -18.201  0.00  0.00    +0.232 C 
BRANCH  21  22
ATOM     22  O   UNL     1      32.689 -22.131 -16.898  0.00  0.00    -0.470 OA
BRANCH  22  23
ATOM     23  C   UNL     1      33.238 -22.811 -15.843  0.00  0.00    +0.148 C 
ATOM     24  C   UNL     1      32.439 -23.267 -14.800  0.00  0.00    +0.143 C 
ATOM     25  C   UNL     1      33.020 -23.958 -13.735  0.00  0.00    +0.143 C 
ATOM     26  C   UNL     1      34.610 -23.038 -15.834  0.00  0.00    +0.037 C 
ATOM     27  C   UNL     1      34.396 -24.188 -13.720  0.00  0.00    +0.037 C 
ATOM     28  C   UNL     1      35.190 -23.728 -14.770  0.00  0.00    +0.006 C 
BRANCH  25  29
ATOM     29  O   UNL     1      32.261 -24.416 -12.700  0.00  0.00    -0.505 OA
ATOM     30  H   UNL     1      31.621 -25.084 -12.848  0.00  0.00    +0.292 HD
ENDBRANCH  25  29
BRANCH  24  32
ATOM     31  O   UNL     1      30.439 -22.122 -14.188  0.00  0.00    -0.245 OA
ATOM     32  C   UNL     1      31.001 -23.027 -14.815  0.00  0.00    +0.347 C 
BRANCH  32  33
ATOM     33  O   UNL     1      30.353 -23.929 -15.612  0.00  0.00    -0.441 OA
ATOM     34  C   UNL     1      29.598 -24.948 -14.948  0.00  0.00    +0.256 C 
ENDBRANCH  32  33
ENDBRANCH  24  32
ENDBRANCH  22  23
ENDBRANCH  21  22
ENDBRANCH  20  21
ENDBRANCH   3  19
TORSDOF 12
ENDMDL
MODEL 7
REMARK VINA RESULT:     -11.7      2.168      3.907
REMARK  Name = 449162
REMARK  12 active torsions:
REMARK  status: ('A' for Active; 'I' for Inactive)
REMARK    1  A    between atoms: C_1  and  C_9
REMARK    2  A    between atoms: C_3  and  C_19
REMARK    3  A    between atoms: C_10  and  C_16
REMARK    4  A    between atoms: C_11  and  C_13
REMARK    5  A    between atoms: C_13  and  O_14
REMARK    6  A    between atoms: C_16  and  O_17
REMARK    7  A    between atoms: C_20  and  C_21
REMARK    8  A    between atoms: C_21  and  O_22
REMARK    9  A    between atoms: O_22  and  C_23
REMARK   10  A    between atoms: C_24  and  C_32
REMARK   11  A    between atoms: C_25  and  O_29
REMARK   12  A    between atoms: C_32  and  O_33
REMARK                            x       y       z     vdW  Elec       q    Type
REMARK                         _______ _______ _______ _____ _____    ______ ____
ROOT
ATOM      1  C   UNL     1      33.694 -15.977 -23.623  0.00  0.00    +0.037 C 
ATOM      2  C   UNL     1      34.457 -16.472 -22.565  0.00  0.00    +0.003 C 
ATOM      3  C   UNL     1      34.721 -17.838 -22.475  0.00  0.00    -0.000 C 
ATOM      4  C   UNL     1      33.196 -16.849 -24.591  0.00  0.00    +0.003 C 
ATOM      5  C   UNL     1      34.223 -18.711 -23.443  0.00  0.00    -0.000 C 
ATOM      6  C   UNL     1      33.460 -18.216 -24.500  0.00  0.00    +0.000 C 
ENDROOT
BRANCH   1   9
ATOM      7  O   UNL     1      33.119 -14.118 -24.961  0.00  0.00    -0.353 OA
ATOM      8  N   UNL     1      32.881 -12.751 -24.905  0.00  0.00    -0.071 NA
ATOM      9  C   UNL     1      33.420 -14.564 -23.717  0.00  0.00    +0.175 A 
ATOM     10  C   UNL     1      33.390 -13.531 -22.827  0.00  0.00    +0.071 A 
ATOM     11  C   UNL     1      33.048 -12.422 -23.620  0.00  0.00    +0.196 A 
BRANCH  11  13
ATOM     12  O   UNL     1      33.623 -10.120 -23.510  0.00  0.00    -0.243 OA
ATOM     13  C   UNL     1      32.873 -11.060 -23.207  0.00  0.00    +0.359 C 
BRANCH  13  14
ATOM     14  O   UNL     1      31.774 -10.831 -22.416  0.00  0.00    -0.476 OA
ATOM     15  H   UNL     1      31.304 -11.552 -22.048  0.00  0.00    +0.295 HD
ENDBRANCH  13  14
ENDBRANCH  11  13
BRANCH  10  16
ATOM     16  C   UNL     1      33.655 -13.569 -21.379  0.00  0.00    +0.169 C 
BRANCH  16  17
ATOM     17  O   UNL     1      32.473 -13.360 -20.598  0.00  0.00    -0.377 OA
ATOM     18  H   UNL     1      31.740 -13.107 -21.181  0.00  0.00    +0.211 HD
ENDBRANCH  16  17
ENDBRANCH  10  16
ENDBRANCH   1   9
BRANCH   3  19
ATOM     19  C   UNL     1      35.517 -18.354 -21.372  0.00  0.00    -0.001 C 
ATOM     20  C   UNL     1      35.277 -19.493 -20.685  0.00  0.00    +0.021 C 
BRANCH  20  21
ATOM     21  C   UNL     1      36.134 -19.991 -19.566  0.00  0.00    +0.232 C 
BRANCH  21  22
ATOM     22  O   UNL     1      35.777 -21.336 -19.279  0.00  0.00    -0.470 OA
BRANCH  22  23
ATOM     23  C   UNL     1      35.532 -21.644 -17.967  0.00  0.00    +0.148 C 
ATOM     24  C   UNL     1      34.328 -22.229 -17.588  0.00  0.00    +0.143 C 
ATOM     25  C   UNL     1      34.100 -22.534 -16.246  0.00  0.00    +0.143 C 
ATOM     26  C   UNL     1      36.508 -21.359 -17.018  0.00  0.00    +0.037 C 
ATOM     27  C   UNL     1      35.075 -22.251 -15.290  0.00  0.00    +0.037 C 
ATOM     28  C   UNL     1      36.279 -21.663 -15.676  0.00  0.00    +0.006 C 
BRANCH  25  29
ATOM     29  O   UNL     1      32.930 -23.110 -15.847  0.00  0.00    -0.505 OA
ATOM     30  H   UNL     1      32.944 -23.889 -15.326  0.00  0.00    +0.292 HD
ENDBRANCH  25  29
BRANCH  24  32
ATOM     31  O   UNL     1      33.394 -23.432 -19.423  0.00  0.00    -0.245 OA
ATOM     32  C   UNL     1      33.308 -22.526 -18.588  0.00  0.00    +0.347 C 
BRANCH  32  33
ATOM     33  O   UNL     1      32.244 -21.674 -18.481  0.00  0.00    -0.441 OA
ATOM     34  C   UNL     1      32.209 -20.572 -19.394  0.00  0.00    +0.256 C 
ENDBRANCH  32  33
ENDBRANCH  24  32
ENDBRANCH  22  23
ENDBRANCH  21  22
ENDBRANCH  20  21
ENDBRANCH   3  19
TORSDOF 12
ENDMDL
MODEL 8
REMARK VINA RESULT:     -11.6      4.465     11.786
REMARK  Name = 449162
REMARK  12 active torsions:
REMARK  status: ('A' for Active; 'I' for Inactive)
REMARK    1  A    between atoms: C_1  and  C_9
REMARK    2  A    between atoms: C_3  and  C_19
REMARK    3  A    between atoms: C_10  and  C_16
REMARK    4  A    between atoms: C_11  and  C_13
REMARK    5  A    between atoms: C_13  and  O_14
REMARK    6  A    between atoms: C_16  and  O_17
REMARK    7  A    between atoms: C_20  and  C_21
REMARK    8  A    between atoms: C_21  and  O_22
REMARK    9  A    between atoms: O_22  and  C_23
REMARK   10  A    between atoms: C_24  and  C_32
REMARK   11  A    between atoms: C_25  and  O_29
REMARK   12  A    between atoms: C_32  and  O_33
REMARK                            x       y       z     vdW  Elec       q    Type
REMARK                         _______ _______ _______ _____ _____    ______ ____
ROOT
ATOM      1  C   UNL     1      34.495 -17.199 -22.480  0.00  0.00    +0.037 C 
ATOM      2  C   UNL     1      34.448 -15.836 -22.190  0.00  0.00    +0.003 C 
ATOM      3  C   UNL     1      33.951 -14.939 -23.135  0.00  0.00    -0.000 C 
ATOM      4  C   UNL     1      34.046 -17.666 -23.716  0.00  0.00    +0.003 C 
ATOM      5  C   UNL     1      33.502 -15.404 -24.371  0.00  0.00    -0.000 C 
ATOM      6  C   UNL     1      33.550 -16.767 -24.661  0.00  0.00    +0.000 C 
ENDROOT
BRANCH   1   9
ATOM      7  O   UNL     1      36.283 -17.899 -21.104  0.00  0.00    -0.353 OA
ATOM      8  N   UNL     1      36.644 -18.862 -20.171  0.00  0.00    -0.071 NA
ATOM      9  C   UNL     1      35.009 -18.129 -21.504  0.00  0.00    +0.175 A 
ATOM     10  C   UNL     1      34.505 -19.223 -20.863  0.00  0.00    +0.071 A 
ATOM     11  C   UNL     1      35.567 -19.642 -20.043  0.00  0.00    +0.196 A 
BRANCH  11  13
ATOM     12  O   UNL     1      35.061 -21.854 -19.341  0.00  0.00    -0.243 OA
ATOM     13  C   UNL     1      35.599 -20.756 -19.139  0.00  0.00    +0.359 C 
BRANCH  13  14
ATOM     14  O   UNL     1      36.293 -20.537 -17.975  0.00  0.00    -0.476 OA
ATOM     15  H   UNL     1      36.153 -21.094 -17.235  0.00  0.00    +0.295 HD
ENDBRANCH  13  14
ENDBRANCH  11  13
BRANCH  10  16
ATOM     16  C   UNL     1      33.167 -19.822 -21.000  0.00  0.00    +0.169 C 
BRANCH  16  17
ATOM     17  O   UNL     1      32.575 -20.142 -19.736  0.00  0.00    -0.377 OA
ATOM     18  H   UNL     1      32.536 -21.106 -19.631  0.00  0.00    +0.211 HD
ENDBRANCH  16  17
ENDBRANCH  10  16
ENDBRANCH   1   9
BRANCH   3  19
ATOM     19  C   UNL     1      33.902 -13.517 -22.832  0.00  0.00    -0.001 C 
ATOM     20  C   UNL     1      33.237 -12.577 -23.541  0.00  0.00    +0.021 C 
BRANCH  20  21
ATOM     21  C   UNL     1      33.203 -11.127 -23.180  0.00  0.00    +0.232 C 
BRANCH  21  22
ATOM     22  O   UNL     1      31.861 -10.758 -22.895  0.00  0.00    -0.470 OA
BRANCH  22  23
ATOM     23  C   UNL     1      31.649 -10.026 -21.756  0.00  0.00    +0.148 C 
ATOM     24  C   UNL     1      31.711  -8.637 -21.783  0.00  0.00    +0.143 C 
ATOM     25  C   UNL     1      31.493  -7.912 -20.611  0.00  0.00    +0.143 C 
ATOM     26  C   UNL     1      31.371 -10.698 -20.570  0.00  0.00    +0.037 C 
ATOM     27  C   UNL     1      31.214  -8.580 -19.419  0.00  0.00    +0.037 C 
ATOM     28  C   UNL     1      31.153  -9.973 -19.399  0.00  0.00    +0.006 C 
BRANCH  25  29
ATOM     29  O   UNL     1      31.546  -6.550 -20.610  0.00  0.00    -0.505 OA
ATOM     30  H   UNL     1      31.955  -6.096 -21.320  0.00  0.00    +0.292 HD
ENDBRANCH  25  29
BRANCH  24  32
ATOM     31  O   UNL     1      31.178  -7.745 -23.929  0.00  0.00    -0.245 OA
ATOM     32  C   UNL     1      32.003  -7.938 -23.030  0.00  0.00    +0.347 C 
BRANCH  32  33
ATOM     33  O   UNL     1      33.305  -7.523 -23.076  0.00  0.00    -0.441 OA
ATOM     34  C   UNL     1      33.532  -6.159 -23.446  0.00  0.00    +0.256 C 
ENDBRANCH  32  33
ENDBRANCH  24  32
ENDBRANCH  22  23
ENDBRANCH  21  22
ENDBRANCH  20  21
ENDBRANCH   3  19
TORSDOF 12
ENDMDL
MODEL 9
REMARK VINA RESULT:     -11.5      1.800      3.474
REMARK  Name = 449162
REMARK  12 active torsions:
REMARK  status: ('A' for Active; 'I' for Inactive)
REMARK    1  A    between atoms: C_1  and  C_9
REMARK    2  A    between atoms: C_3  and  C_19
REMARK    3  A    between atoms: C_10  and  C_16
REMARK    4  A    between atoms: C_11  and  C_13
REMARK    5  A    between atoms: C_13  and  O_14
REMARK    6  A    between atoms: C_16  and  O_17
REMARK    7  A    between atoms: C_20  and  C_21
REMARK    8  A    between atoms: C_21  and  O_22
REMARK    9  A    between atoms: O_22  and  C_23
REMARK   10  A    between atoms: C_24  and  C_32
REMARK   11  A    between atoms: C_25  and  O_29
REMARK   12  A    between atoms: C_32  and  O_33
REMARK                            x       y       z     vdW  Elec       q    Type
REMARK                         _______ _______ _______ _____ _____    ______ ____
ROOT
ATOM      1  C   UNL     1      34.363 -16.636 -22.379  0.00  0.00    +0.037 C 
ATOM      2  C   UNL     1      34.957 -17.279 -21.293  0.00  0.00    +0.003 C 
ATOM      3  C   UNL     1      35.257 -18.638 -21.366  0.00  0.00    -0.000 C 
ATOM      4  C   UNL     1      34.071 -17.353 -23.540  0.00  0.00    +0.003 C 
ATOM      5  C   UNL     1      34.964 -19.357 -22.526  0.00  0.00    -0.000 C 
ATOM      6  C   UNL     1      34.371 -18.714 -23.612  0.00  0.00    +0.000 C 
ENDROOT
BRANCH   1   9
ATOM      7  O   UNL     1      34.189 -14.673 -21.078  0.00  0.00    -0.353 OA
ATOM      8  N   UNL     1      33.859 -13.326 -21.152  0.00  0.00    -0.071 NA
ATOM      9  C   UNL     1      34.052 -15.229 -22.306  0.00  0.00    +0.175 A 
ATOM     10  C   UNL     1      33.639 -14.290 -23.204  0.00  0.00    +0.071 A 
ATOM     11  C   UNL     1      33.534 -13.120 -22.432  0.00  0.00    +0.196 A 
BRANCH  11  13
ATOM     12  O   UNL     1      32.167 -11.177 -22.419  0.00  0.00    -0.243 OA
ATOM     13  C   UNL     1      33.136 -11.810 -22.862  0.00  0.00    +0.359 C 
BRANCH  13  14
ATOM     14  O   UNL     1      33.924 -11.257 -23.842  0.00  0.00    -0.476 OA
ATOM     15  H   UNL     1      34.822 -11.059 -23.664  0.00  0.00    +0.295 HD
ENDBRANCH  13  14
ENDBRANCH  11  13
BRANCH  10  16
ATOM     16  C   UNL     1      33.366 -14.462 -24.641  0.00  0.00    +0.169 C 
BRANCH  16  17
ATOM     17  O   UNL     1      32.229 -13.710 -25.079  0.00  0.00    -0.377 OA
ATOM     18  H   UNL     1      31.557 -14.315 -25.432  0.00  0.00    +0.211 HD
ENDBRANCH  16  17
ENDBRANCH  10  16
ENDBRANCH   1   9
BRANCH   3  19
ATOM     19  C   UNL     1      35.875 -19.308 -20.232  0.00  0.00    -0.001 C 
ATOM     20  C   UNL     1      35.486 -20.488 -19.699  0.00  0.00    +0.021 C 
BRANCH  20  21
ATOM     21  C   UNL     1      36.164 -21.145 -18.541  0.00  0.00    +0.232 C 
BRANCH  21  22
ATOM     22  O   UNL     1      35.215 -21.332 -17.500  0.00  0.00    -0.470 OA
BRANCH  22  23
ATOM     23  C   UNL     1      35.591 -22.137 -16.457  0.00  0.00    +0.148 C 
ATOM     24  C   UNL     1      34.683 -23.015 -15.875  0.00  0.00    +0.143 C 
ATOM     25  C   UNL     1      35.087 -23.826 -14.814  0.00  0.00    +0.143 C 
ATOM     26  C   UNL     1      36.899 -22.061 -15.990  0.00  0.00    +0.037 C 
ATOM     27  C   UNL     1      36.397 -23.754 -14.341  0.00  0.00    +0.037 C 
ATOM     28  C   UNL     1      37.303 -22.871 -14.929  0.00  0.00    +0.006 C 
BRANCH  25  29
ATOM     29  O   UNL     1      34.218 -24.695 -14.226  0.00  0.00    -0.505 OA
ATOM     30  H   UNL     1      34.235 -24.819 -13.297  0.00  0.00    +0.292 HD
ENDBRANCH  25  29
BRANCH  24  32
ATOM     31  O   UNL     1      33.005 -23.402 -17.525  0.00  0.00    -0.245 OA
ATOM     32  C   UNL     1      33.312 -23.090 -16.370  0.00  0.00    +0.347 C 
BRANCH  32  33
ATOM     33  O   UNL     1      32.412 -22.772 -15.392  0.00  0.00    -0.441 OA
ATOM     34  C   UNL     1      31.045 -22.640 -15.795  0.00  0.00    +0.256 C 
ENDBRANCH  32  33
ENDBRANCH  24  32
ENDBRANCH  22  23
ENDBRANCH  21  22
ENDBRANCH  20  21
ENDBRANCH   3  19
TORSDOF 12
ENDMDL
