MODEL 1
REMARK VINA RESULT:     -11.6      0.000      0.000
REMARK  Name = 135435181
REMARK  5 active torsions:
REMARK  status: ('A' for Active; 'I' for Inactive)
REMARK    1  A    between atoms: N_3  and  C_28
REMARK    2  A    between atoms: C_7  and  C_18
REMARK    3  A    between atoms: C_8  and  O_26
REMARK    4  A    between atoms: C_28  and  C_29
REMARK    5  A    between atoms: C_29  and  C_30
REMARK                            x       y       z     vdW  Elec       q    Type
REMARK                         _______ _______ _______ _____ _____    ______ ____
ROOT
ATOM      1  F   UNL     1      27.935 -24.713 -13.685  0.00  0.00    -0.204 F 
ATOM      2  O   UNL     1      34.663 -22.392 -16.477  0.00  0.00    -0.267 OA
ATOM      3  N   UNL     1      32.364 -22.684 -16.407  0.00  0.00    -0.295 N 
ATOM      4  C   UNL     1      31.223 -23.199 -15.720  0.00  0.00    +0.065 A 
ATOM      5  C   UNL     1      33.659 -22.825 -15.908  0.00  0.00    +0.267 A 
ATOM      6  C   UNL     1      31.403 -23.873 -14.501  0.00  0.00    +0.052 A 
ATOM      7  C   UNL     1      33.830 -23.547 -14.603  0.00  0.00    +0.123 A 
ATOM      8  C   UNL     1      32.760 -24.038 -13.950  0.00  0.00    +0.142 A 
ATOM      9  C   UNL     1      29.921 -23.050 -16.232  0.00  0.00    +0.020 C 
ATOM     10  C   UNL     1      30.276 -24.380 -13.825  0.00  0.00    +0.034 C 
ATOM     11  C   UNL     1      28.815 -23.557 -15.550  0.00  0.00    +0.031 C 
ATOM     12  C   UNL     1      28.992 -24.223 -14.346  0.00  0.00    +0.140 C 
ENDROOT
BRANCH   7  18
ATOM     13  S   UNL     1      36.784 -23.388 -12.052  0.00  0.00    +0.103 S 
ATOM     14  O   UNL     1      36.665 -24.335 -10.958  0.00  0.00    -0.146 OA
ATOM     15  O   UNL     1      37.280 -22.045 -11.813  0.00  0.00    -0.146 OA
ATOM     16  N   UNL     1      36.165 -24.269 -14.859  0.00  0.00    -0.295 N 
ATOM     17  N   UNL     1      35.354 -23.292 -12.822  0.00  0.00    -0.112 NA
ATOM     18  C   UNL     1      35.190 -23.706 -14.053  0.00  0.00    +0.161 C 
ATOM     19  C   UNL     1      37.487 -24.474 -14.455  0.00  0.00    +0.069 C 
ATOM     20  C   UNL     1      37.925 -24.117 -13.181  0.00  0.00    +0.143 C 
ATOM     21  C   UNL     1      38.418 -25.051 -15.328  0.00  0.00    +0.016 C 
ATOM     22  C   UNL     1      39.241 -24.317 -12.763  0.00  0.00    +0.022 C 
ATOM     23  C   UNL     1      39.740 -25.260 -14.926  0.00  0.00    +0.001 C 
ATOM     24  C   UNL     1      40.151 -24.892 -13.646  0.00  0.00    +0.001 C 
ATOM     25  H   UNL     1      35.913 -24.538 -15.771  0.00  0.00    +0.154 HD
ENDBRANCH   7  18
BRANCH   8  26
ATOM     26  O   UNL     1      32.802 -24.720 -12.752  0.00  0.00    -0.505 OA
ATOM     27  H   UNL     1      32.529 -25.616 -12.712  0.00  0.00    +0.292 HD
ENDBRANCH   8  26
BRANCH   3  28
ATOM     28  C   UNL     1      32.168 -21.986 -17.677  0.00  0.00    +0.109 C 
BRANCH  28  29
ATOM     29  C   UNL     1      33.347 -22.171 -18.626  0.00  0.00    +0.025 C 
BRANCH  29  30
ATOM     30  C   UNL     1      33.969 -20.872 -19.041  0.00  0.00    +0.002 C 
ATOM     31  C   UNL     1      34.855 -20.811 -20.255  0.00  0.00    +0.000 C 
ATOM     32  C   UNL     1      33.496 -20.170 -20.283  0.00  0.00    +0.000 C 
ENDBRANCH  29  30
ENDBRANCH  28  29
ENDBRANCH   3  28
TORSDOF 5
ENDMDL
MODEL 2
REMARK VINA RESULT:     -11.3      3.003      5.261
REMARK  Name = 135435181
REMARK  5 active torsions:
REMARK  status: ('A' for Active; 'I' for Inactive)
REMARK    1  A    between atoms: N_3  and  C_28
REMARK    2  A    between atoms: C_7  and  C_18
REMARK    3  A    between atoms: C_8  and  O_26
REMARK    4  A    between atoms: C_28  and  C_29
REMARK    5  A    between atoms: C_29  and  C_30
REMARK                            x       y       z     vdW  Elec       q    Type
REMARK                         _______ _______ _______ _____ _____    ______ ____
ROOT
ATOM      1  F   UNL     1      34.891 -19.423 -21.429  0.00  0.00    -0.204 F 
ATOM      2  O   UNL     1      32.579 -23.371 -15.304  0.00  0.00    -0.267 OA
ATOM      3  N   UNL     1      32.374 -22.203 -17.297  0.00  0.00    -0.295 N 
ATOM      4  C   UNL     1      33.006 -21.489 -18.359  0.00  0.00    +0.065 A 
ATOM      5  C   UNL     1      33.095 -22.750 -16.236  0.00  0.00    +0.267 A 
ATOM      6  C   UNL     1      34.401 -21.328 -18.342  0.00  0.00    +0.052 A 
ATOM      7  C   UNL     1      34.585 -22.568 -16.236  0.00  0.00    +0.123 A 
ATOM      8  C   UNL     1      35.189 -21.894 -17.233  0.00  0.00    +0.142 A 
ATOM      9  C   UNL     1      32.269 -20.943 -19.426  0.00  0.00    +0.020 C 
ATOM     10  C   UNL     1      35.023 -20.624 -19.392  0.00  0.00    +0.034 C 
ATOM     11  C   UNL     1      32.900 -20.249 -20.459  0.00  0.00    +0.031 C 
ATOM     12  C   UNL     1      34.277 -20.089 -20.442  0.00  0.00    +0.140 C 
ENDROOT
BRANCH   7  18
ATOM     13  S   UNL     1      37.442 -24.485 -14.386  0.00  0.00    +0.103 S 
ATOM     14  O   UNL     1      38.718 -23.791 -14.399  0.00  0.00    -0.146 OA
ATOM     15  O   UNL     1      37.386 -25.926 -14.555  0.00  0.00    -0.146 OA
ATOM     16  N   UNL     1      34.916 -22.952 -13.831  0.00  0.00    -0.295 N 
ATOM     17  N   UNL     1      36.453 -23.788 -15.474  0.00  0.00    -0.112 NA
ATOM     18  C   UNL     1      35.371 -23.140 -15.125  0.00  0.00    +0.161 C 
ATOM     19  C   UNL     1      35.570 -23.442 -12.697  0.00  0.00    +0.069 C 
ATOM     20  C   UNL     1      36.753 -24.172 -12.794  0.00  0.00    +0.143 C 
ATOM     21  C   UNL     1      35.049 -23.209 -11.418  0.00  0.00    +0.016 C 
ATOM     22  C   UNL     1      37.417 -24.665 -11.671  0.00  0.00    +0.022 C 
ATOM     23  C   UNL     1      35.701 -23.696 -10.282  0.00  0.00    +0.001 C 
ATOM     24  C   UNL     1      36.883 -24.424 -10.409  0.00  0.00    +0.001 C 
ATOM     25  H   UNL     1      34.083 -22.445 -13.702  0.00  0.00    +0.154 HD
ENDBRANCH   7  18
BRANCH   8  26
ATOM     26  O   UNL     1      36.545 -21.663 -17.331  0.00  0.00    -0.505 OA
ATOM     27  H   UNL     1      37.154 -22.354 -17.152  0.00  0.00    +0.292 HD
ENDBRANCH   8  26
BRANCH   3  28
ATOM     28  C   UNL     1      30.921 -22.365 -17.321  0.00  0.00    +0.109 C 
BRANCH  28  29
ATOM     29  C   UNL     1      30.283 -22.063 -15.970  0.00  0.00    +0.025 C 
BRANCH  29  30
ATOM     30  C   UNL     1      29.042 -22.866 -15.720  0.00  0.00    +0.002 C 
ATOM     31  C   UNL     1      27.753 -22.177 -15.366  0.00  0.00    +0.000 C 
ATOM     32  C   UNL     1      27.909 -22.834 -16.708  0.00  0.00    +0.000 C 
ENDBRANCH  29  30
ENDBRANCH  28  29
ENDBRANCH   3  28
TORSDOF 5
ENDMDL
MODEL 3
REMARK VINA RESULT:     -11.1      2.447      4.644
REMARK  Name = 135435181
REMARK  5 active torsions:
REMARK  status: ('A' for Active; 'I' for Inactive)
REMARK    1  A    between atoms: N_3  and  C_28
REMARK    2  A    between atoms: C_7  and  C_18
REMARK    3  A    between atoms: C_8  and  O_26
REMARK    4  A    between atoms: C_28  and  C_29
REMARK    5  A    between atoms: C_29  and  C_30
REMARK                            x       y       z     vdW  Elec       q    Type
REMARK                         _______ _______ _______ _____ _____    ______ ____
ROOT
ATOM      1  F   UNL     1      34.368 -19.466 -21.301  0.00  0.00    -0.204 F 
ATOM      2  O   UNL     1      32.910 -23.592 -15.033  0.00  0.00    -0.267 OA
ATOM      3  N   UNL     1      32.440 -22.424 -16.981  0.00  0.00    -0.295 N 
ATOM      4  C   UNL     1      32.922 -21.666 -18.090  0.00  0.00    +0.065 A 
ATOM      5  C   UNL     1      33.294 -22.934 -16.002  0.00  0.00    +0.267 A 
ATOM      6  C   UNL     1      34.299 -21.419 -18.207  0.00  0.00    +0.052 A 
ATOM      7  C   UNL     1      34.763 -22.660 -16.145  0.00  0.00    +0.123 A 
ATOM      8  C   UNL     1      35.225 -21.944 -17.187  0.00  0.00    +0.142 A 
ATOM      9  C   UNL     1      32.052 -21.158 -19.073  0.00  0.00    +0.020 C 
ATOM     10  C   UNL     1      34.772 -20.670 -19.303  0.00  0.00    +0.034 C 
ATOM     11  C   UNL     1      32.535 -20.419 -20.153  0.00  0.00    +0.031 C 
ATOM     12  C   UNL     1      33.896 -20.175 -20.268  0.00  0.00    +0.140 C 
ENDROOT
BRANCH   7  18
ATOM     13  S   UNL     1      36.145 -23.656 -12.630  0.00  0.00    +0.103 S 
ATOM     14  O   UNL     1      35.473 -24.800 -12.038  0.00  0.00    -0.146 OA
ATOM     15  O   UNL     1      36.530 -22.522 -11.809  0.00  0.00    -0.146 OA
ATOM     16  N   UNL     1      36.900 -23.712 -15.539  0.00  0.00    -0.295 N 
ATOM     17  N   UNL     1      35.262 -23.120 -13.887  0.00  0.00    -0.112 NA
ATOM     18  C   UNL     1      35.687 -23.191 -15.123  0.00  0.00    +0.161 C 
ATOM     19  C   UNL     1      37.857 -24.244 -14.671  0.00  0.00    +0.069 C 
ATOM     20  C   UNL     1      37.651 -24.288 -13.294  0.00  0.00    +0.143 C 
ATOM     21  C   UNL     1      39.064 -24.755 -15.167  0.00  0.00    +0.016 C 
ATOM     22  C   UNL     1      38.596 -24.818 -12.416  0.00  0.00    +0.022 C 
ATOM     23  C   UNL     1      40.022 -25.290 -14.302  0.00  0.00    +0.001 C 
ATOM     24  C   UNL     1      39.789 -25.321 -12.928  0.00  0.00    +0.001 C 
ATOM     25  H   UNL     1      37.102 -23.705 -16.502  0.00  0.00    +0.154 HD
ENDBRANCH   7  18
BRANCH   8  26
ATOM     26  O   UNL     1      36.548 -21.629 -17.413  0.00  0.00    -0.505 OA
ATOM     27  H   UNL     1      36.789 -21.124 -18.165  0.00  0.00    +0.292 HD
ENDBRANCH   8  26
BRANCH   3  28
ATOM     28  C   UNL     1      31.005 -22.675 -16.865  0.00  0.00    +0.109 C 
BRANCH  28  29
ATOM     29  C   UNL     1      30.424 -22.124 -15.569  0.00  0.00    +0.025 C 
BRANCH  29  30
ATOM     30  C   UNL     1      29.135 -22.784 -15.182  0.00  0.00    +0.002 C 
ATOM     31  C   UNL     1      27.831 -22.053 -15.342  0.00  0.00    +0.000 C 
ATOM     32  C   UNL     1      28.156 -23.213 -16.240  0.00  0.00    +0.000 C 
ENDBRANCH  29  30
ENDBRANCH  28  29
ENDBRANCH   3  28
TORSDOF 5
ENDMDL
MODEL 4
REMARK VINA RESULT:     -10.5      4.840      8.998
REMARK  Name = 135435181
REMARK  5 active torsions:
REMARK  status: ('A' for Active; 'I' for Inactive)
REMARK    1  A    between atoms: N_3  and  C_28
REMARK    2  A    between atoms: C_7  and  C_18
REMARK    3  A    between atoms: C_8  and  O_26
REMARK    4  A    between atoms: C_28  and  C_29
REMARK    5  A    between atoms: C_29  and  C_30
REMARK                            x       y       z     vdW  Elec       q    Type
REMARK                         _______ _______ _______ _____ _____    ______ ____
ROOT
ATOM      1  F   UNL     1      30.521 -23.295 -16.200  0.00  0.00    -0.204 F 
ATOM      2  O   UNL     1      36.347 -19.984 -19.880  0.00  0.00    -0.267 OA
ATOM      3  N   UNL     1      35.297 -21.297 -18.282  0.00  0.00    -0.295 N 
ATOM      4  C   UNL     1      34.082 -21.814 -17.741  0.00  0.00    +0.065 A 
ATOM      5  C   UNL     1      35.315 -20.447 -19.388  0.00  0.00    +0.267 A 
ATOM      6  C   UNL     1      32.860 -21.459 -18.334  0.00  0.00    +0.052 A 
ATOM      7  C   UNL     1      33.999 -20.080 -20.009  0.00  0.00    +0.123 A 
ATOM      8  C   UNL     1      32.848 -20.561 -19.502  0.00  0.00    +0.142 A 
ATOM      9  C   UNL     1      34.075 -22.673 -16.626  0.00  0.00    +0.020 C 
ATOM     10  C   UNL     1      31.662 -21.971 -17.797  0.00  0.00    +0.034 C 
ATOM     11  C   UNL     1      32.880 -23.172 -16.106  0.00  0.00    +0.031 C 
ATOM     12  C   UNL     1      31.673 -22.821 -16.692  0.00  0.00    +0.140 C 
ENDROOT
BRANCH   7  18
ATOM     13  S   UNL     1      33.752 -18.937 -23.736  0.00  0.00    +0.103 S 
ATOM     14  O   UNL     1      32.407 -18.999 -24.281  0.00  0.00    -0.146 OA
ATOM     15  O   UNL     1      34.893 -19.326 -24.545  0.00  0.00    -0.146 OA
ATOM     16  N   UNL     1      34.193 -17.829 -20.977  0.00  0.00    -0.295 N 
ATOM     17  N   UNL     1      33.792 -19.765 -22.337  0.00  0.00    -0.112 NA
ATOM     18  C   UNL     1      33.993 -19.183 -21.182  0.00  0.00    +0.161 C 
ATOM     19  C   UNL     1      34.208 -16.880 -22.003  0.00  0.00    +0.069 C 
ATOM     20  C   UNL     1      34.018 -17.241 -23.335  0.00  0.00    +0.143 C 
ATOM     21  C   UNL     1      34.415 -15.524 -21.717  0.00  0.00    +0.016 C 
ATOM     22  C   UNL     1      34.028 -16.305 -24.369  0.00  0.00    +0.022 C 
ATOM     23  C   UNL     1      34.429 -14.572 -22.740  0.00  0.00    +0.001 C 
ATOM     24  C   UNL     1      34.236 -14.963 -24.064  0.00  0.00    +0.001 C 
ATOM     25  H   UNL     1      34.335 -17.516 -20.055  0.00  0.00    +0.154 HD
ENDBRANCH   7  18
BRANCH   8  26
ATOM     26  O   UNL     1      31.588 -20.285 -19.988  0.00  0.00    -0.505 OA
ATOM     27  H   UNL     1      31.277 -20.715 -20.761  0.00  0.00    +0.292 HD
ENDBRANCH   8  26
BRANCH   3  28
ATOM     28  C   UNL     1      36.565 -21.671 -17.658  0.00  0.00    +0.109 C 
BRANCH  28  29
ATOM     29  C   UNL     1      36.806 -20.928 -16.349  0.00  0.00    +0.025 C 
BRANCH  29  30
ATOM     30  C   UNL     1      37.488 -21.775 -15.317  0.00  0.00    +0.002 C 
ATOM     31  C   UNL     1      36.684 -22.458 -14.245  0.00  0.00    +0.000 C 
ATOM     32  C   UNL     1      37.326 -23.269 -15.335  0.00  0.00    +0.000 C 
ENDBRANCH  29  30
ENDBRANCH  28  29
ENDBRANCH   3  28
TORSDOF 5
ENDMDL
MODEL 5
REMARK VINA RESULT:     -10.3     10.454     13.929
REMARK  Name = 135435181
REMARK  5 active torsions:
REMARK  status: ('A' for Active; 'I' for Inactive)
REMARK    1  A    between atoms: N_3  and  C_28
REMARK    2  A    between atoms: C_7  and  C_18
REMARK    3  A    between atoms: C_8  and  O_26
REMARK    4  A    between atoms: C_28  and  C_29
REMARK    5  A    between atoms: C_29  and  C_30
REMARK                            x       y       z     vdW  Elec       q    Type
REMARK                         _______ _______ _______ _____ _____    ______ ____
ROOT
ATOM      1  F   UNL     1      30.664  -9.479 -17.680  0.00  0.00    -0.204 F 
ATOM      2  O   UNL     1      33.199 -11.962 -24.451  0.00  0.00    -0.267 OA
ATOM      3  N   UNL     1      32.367 -10.448 -22.904  0.00  0.00    -0.295 N 
ATOM      4  C   UNL     1      31.928 -10.188 -21.571  0.00  0.00    +0.065 A 
ATOM      5  C   UNL     1      32.814 -11.706 -23.308  0.00  0.00    +0.267 A 
ATOM      6  C   UNL     1      31.944 -11.229 -20.628  0.00  0.00    +0.052 A 
ATOM      7  C   UNL     1      32.824 -12.805 -22.286  0.00  0.00    +0.123 A 
ATOM      8  C   UNL     1      32.410 -12.569 -21.027  0.00  0.00    +0.142 A 
ATOM      9  C   UNL     1      31.480  -8.914 -21.174  0.00  0.00    +0.020 C 
ATOM     10  C   UNL     1      31.511 -10.970 -19.313  0.00  0.00    +0.034 C 
ATOM     11  C   UNL     1      31.056  -8.674 -19.867  0.00  0.00    +0.031 C 
ATOM     12  C   UNL     1      31.071  -9.701 -18.936  0.00  0.00    +0.140 C 
ENDROOT
BRANCH   7  18
ATOM     13  S   UNL     1      33.576 -15.883 -24.571  0.00  0.00    +0.103 S 
ATOM     14  O   UNL     1      34.653 -15.660 -25.519  0.00  0.00    -0.146 OA
ATOM     15  O   UNL     1      32.391 -16.625 -24.964  0.00  0.00    -0.146 OA
ATOM     16  N   UNL     1      33.877 -14.955 -21.728  0.00  0.00    -0.295 N 
ATOM     17  N   UNL     1      33.119 -14.451 -23.948  0.00  0.00    -0.112 NA
ATOM     18  C   UNL     1      33.296 -14.145 -22.688  0.00  0.00    +0.161 C 
ATOM     19  C   UNL     1      34.363 -16.240 -21.983  0.00  0.00    +0.069 C 
ATOM     20  C   UNL     1      34.294 -16.808 -23.254  0.00  0.00    +0.143 C 
ATOM     21  C   UNL     1      34.940 -17.001 -20.958  0.00  0.00    +0.016 C 
ATOM     22  C   UNL     1      34.777 -18.089 -23.524  0.00  0.00    +0.022 C 
ATOM     23  C   UNL     1      35.429 -18.285 -21.210  0.00  0.00    +0.001 C 
ATOM     24  C   UNL     1      35.346 -18.829 -22.492  0.00  0.00    +0.001 C 
ATOM     25  H   UNL     1      33.950 -14.607 -20.810  0.00  0.00    +0.154 HD
ENDBRANCH   7  18
BRANCH   8  26
ATOM     26  O   UNL     1      32.372 -13.502 -20.012  0.00  0.00    -0.505 OA
ATOM     27  H   UNL     1      31.875 -14.290 -20.117  0.00  0.00    +0.292 HD
ENDBRANCH   8  26
BRANCH   3  28
ATOM     28  C   UNL     1      32.345  -9.360 -23.881  0.00  0.00    +0.109 C 
BRANCH  28  29
ATOM     29  C   UNL     1      33.497  -8.382 -23.682  0.00  0.00    +0.025 C 
BRANCH  29  30
ATOM     30  C   UNL     1      33.049  -6.952 -23.659  0.00  0.00    +0.002 C 
ATOM     31  C   UNL     1      33.598  -6.002 -22.631  0.00  0.00    +0.000 C 
ATOM     32  C   UNL     1      33.992  -5.856 -24.074  0.00  0.00    +0.000 C 
ENDBRANCH  29  30
ENDBRANCH  28  29
ENDBRANCH   3  28
TORSDOF 5
ENDMDL
MODEL 6
REMARK VINA RESULT:     -10.3      7.851     11.561
REMARK  Name = 135435181
REMARK  5 active torsions:
REMARK  status: ('A' for Active; 'I' for Inactive)
REMARK    1  A    between atoms: N_3  and  C_28
REMARK    2  A    between atoms: C_7  and  C_18
REMARK    3  A    between atoms: C_8  and  O_26
REMARK    4  A    between atoms: C_28  and  C_29
REMARK    5  A    between atoms: C_29  and  C_30
REMARK                            x       y       z     vdW  Elec       q    Type
REMARK                         _______ _______ _______ _____ _____    ______ ____
ROOT
ATOM      1  F   UNL     1      32.889 -12.969 -27.277  0.00  0.00    -0.204 F 
ATOM      2  O   UNL     1      33.969 -14.915 -19.964  0.00  0.00    -0.267 OA
ATOM      3  N   UNL     1      33.447 -13.537 -21.754  0.00  0.00    -0.295 N 
ATOM      4  C   UNL     1      33.301 -13.380 -23.166  0.00  0.00    +0.065 A 
ATOM      5  C   UNL     1      33.835 -14.747 -21.177  0.00  0.00    +0.267 A 
ATOM      6  C   UNL     1      33.556 -14.474 -24.008  0.00  0.00    +0.052 A 
ATOM      7  C   UNL     1      34.101 -15.905 -22.095  0.00  0.00    +0.123 A 
ATOM      8  C   UNL     1      33.969 -15.764 -23.427  0.00  0.00    +0.142 A 
ATOM      9  C   UNL     1      32.908 -12.155 -23.737  0.00  0.00    +0.020 C 
ATOM     10  C   UNL     1      33.411 -14.316 -25.401  0.00  0.00    +0.034 C 
ATOM     11  C   UNL     1      32.768 -12.015 -25.118  0.00  0.00    +0.031 C 
ATOM     12  C   UNL     1      33.020 -13.095 -25.950  0.00  0.00    +0.140 C 
ENDROOT
BRANCH   7  18
ATOM     13  S   UNL     1      36.436 -18.748 -20.781  0.00  0.00    +0.103 S 
ATOM     14  O   UNL     1      37.107 -18.426 -19.533  0.00  0.00    -0.146 OA
ATOM     15  O   UNL     1      37.138 -19.462 -21.832  0.00  0.00    -0.146 OA
ATOM     16  N   UNL     1      33.523 -18.086 -21.121  0.00  0.00    -0.295 N 
ATOM     17  N   UNL     1      35.801 -17.385 -21.403  0.00  0.00    -0.112 NA
ATOM     18  C   UNL     1      34.510 -17.196 -21.508  0.00  0.00    +0.161 C 
ATOM     19  C   UNL     1      33.781 -19.336 -20.553  0.00  0.00    +0.069 C 
ATOM     20  C   UNL     1      35.082 -19.784 -20.332  0.00  0.00    +0.143 C 
ATOM     21  C   UNL     1      32.728 -20.183 -20.184  0.00  0.00    +0.016 C 
ATOM     22  C   UNL     1      35.355 -21.029 -19.764  0.00  0.00    +0.022 C 
ATOM     23  C   UNL     1      32.982 -21.433 -19.614  0.00  0.00    +0.001 C 
ATOM     24  C   UNL     1      34.295 -21.856 -19.405  0.00  0.00    +0.001 C 
ATOM     25  H   UNL     1      32.584 -17.824 -21.255  0.00  0.00    +0.154 HD
ENDBRANCH   7  18
BRANCH   8  26
ATOM     26  O   UNL     1      34.192 -16.755 -24.359  0.00  0.00    -0.505 OA
ATOM     27  H   UNL     1      33.521 -16.984 -24.972  0.00  0.00    +0.292 HD
ENDBRANCH   8  26
BRANCH   3  28
ATOM     28  C   UNL     1      33.182 -12.393 -20.884  0.00  0.00    +0.109 C 
BRANCH  28  29
ATOM     29  C   UNL     1      31.740 -12.361 -20.395  0.00  0.00    +0.025 C 
BRANCH  29  30
ATOM     30  C   UNL     1      31.003 -11.131 -20.834  0.00  0.00    +0.002 C 
ATOM     31  C   UNL     1      30.995  -9.902 -19.967  0.00  0.00    +0.000 C 
ATOM     32  C   UNL     1      31.763  -9.905 -21.258  0.00  0.00    +0.000 C 
ENDBRANCH  29  30
ENDBRANCH  28  29
ENDBRANCH   3  28
TORSDOF 5
ENDMDL
MODEL 7
REMARK VINA RESULT:      -9.4      2.875      6.568
REMARK  Name = 135435181
REMARK  5 active torsions:
REMARK  status: ('A' for Active; 'I' for Inactive)
REMARK    1  A    between atoms: N_3  and  C_28
REMARK    2  A    between atoms: C_7  and  C_18
REMARK    3  A    between atoms: C_8  and  O_26
REMARK    4  A    between atoms: C_28  and  C_29
REMARK    5  A    between atoms: C_29  and  C_30
REMARK                            x       y       z     vdW  Elec       q    Type
REMARK                         _______ _______ _______ _____ _____    ______ ____
ROOT
ATOM      1  F   UNL     1      27.761 -24.206 -14.386  0.00  0.00    -0.204 F 
ATOM      2  O   UNL     1      35.203 -23.142 -15.773  0.00  0.00    -0.267 OA
ATOM      3  N   UNL     1      33.327 -23.925 -14.657  0.00  0.00    -0.295 N 
ATOM      4  C   UNL     1      31.904 -24.003 -14.577  0.00  0.00    +0.065 A 
ATOM      5  C   UNL     1      33.977 -23.228 -15.676  0.00  0.00    +0.267 A 
ATOM      6  C   UNL     1      31.125 -23.359 -15.552  0.00  0.00    +0.052 A 
ATOM      7  C   UNL     1      33.127 -22.547 -16.709  0.00  0.00    +0.123 A 
ATOM      8  C   UNL     1      31.785 -22.614 -16.639  0.00  0.00    +0.142 A 
ATOM      9  C   UNL     1      31.258 -24.711 -13.546  0.00  0.00    +0.020 C 
ATOM     10  C   UNL     1      29.721 -23.439 -15.471  0.00  0.00    +0.034 C 
ATOM     11  C   UNL     1      29.867 -24.781 -13.479  0.00  0.00    +0.031 C 
ATOM     12  C   UNL     1      29.098 -24.144 -14.442  0.00  0.00    +0.140 C 
ENDROOT
BRANCH   7  18
ATOM     13  S   UNL     1      36.002 -21.038 -18.881  0.00  0.00    +0.103 S 
ATOM     14  O   UNL     1      36.740 -22.027 -19.647  0.00  0.00    -0.146 OA
ATOM     15  O   UNL     1      36.694 -19.929 -18.248  0.00  0.00    -0.146 OA
ATOM     16  N   UNL     1      33.002 -21.187 -18.752  0.00  0.00    -0.295 N 
ATOM     17  N   UNL     1      35.101 -21.803 -17.763  0.00  0.00    -0.112 NA
ATOM     18  C   UNL     1      33.792 -21.806 -17.799  0.00  0.00    +0.161 C 
ATOM     19  C   UNL     1      33.510 -20.458 -19.831  0.00  0.00    +0.069 C 
ATOM     20  C   UNL     1      34.881 -20.300 -20.024  0.00  0.00    +0.143 C 
ATOM     21  C   UNL     1      32.646 -19.860 -20.757  0.00  0.00    +0.016 C 
ATOM     22  C   UNL     1      35.403 -19.577 -21.097  0.00  0.00    +0.022 C 
ATOM     23  C   UNL     1      33.151 -19.132 -21.838  0.00  0.00    +0.001 C 
ATOM     24  C   UNL     1      34.528 -18.990 -22.007  0.00  0.00    +0.001 C 
ATOM     25  H   UNL     1      32.025 -21.263 -18.664  0.00  0.00    +0.154 HD
ENDBRANCH   7  18
BRANCH   8  26
ATOM     26  O   UNL     1      30.910 -22.024 -17.528  0.00  0.00    -0.505 OA
ATOM     27  H   UNL     1      30.166 -21.551 -17.210  0.00  0.00    +0.292 HD
ENDBRANCH   8  26
BRANCH   3  28
ATOM     28  C   UNL     1      34.131 -24.597 -13.637  0.00  0.00    +0.109 C 
BRANCH  28  29
ATOM     29  C   UNL     1      34.444 -23.687 -12.455  0.00  0.00    +0.025 C 
BRANCH  29  30
ATOM     30  C   UNL     1      35.310 -24.347 -11.425  0.00  0.00    +0.002 C 
ATOM     31  C   UNL     1      36.674 -23.796 -11.116  0.00  0.00    +0.000 C 
ATOM     32  C   UNL     1      35.567 -23.672 -10.107  0.00  0.00    +0.000 C 
ENDBRANCH  29  30
ENDBRANCH  28  29
ENDBRANCH   3  28
TORSDOF 5
ENDMDL
MODEL 8
REMARK VINA RESULT:      -9.3     15.271     18.956
REMARK  Name = 135435181
REMARK  5 active torsions:
REMARK  status: ('A' for Active; 'I' for Inactive)
REMARK    1  A    between atoms: N_3  and  C_28
REMARK    2  A    between atoms: C_7  and  C_18
REMARK    3  A    between atoms: C_8  and  O_26
REMARK    4  A    between atoms: C_28  and  C_29
REMARK    5  A    between atoms: C_29  and  C_30
REMARK                            x       y       z     vdW  Elec       q    Type
REMARK                         _______ _______ _______ _____ _____    ______ ____
ROOT
ATOM      1  F   UNL     1      29.499  -1.786 -24.166  0.00  0.00    -0.204 F 
ATOM      2  O   UNL     1      34.473  -7.587 -23.952  0.00  0.00    -0.267 OA
ATOM      3  N   UNL     1      33.692  -5.458 -24.436  0.00  0.00    -0.295 N 
ATOM      4  C   UNL     1      32.626  -4.510 -24.373  0.00  0.00    +0.065 A 
ATOM      5  C   UNL     1      33.573  -6.746 -23.914  0.00  0.00    +0.267 A 
ATOM      6  C   UNL     1      31.414  -4.879 -23.768  0.00  0.00    +0.052 A 
ATOM      7  C   UNL     1      32.269  -7.121 -23.270  0.00  0.00    +0.123 A 
ATOM      8  C   UNL     1      31.259  -6.234 -23.209  0.00  0.00    +0.142 A 
ATOM      9  C   UNL     1      32.757  -3.212 -24.901  0.00  0.00    +0.020 C 
ATOM     10  C   UNL     1      30.364  -3.942 -23.707  0.00  0.00    +0.034 C 
ATOM     11  C   UNL     1      31.708  -2.295 -24.833  0.00  0.00    +0.031 C 
ATOM     12  C   UNL     1      30.511  -2.660 -24.235  0.00  0.00    +0.140 C 
ENDROOT
BRANCH   7  18
ATOM     13  S   UNL     1      31.080  -9.982 -20.891  0.00  0.00    +0.103 S 
ATOM     14  O   UNL     1      29.677 -10.328 -21.045  0.00  0.00    -0.146 OA
ATOM     15  O   UNL     1      31.688  -9.940 -19.574  0.00  0.00    -0.146 OA
ATOM     16  N   UNL     1      32.778  -9.525 -23.329  0.00  0.00    -0.295 N 
ATOM     17  N   UNL     1      31.359  -8.569 -21.646  0.00  0.00    -0.112 NA
ATOM     18  C   UNL     1      32.120  -8.478 -22.707  0.00  0.00    +0.161 C 
ATOM     19  C   UNL     1      32.715 -10.852 -22.896  0.00  0.00    +0.069 C 
ATOM     20  C   UNL     1      31.968 -11.220 -21.779  0.00  0.00    +0.143 C 
ATOM     21  C   UNL     1      33.408 -11.859 -23.579  0.00  0.00    +0.016 C 
ATOM     22  C   UNL     1      31.894 -12.541 -21.335  0.00  0.00    +0.022 C 
ATOM     23  C   UNL     1      33.345 -13.187 -23.149  0.00  0.00    +0.001 C 
ATOM     24  C   UNL     1      32.590 -13.527 -22.028  0.00  0.00    +0.001 C 
ATOM     25  H   UNL     1      33.324  -9.323 -24.123  0.00  0.00    +0.154 HD
ENDBRANCH   7  18
BRANCH   8  26
ATOM     26  O   UNL     1      30.022  -6.473 -22.648  0.00  0.00    -0.505 OA
ATOM     27  H   UNL     1      29.458  -5.756 -22.431  0.00  0.00    +0.292 HD
ENDBRANCH   8  26
BRANCH   3  28
ATOM     28  C   UNL     1      34.950  -5.066 -25.069  0.00  0.00    +0.109 C 
BRANCH  28  29
ATOM     29  C   UNL     1      35.068  -5.592 -26.495  0.00  0.00    +0.025 C 
BRANCH  29  30
ATOM     30  C   UNL     1      34.194  -4.851 -27.462  0.00  0.00    +0.002 C 
ATOM     31  C   UNL     1      34.251  -5.168 -28.931  0.00  0.00    +0.000 C 
ATOM     32  C   UNL     1      33.040  -5.548 -28.127  0.00  0.00    +0.000 C 
ENDBRANCH  29  30
ENDBRANCH  28  29
ENDBRANCH   3  28
TORSDOF 5
ENDMDL
MODEL 9
REMARK VINA RESULT:      -9.0     13.466     17.205
REMARK  Name = 135435181
REMARK  5 active torsions:
REMARK  status: ('A' for Active; 'I' for Inactive)
REMARK    1  A    between atoms: N_3  and  C_28
REMARK    2  A    between atoms: C_7  and  C_18
REMARK    3  A    between atoms: C_8  and  O_26
REMARK    4  A    between atoms: C_28  and  C_29
REMARK    5  A    between atoms: C_29  and  C_30
REMARK                            x       y       z     vdW  Elec       q    Type
REMARK                         _______ _______ _______ _____ _____    ______ ____
ROOT
ATOM      1  F   UNL     1      28.977  -4.459 -21.386  0.00  0.00    -0.204 F 
ATOM      2  O   UNL     1      34.669  -8.870 -23.953  0.00  0.00    -0.267 OA
ATOM      3  N   UNL     1      33.530  -6.904 -23.491  0.00  0.00    -0.295 N 
ATOM      4  C   UNL     1      32.369  -6.267 -22.956  0.00  0.00    +0.065 A 
ATOM      5  C   UNL     1      33.680  -8.291 -23.499  0.00  0.00    +0.267 A 
ATOM      6  C   UNL     1      31.340  -7.057 -22.418  0.00  0.00    +0.052 A 
ATOM      7  C   UNL     1      32.570  -9.117 -22.918  0.00  0.00    +0.123 A 
ATOM      8  C   UNL     1      31.471  -8.524 -22.414  0.00  0.00    +0.142 A 
ATOM      9  C   UNL     1      32.229  -4.867 -22.952  0.00  0.00    +0.020 C 
ATOM     10  C   UNL     1      30.197  -6.426 -21.890  0.00  0.00    +0.034 C 
ATOM     11  C   UNL     1      31.090  -4.257 -22.425  0.00  0.00    +0.031 C 
ATOM     12  C   UNL     1      30.074  -5.037 -21.894  0.00  0.00    +0.140 C 
ENDROOT
BRANCH   7  18
ATOM     13  S   UNL     1      32.839 -12.758 -21.529  0.00  0.00    +0.103 S 
ATOM     14  O   UNL     1      31.592 -13.274 -20.991  0.00  0.00    -0.146 OA
ATOM     15  O   UNL     1      34.100 -13.041 -20.867  0.00  0.00    -0.146 OA
ATOM     16  N   UNL     1      32.829 -11.242 -24.125  0.00  0.00    -0.295 N 
ATOM     17  N   UNL     1      32.699 -11.150 -21.730  0.00  0.00    -0.112 NA
ATOM     18  C   UNL     1      32.707 -10.587 -22.912  0.00  0.00    +0.161 C 
ATOM     19  C   UNL     1      32.963 -12.627 -24.252  0.00  0.00    +0.069 C 
ATOM     20  C   UNL     1      32.985 -13.464 -23.138  0.00  0.00    +0.143 C 
ATOM     21  C   UNL     1      33.080 -13.219 -25.516  0.00  0.00    +0.016 C 
ATOM     22  C   UNL     1      33.116 -14.848 -23.249  0.00  0.00    +0.022 C 
ATOM     23  C   UNL     1      33.212 -14.605 -25.646  0.00  0.00    +0.001 C 
ATOM     24  C   UNL     1      33.232 -15.418 -24.514  0.00  0.00    +0.001 C 
ATOM     25  H   UNL     1      32.822 -10.701 -24.947  0.00  0.00    +0.154 HD
ENDBRANCH   7  18
BRANCH   8  26
ATOM     26  O   UNL     1      30.392  -9.184 -21.863  0.00  0.00    -0.505 OA
ATOM     27  H   UNL     1      29.570  -9.198 -22.313  0.00  0.00    +0.292 HD
ENDBRANCH   8  26
BRANCH   3  28
ATOM     28  C   UNL     1      34.596  -6.075 -24.051  0.00  0.00    +0.109 C 
BRANCH  28  29
ATOM     29  C   UNL     1      34.630  -6.128 -25.574  0.00  0.00    +0.025 C 
BRANCH  29  30
ATOM     30  C   UNL     1      33.596  -5.248 -26.210  0.00  0.00    +0.002 C 
ATOM     31  C   UNL     1      33.254  -5.411 -27.665  0.00  0.00    +0.000 C 
ATOM     32  C   UNL     1      32.262  -5.815 -26.610  0.00  0.00    +0.000 C 
ENDBRANCH  29  30
ENDBRANCH  28  29
ENDBRANCH   3  28
TORSDOF 5
ENDMDL
