MODEL 1
REMARK VINA RESULT:     -10.1      0.000      0.000
REMARK  Name = 5277135
REMARK  9 active torsions:
REMARK  status: ('A' for Active; 'I' for Inactive)
REMARK    1  A    between atoms: N_2  and  C_18
REMARK    2  A    between atoms: C_7  and  C_15
REMARK    3  A    between atoms: C_8  and  C_25
REMARK    4  A    between atoms: C_11  and  O_12
REMARK    5  A    between atoms: C_15  and  O_16
REMARK    6  A    between atoms: C_18  and  C_19
REMARK    7  A    between atoms: C_18  and  C_22
REMARK    8  A    between atoms: C_22  and  O_23
REMARK    9  A    between atoms: C_25  and  C_28
REMARK                            x       y       z     vdW  Elec       q    Type
REMARK                         _______ _______ _______ _____ _____    ______ ____
ROOT
ATOM      1  O   UNL     1      35.209 -22.350 -17.203  0.00  0.00    -0.286 OA
ATOM      2  N   UNL     1      31.736 -23.114 -15.205  0.00  0.00    -0.285 N 
ATOM      3  C   UNL     1      32.958 -23.287 -14.514  0.00  0.00    +0.058 C 
ATOM      4  C   UNL     1      34.179 -23.030 -15.180  0.00  0.00    +0.053 C 
ATOM      5  C   UNL     1      31.755 -22.695 -16.523  0.00  0.00    +0.075 C 
ATOM      6  C   UNL     1      33.034 -23.710 -13.175  0.00  0.00    +0.051 C 
ATOM      7  C   UNL     1      32.846 -22.423 -17.249  0.00  0.00    +0.129 C 
ATOM      8  C   UNL     1      35.452 -23.608 -13.208  0.00  0.00    +0.016 C 
ATOM      9  C   UNL     1      34.169 -22.580 -16.597  0.00  0.00    +0.204 C 
ATOM     10  C   UNL     1      35.412 -23.190 -14.534  0.00  0.00    +0.003 C 
ATOM     11  C   UNL     1      34.265 -23.869 -12.530  0.00  0.00    +0.136 C 
ENDROOT
BRANCH  11  12
ATOM     12  O   UNL     1      34.284 -24.280 -11.231  0.00  0.00    -0.472 OA
ATOM     13  C   UNL     1      35.102 -23.540 -10.329  0.00  0.00    +0.252 C 
ENDBRANCH  11  12
BRANCH   7  15
ATOM     14  O   UNL     1      31.946 -21.079 -18.990  0.00  0.00    -0.245 OA
ATOM     15  C   UNL     1      32.673 -21.991 -18.635  0.00  0.00    +0.342 C 
BRANCH  15  16
ATOM     16  O   UNL     1      33.438 -22.750 -19.447  0.00  0.00    -0.477 OA
ATOM     17  H   UNL     1      34.165 -22.368 -19.899  0.00  0.00    +0.295 HD
ENDBRANCH  15  16
ENDBRANCH   7  15
BRANCH   2  18
ATOM     18  C   UNL     1      30.485 -23.384 -14.502  0.00  0.00    +0.106 C 
BRANCH  18  19
ATOM     19  C   UNL     1      29.273 -22.950 -15.358  0.00  0.00    +0.021 C 
ATOM     20  C   UNL     1      28.407 -24.152 -15.751  0.00  0.00    +0.002 C 
ATOM     21  C   UNL     1      28.401 -21.876 -14.697  0.00  0.00    +0.002 C 
ENDBRANCH  18  19
BRANCH  18  22
ATOM     22  C   UNL     1      30.436 -24.865 -14.119  0.00  0.00    +0.157 C 
BRANCH  22  23
ATOM     23  O   UNL     1      29.876 -24.995 -12.816  0.00  0.00    -0.380 OA
ATOM     24  H   UNL     1      30.425 -24.513 -12.178  0.00  0.00    +0.211 HD
ENDBRANCH  22  23
ENDBRANCH  18  22
ENDBRANCH   2  18
BRANCH   8  25
ATOM     25  C   UNL     1      36.771 -23.773 -12.530  0.00  0.00    +0.058 C 
BRANCH  25  28
ATOM     26 CL   UNL     1      40.889 -26.810 -13.491  0.00  0.00    -0.080 Cl
ATOM     27  F   UNL     1      38.614 -25.800 -11.895  0.00  0.00    -0.204 F 
ATOM     28  C   UNL     1      37.893 -24.180 -13.462  0.00  0.00    +0.011 C 
ATOM     29  C   UNL     1      38.761 -25.187 -13.078  0.00  0.00    +0.147 C 
ATOM     30  C   UNL     1      38.024 -23.532 -14.677  0.00  0.00    -0.002 C 
ATOM     31  C   UNL     1      39.792 -25.559 -13.940  0.00  0.00    +0.085 C 
ATOM     32  C   UNL     1      39.055 -23.904 -15.538  0.00  0.00    +0.001 C 
ATOM     33  C   UNL     1      39.940 -24.918 -15.170  0.00  0.00    +0.014 C 
ENDBRANCH  25  28
ENDBRANCH   8  25
TORSDOF 9
ENDMDL
MODEL 2
REMARK VINA RESULT:     -10.0      3.936      8.418
REMARK  Name = 5277135
REMARK  9 active torsions:
REMARK  status: ('A' for Active; 'I' for Inactive)
REMARK    1  A    between atoms: N_2  and  C_18
REMARK    2  A    between atoms: C_7  and  C_15
REMARK    3  A    between atoms: C_8  and  C_25
REMARK    4  A    between atoms: C_11  and  O_12
REMARK    5  A    between atoms: C_15  and  O_16
REMARK    6  A    between atoms: C_18  and  C_19
REMARK    7  A    between atoms: C_18  and  C_22
REMARK    8  A    between atoms: C_22  and  O_23
REMARK    9  A    between atoms: C_25  and  C_28
REMARK                            x       y       z     vdW  Elec       q    Type
REMARK                         _______ _______ _______ _____ _____    ______ ____
ROOT
ATOM      1  O   UNL     1      33.146 -22.942 -11.529  0.00  0.00    -0.286 OA
ATOM      2  N   UNL     1      36.090 -24.486 -13.892  0.00  0.00    -0.285 N 
ATOM      3  C   UNL     1      34.936 -23.961 -14.518  0.00  0.00    +0.058 C 
ATOM      4  C   UNL     1      33.898 -23.418 -13.726  0.00  0.00    +0.053 C 
ATOM      5  C   UNL     1      36.185 -24.460 -12.512  0.00  0.00    +0.075 C 
ATOM      6  C   UNL     1      34.754 -23.947 -15.912  0.00  0.00    +0.051 C 
ATOM      7  C   UNL     1      35.269 -23.973 -11.667  0.00  0.00    +0.129 C 
ATOM      8  C   UNL     1      32.589 -22.889 -15.688  0.00  0.00    +0.016 C 
ATOM      9  C   UNL     1      34.027 -23.403 -12.245  0.00  0.00    +0.204 C 
ATOM     10  C   UNL     1      32.737 -22.889 -14.305  0.00  0.00    +0.003 C 
ATOM     11  C   UNL     1      33.595 -23.418 -16.490  0.00  0.00    +0.136 C 
ENDROOT
BRANCH  11  12
ATOM     12  O   UNL     1      33.468 -23.427 -17.847  0.00  0.00    -0.472 OA
ATOM     13  C   UNL     1      33.840 -22.239 -18.540  0.00  0.00    +0.252 C 
ENDBRANCH  11  12
BRANCH   7  15
ATOM     14  O   UNL     1      36.310 -23.290  -9.642  0.00  0.00    -0.245 OA
ATOM     15  C   UNL     1      35.541 -24.030 -10.231  0.00  0.00    +0.342 C 
BRANCH  15  16
ATOM     16  O   UNL     1      34.815 -25.019  -9.670  0.00  0.00    -0.477 OA
ATOM     17  H   UNL     1      34.996 -25.292  -8.792  0.00  0.00    +0.295 HD
ENDBRANCH  15  16
ENDBRANCH   7  15
BRANCH   2  18
ATOM     18  C   UNL     1      37.153 -25.042 -14.725  0.00  0.00    +0.106 C 
BRANCH  18  19
ATOM     19  C   UNL     1      38.536 -24.528 -14.262  0.00  0.00    +0.021 C 
ATOM     20  C   UNL     1      39.554 -25.671 -14.169  0.00  0.00    +0.002 C 
ATOM     21  C   UNL     1      39.100 -23.400 -15.133  0.00  0.00    +0.002 C 
ENDBRANCH  18  19
BRANCH  18  22
ATOM     22  C   UNL     1      37.055 -26.570 -14.706  0.00  0.00    +0.157 C 
BRANCH  22  23
ATOM     23  O   UNL     1      36.475 -27.019 -15.926  0.00  0.00    -0.380 OA
ATOM     24  H   UNL     1      35.579 -26.657 -16.011  0.00  0.00    +0.211 HD
ENDBRANCH  22  23
ENDBRANCH  18  22
ENDBRANCH   2  18
BRANCH   8  25
ATOM     25  C   UNL     1      31.348 -22.321 -16.293  0.00  0.00    +0.058 C 
BRANCH  25  28
ATOM     26 CL   UNL     1      26.166 -22.180 -15.824  0.00  0.00    -0.080 Cl
ATOM     27  F   UNL     1      28.813 -21.163 -16.663  0.00  0.00    -0.204 F 
ATOM     28  C   UNL     1      30.072 -22.971 -15.800  0.00  0.00    +0.011 C 
ATOM     29  C   UNL     1      28.862 -22.339 -16.020  0.00  0.00    +0.147 C 
ATOM     30  C   UNL     1      30.150 -24.184 -15.140  0.00  0.00    -0.002 C 
ATOM     31  C   UNL     1      27.689 -22.941 -15.565  0.00  0.00    +0.085 C 
ATOM     32  C   UNL     1      28.977 -24.786 -14.684  0.00  0.00    +0.001 C 
ATOM     33  C   UNL     1      27.746 -24.165 -14.897  0.00  0.00    +0.014 C 
ENDBRANCH  25  28
ENDBRANCH   8  25
TORSDOF 9
ENDMDL
MODEL 3
REMARK VINA RESULT:      -9.6      1.946      4.493
REMARK  Name = 5277135
REMARK  9 active torsions:
REMARK  status: ('A' for Active; 'I' for Inactive)
REMARK    1  A    between atoms: N_2  and  C_18
REMARK    2  A    between atoms: C_7  and  C_15
REMARK    3  A    between atoms: C_8  and  C_25
REMARK    4  A    between atoms: C_11  and  O_12
REMARK    5  A    between atoms: C_15  and  O_16
REMARK    6  A    between atoms: C_18  and  C_19
REMARK    7  A    between atoms: C_18  and  C_22
REMARK    8  A    between atoms: C_22  and  O_23
REMARK    9  A    between atoms: C_25  and  C_28
REMARK                            x       y       z     vdW  Elec       q    Type
REMARK                         _______ _______ _______ _____ _____    ______ ____
ROOT
ATOM      1  O   UNL     1      31.456 -23.004 -13.667  0.00  0.00    -0.286 OA
ATOM      2  N   UNL     1      32.391 -22.414 -17.593  0.00  0.00    -0.285 N 
ATOM      3  C   UNL     1      33.435 -22.363 -16.642  0.00  0.00    +0.058 C 
ATOM      4  C   UNL     1      33.143 -22.565 -15.273  0.00  0.00    +0.053 C 
ATOM      5  C   UNL     1      31.097 -22.659 -17.168  0.00  0.00    +0.075 C 
ATOM      6  C   UNL     1      34.778 -22.119 -16.982  0.00  0.00    +0.051 C 
ATOM      7  C   UNL     1      30.707 -22.863 -15.905  0.00  0.00    +0.129 C 
ATOM      8  C   UNL     1      35.466 -22.280 -14.668  0.00  0.00    +0.016 C 
ATOM      9  C   UNL     1      31.744 -22.827 -14.845  0.00  0.00    +0.204 C 
ATOM     10  C   UNL     1      34.148 -22.523 -14.297  0.00  0.00    +0.003 C 
ATOM     11  C   UNL     1      35.781 -22.078 -16.008  0.00  0.00    +0.136 C 
ENDROOT
BRANCH  11  12
ATOM     12  O   UNL     1      37.067 -21.838 -16.391  0.00  0.00    -0.472 OA
ATOM     13  C   UNL     1      37.429 -20.481 -16.628  0.00  0.00    +0.252 C 
ENDBRANCH  11  12
BRANCH   7  15
ATOM     14  O   UNL     1      28.390 -22.334 -15.919  0.00  0.00    -0.245 OA
ATOM     15  C   UNL     1      29.289 -23.109 -15.642  0.00  0.00    +0.342 C 
BRANCH  15  16
ATOM     16  O   UNL     1      29.138 -24.313 -15.052  0.00  0.00    -0.477 OA
ATOM     17  H   UNL     1      28.653 -24.386 -14.254  0.00  0.00    +0.295 HD
ENDBRANCH  15  16
ENDBRANCH   7  15
BRANCH   2  18
ATOM     18  C   UNL     1      32.710 -22.204 -19.003  0.00  0.00    +0.106 C 
BRANCH  18  19
ATOM     19  C   UNL     1      33.020 -20.715 -19.278  0.00  0.00    +0.021 C 
ATOM     20  C   UNL     1      34.424 -20.536 -19.869  0.00  0.00    +0.002 C 
ATOM     21  C   UNL     1      31.987 -20.023 -20.173  0.00  0.00    +0.002 C 
ENDBRANCH  18  19
BRANCH  18  22
ATOM     22  C   UNL     1      33.865 -23.130 -19.396  0.00  0.00    +0.157 C 
BRANCH  22  23
ATOM     23  O   UNL     1      33.336 -24.352 -19.901  0.00  0.00    -0.380 OA
ATOM     24  H   UNL     1      34.064 -24.962 -20.097  0.00  0.00    +0.211 HD
ENDBRANCH  22  23
ENDBRANCH  18  22
ENDBRANCH   2  18
BRANCH   8  25
ATOM     25  C   UNL     1      36.528 -22.239 -13.620  0.00  0.00    +0.058 C 
BRANCH  25  28
ATOM     26 CL   UNL     1      40.080 -25.962 -14.408  0.00  0.00    -0.080 Cl
ATOM     27  F   UNL     1      38.773 -23.354 -14.893  0.00  0.00    -0.204 F 
ATOM     28  C   UNL     1      37.083 -23.600 -13.255  0.00  0.00    +0.011 C 
ATOM     29  C   UNL     1      38.192 -24.081 -13.928  0.00  0.00    +0.147 C 
ATOM     30  C   UNL     1      36.465 -24.331 -12.256  0.00  0.00    -0.002 C 
ATOM     31  C   UNL     1      38.700 -25.335 -13.589  0.00  0.00    +0.085 C 
ATOM     32  C   UNL     1      36.973 -25.584 -11.918  0.00  0.00    +0.001 C 
ATOM     33  C   UNL     1      38.091 -26.087 -12.584  0.00  0.00    +0.014 C 
ENDBRANCH  25  28
ENDBRANCH   8  25
TORSDOF 9
ENDMDL
MODEL 4
REMARK VINA RESULT:      -9.0     12.025     15.352
REMARK  Name = 5277135
REMARK  9 active torsions:
REMARK  status: ('A' for Active; 'I' for Inactive)
REMARK    1  A    between atoms: N_2  and  C_18
REMARK    2  A    between atoms: C_7  and  C_15
REMARK    3  A    between atoms: C_8  and  C_25
REMARK    4  A    between atoms: C_11  and  O_12
REMARK    5  A    between atoms: C_15  and  O_16
REMARK    6  A    between atoms: C_18  and  C_19
REMARK    7  A    between atoms: C_18  and  C_22
REMARK    8  A    between atoms: C_22  and  O_23
REMARK    9  A    between atoms: C_25  and  C_28
REMARK                            x       y       z     vdW  Elec       q    Type
REMARK                         _______ _______ _______ _____ _____    ______ ____
ROOT
ATOM      1  O   UNL     1      31.518 -12.316 -20.035  0.00  0.00    -0.286 OA
ATOM      2  N   UNL     1      32.222  -9.305 -22.694  0.00  0.00    -0.285 N 
ATOM      3  C   UNL     1      32.437 -10.636 -23.118  0.00  0.00    +0.058 C 
ATOM      4  C   UNL     1      32.202 -11.702 -22.220  0.00  0.00    +0.053 C 
ATOM      5  C   UNL     1      31.783  -9.066 -21.404  0.00  0.00    +0.075 C 
ATOM      6  C   UNL     1      32.883 -10.972 -24.409  0.00  0.00    +0.051 C 
ATOM      7  C   UNL     1      31.529  -9.993 -20.473  0.00  0.00    +0.129 C 
ATOM      8  C   UNL     1      32.844 -13.333 -23.884  0.00  0.00    +0.016 C 
ATOM      9  C   UNL     1      31.730 -11.416 -20.839  0.00  0.00    +0.204 C 
ATOM     10  C   UNL     1      32.404 -13.036 -22.599  0.00  0.00    +0.003 C 
ATOM     11  C   UNL     1      33.083 -12.303 -24.788  0.00  0.00    +0.136 C 
ENDROOT
BRANCH  11  12
ATOM     12  O   UNL     1      33.516 -12.575 -26.051  0.00  0.00    -0.472 OA
ATOM     13  C   UNL     1      32.524 -12.654 -27.072  0.00  0.00    +0.252 C 
ENDBRANCH  11  12
BRANCH   7  15
ATOM     14  O   UNL     1      29.901  -9.487 -18.816  0.00  0.00    -0.245 OA
ATOM     15  C   UNL     1      31.070  -9.553 -19.156  0.00  0.00    +0.342 C 
BRANCH  15  16
ATOM     16  O   UNL     1      32.133  -9.236 -18.387  0.00  0.00    -0.477 OA
ATOM     17  H   UNL     1      32.336  -8.337 -18.216  0.00  0.00    +0.295 HD
ENDBRANCH  15  16
ENDBRANCH   7  15
BRANCH   2  18
ATOM     18  C   UNL     1      32.469  -8.216 -23.635  0.00  0.00    +0.106 C 
BRANCH  18  19
ATOM     19  C   UNL     1      31.275  -7.235 -23.664  0.00  0.00    +0.021 C 
ATOM     20  C   UNL     1      31.614  -5.920 -22.952  0.00  0.00    +0.002 C 
ATOM     21  C   UNL     1      30.748  -6.942 -25.072  0.00  0.00    +0.002 C 
ENDBRANCH  18  19
BRANCH  18  22
ATOM     22  C   UNL     1      33.788  -7.529 -23.269  0.00  0.00    +0.157 C 
BRANCH  22  23
ATOM     23  O   UNL     1      34.874  -8.381 -23.619  0.00  0.00    -0.380 OA
ATOM     24  H   UNL     1      34.830  -8.590 -24.565  0.00  0.00    +0.211 HD
ENDBRANCH  22  23
ENDBRANCH  18  22
ENDBRANCH   2  18
BRANCH   8  25
ATOM     25  C   UNL     1      33.053 -14.758 -24.276  0.00  0.00    +0.058 C 
BRANCH  25  28
ATOM     26 CL   UNL     1      35.002 -19.345 -22.772  0.00  0.00    -0.080 Cl
ATOM     27  F   UNL     1      33.754 -17.453 -24.671  0.00  0.00    -0.204 F 
ATOM     28  C   UNL     1      33.692 -15.605 -23.195  0.00  0.00    +0.011 C 
ATOM     29  C   UNL     1      34.008 -16.924 -23.465  0.00  0.00    +0.147 C 
ATOM     30  C   UNL     1      33.945 -15.035 -21.959  0.00  0.00    -0.002 C 
ATOM     31  C   UNL     1      34.597 -17.700 -22.467  0.00  0.00    +0.085 C 
ATOM     32  C   UNL     1      34.533 -15.811 -20.961  0.00  0.00    +0.001 C 
ATOM     33  C   UNL     1      34.859 -17.143 -21.214  0.00  0.00    +0.014 C 
ENDBRANCH  25  28
ENDBRANCH   8  25
TORSDOF 9
ENDMDL
MODEL 5
REMARK VINA RESULT:      -8.7      1.141      1.507
REMARK  Name = 5277135
REMARK  9 active torsions:
REMARK  status: ('A' for Active; 'I' for Inactive)
REMARK    1  A    between atoms: N_2  and  C_18
REMARK    2  A    between atoms: C_7  and  C_15
REMARK    3  A    between atoms: C_8  and  C_25
REMARK    4  A    between atoms: C_11  and  O_12
REMARK    5  A    between atoms: C_15  and  O_16
REMARK    6  A    between atoms: C_18  and  C_19
REMARK    7  A    between atoms: C_18  and  C_22
REMARK    8  A    between atoms: C_22  and  O_23
REMARK    9  A    between atoms: C_25  and  C_28
REMARK                            x       y       z     vdW  Elec       q    Type
REMARK                         _______ _______ _______ _____ _____    ______ ____
ROOT
ATOM      1  O   UNL     1      35.155 -22.124 -17.482  0.00  0.00    -0.286 OA
ATOM      2  N   UNL     1      31.696 -22.950 -15.486  0.00  0.00    -0.285 N 
ATOM      3  C   UNL     1      32.897 -22.881 -14.743  0.00  0.00    +0.058 C 
ATOM      4  C   UNL     1      34.112 -22.595 -15.406  0.00  0.00    +0.053 C 
ATOM      5  C   UNL     1      31.730 -22.738 -16.853  0.00  0.00    +0.075 C 
ATOM      6  C   UNL     1      32.957 -23.083 -13.353  0.00  0.00    +0.051 C 
ATOM      7  C   UNL     1      32.817 -22.462 -17.581  0.00  0.00    +0.129 C 
ATOM      8  C   UNL     1      35.349 -22.723 -13.334  0.00  0.00    +0.016 C 
ATOM      9  C   UNL     1      34.119 -22.371 -16.876  0.00  0.00    +0.204 C 
ATOM     10  C   UNL     1      35.326 -22.519 -14.709  0.00  0.00    +0.003 C 
ATOM     11  C   UNL     1      34.167 -23.006 -12.657  0.00  0.00    +0.136 C 
ENDROOT
BRANCH  11  12
ATOM     12  O   UNL     1      34.171 -23.210 -11.309  0.00  0.00    -0.472 OA
ATOM     13  C   UNL     1      34.694 -24.451 -10.844  0.00  0.00    +0.252 C 
ENDBRANCH  11  12
BRANCH   7  15
ATOM     14  O   UNL     1      31.983 -21.394 -19.534  0.00  0.00    -0.245 OA
ATOM     15  C   UNL     1      32.663 -22.267 -19.022  0.00  0.00    +0.342 C 
BRANCH  15  16
ATOM     16  O   UNL     1      33.383 -23.196 -19.687  0.00  0.00    -0.477 OA
ATOM     17  H   UNL     1      34.314 -23.109 -19.749  0.00  0.00    +0.295 HD
ENDBRANCH  15  16
ENDBRANCH   7  15
BRANCH   2  18
ATOM     18  C   UNL     1      30.449 -23.245 -14.785  0.00  0.00    +0.106 C 
BRANCH  18  19
ATOM     19  C   UNL     1      29.229 -22.878 -15.661  0.00  0.00    +0.021 C 
ATOM     20  C   UNL     1      28.417 -24.124 -16.038  0.00  0.00    +0.002 C 
ATOM     21  C   UNL     1      28.307 -21.829 -15.030  0.00  0.00    +0.002 C 
ENDBRANCH  18  19
BRANCH  18  22
ATOM     22  C   UNL     1      30.450 -24.716 -14.360  0.00  0.00    +0.157 C 
BRANCH  22  23
ATOM     23  O   UNL     1      29.936 -24.824 -13.037  0.00  0.00    -0.380 OA
ATOM     24  H   UNL     1      30.078 -25.725 -12.707  0.00  0.00    +0.211 HD
ENDBRANCH  22  23
ENDBRANCH  18  22
ENDBRANCH   2  18
BRANCH   8  25
ATOM     25  C   UNL     1      36.647 -22.637 -12.601  0.00  0.00    +0.058 C 
BRANCH  25  28
ATOM     26 CL   UNL     1      40.037 -25.249 -15.566  0.00  0.00    -0.080 Cl
ATOM     27  F   UNL     1      38.211 -23.018 -14.907  0.00  0.00    -0.204 F 
ATOM     28  C   UNL     1      37.541 -23.844 -12.793  0.00  0.00    +0.011 C 
ATOM     29  C   UNL     1      38.280 -23.961 -13.957  0.00  0.00    +0.147 C 
ATOM     30  C   UNL     1      37.596 -24.803 -11.798  0.00  0.00    -0.002 C 
ATOM     31  C   UNL     1      39.103 -25.074 -14.129  0.00  0.00    +0.085 C 
ATOM     32  C   UNL     1      38.418 -25.916 -11.971  0.00  0.00    +0.001 C 
ATOM     33  C   UNL     1      39.172 -26.052 -13.136  0.00  0.00    +0.014 C 
ENDBRANCH  25  28
ENDBRANCH   8  25
TORSDOF 9
ENDMDL
MODEL 6
REMARK VINA RESULT:      -8.4      3.206      8.088
REMARK  Name = 5277135
REMARK  9 active torsions:
REMARK  status: ('A' for Active; 'I' for Inactive)
REMARK    1  A    between atoms: N_2  and  C_18
REMARK    2  A    between atoms: C_7  and  C_15
REMARK    3  A    between atoms: C_8  and  C_25
REMARK    4  A    between atoms: C_11  and  O_12
REMARK    5  A    between atoms: C_15  and  O_16
REMARK    6  A    between atoms: C_18  and  C_19
REMARK    7  A    between atoms: C_18  and  C_22
REMARK    8  A    between atoms: C_22  and  O_23
REMARK    9  A    between atoms: C_25  and  C_28
REMARK                            x       y       z     vdW  Elec       q    Type
REMARK                         _______ _______ _______ _____ _____    ______ ____
ROOT
ATOM      1  O   UNL     1      32.915 -23.614 -12.099  0.00  0.00    -0.286 OA
ATOM      2  N   UNL     1      36.427 -23.116 -14.112  0.00  0.00    -0.285 N 
ATOM      3  C   UNL     1      35.219 -23.017 -14.839  0.00  0.00    +0.058 C 
ATOM      4  C   UNL     1      33.985 -23.184 -14.170  0.00  0.00    +0.053 C 
ATOM      5  C   UNL     1      36.382 -23.376 -12.753  0.00  0.00    +0.075 C 
ATOM      6  C   UNL     1      35.169 -22.756 -16.220  0.00  0.00    +0.051 C 
ATOM      7  C   UNL     1      35.277 -23.551 -12.020  0.00  0.00    +0.129 C 
ATOM      8  C   UNL     1      32.751 -22.834 -16.219  0.00  0.00    +0.016 C 
ATOM      9  C   UNL     1      33.966 -23.462 -12.710  0.00  0.00    +0.204 C 
ATOM     10  C   UNL     1      32.764 -23.094 -14.853  0.00  0.00    +0.003 C 
ATOM     11  C   UNL     1      33.951 -22.666 -16.902  0.00  0.00    +0.136 C 
ENDROOT
BRANCH  11  12
ATOM     12  O   UNL     1      33.958 -22.411 -18.241  0.00  0.00    -0.472 OA
ATOM     13  C   UNL     1      34.913 -21.465 -18.714  0.00  0.00    +0.252 C 
ENDBRANCH  11  12
BRANCH   7  15
ATOM     14  O   UNL     1      34.927 -24.771 -10.010  0.00  0.00    -0.245 OA
ATOM     15  C   UNL     1      35.422 -23.819 -10.590  0.00  0.00    +0.342 C 
BRANCH  15  16
ATOM     16  O   UNL     1      36.181 -22.859 -10.022  0.00  0.00    -0.477 OA
ATOM     17  H   UNL     1      37.089 -22.787 -10.244  0.00  0.00    +0.295 HD
ENDBRANCH  15  16
ENDBRANCH   7  15
BRANCH   2  18
ATOM     18  C   UNL     1      37.693 -22.940 -14.819  0.00  0.00    +0.106 C 
BRANCH  18  19
ATOM     19  C   UNL     1      38.344 -24.308 -15.123  0.00  0.00    +0.021 C 
ATOM     20  C   UNL     1      39.710 -24.443 -14.439  0.00  0.00    +0.002 C 
ATOM     21  C   UNL     1      37.462 -25.508 -14.762  0.00  0.00    +0.002 C 
ENDBRANCH  18  19
BRANCH  18  22
ATOM     22  C   UNL     1      37.448 -22.109 -16.081  0.00  0.00    +0.157 C 
BRANCH  22  23
ATOM     23  O   UNL     1      37.625 -20.729 -15.777  0.00  0.00    -0.380 OA
ATOM     24  H   UNL     1      38.336 -20.630 -15.125  0.00  0.00    +0.211 HD
ENDBRANCH  22  23
ENDBRANCH  18  22
ENDBRANCH   2  18
BRANCH   8  25
ATOM     25  C   UNL     1      31.445 -22.740 -16.935  0.00  0.00    +0.058 C 
BRANCH  25  28
ATOM     26 CL   UNL     1      28.277 -25.719 -14.073  0.00  0.00    -0.080 Cl
ATOM     27  F   UNL     1      30.574 -25.187 -15.858  0.00  0.00    -0.204 F 
ATOM     28  C   UNL     1      30.238 -22.851 -16.027  0.00  0.00    +0.011 C 
ATOM     29  C   UNL     1      29.871 -24.091 -15.537  0.00  0.00    +0.147 C 
ATOM     30  C   UNL     1      29.530 -21.705 -15.710  0.00  0.00    -0.002 C 
ATOM     31  C   UNL     1      28.759 -24.189 -14.700  0.00  0.00    +0.085 C 
ATOM     32  C   UNL     1      28.418 -21.803 -14.874  0.00  0.00    +0.001 C 
ATOM     33  C   UNL     1      28.033 -23.045 -14.368  0.00  0.00    +0.014 C 
ENDBRANCH  25  28
ENDBRANCH   8  25
TORSDOF 9
ENDMDL
MODEL 7
REMARK VINA RESULT:      -8.1     15.059     17.944
REMARK  Name = 5277135
REMARK  9 active torsions:
REMARK  status: ('A' for Active; 'I' for Inactive)
REMARK    1  A    between atoms: N_2  and  C_18
REMARK    2  A    between atoms: C_7  and  C_15
REMARK    3  A    between atoms: C_8  and  C_25
REMARK    4  A    between atoms: C_11  and  O_12
REMARK    5  A    between atoms: C_15  and  O_16
REMARK    6  A    between atoms: C_18  and  C_19
REMARK    7  A    between atoms: C_18  and  C_22
REMARK    8  A    between atoms: C_22  and  O_23
REMARK    9  A    between atoms: C_25  and  C_28
REMARK                            x       y       z     vdW  Elec       q    Type
REMARK                         _______ _______ _______ _____ _____    ______ ____
ROOT
ATOM      1  O   UNL     1      35.302  -8.030 -24.898  0.00  0.00    -0.286 OA
ATOM      2  N   UNL     1      31.936  -6.150 -23.566  0.00  0.00    -0.285 N 
ATOM      3  C   UNL     1      32.150  -7.493 -23.179  0.00  0.00    +0.058 C 
ATOM      4  C   UNL     1      33.308  -8.172 -23.625  0.00  0.00    +0.053 C 
ATOM      5  C   UNL     1      32.865  -5.521 -24.375  0.00  0.00    +0.075 C 
ATOM      6  C   UNL     1      31.260  -8.212 -22.361  0.00  0.00    +0.051 C 
ATOM      7  C   UNL     1      33.991  -6.063 -24.853  0.00  0.00    +0.129 C 
ATOM      8  C   UNL     1      32.658 -10.185 -22.454  0.00  0.00    +0.016 C 
ATOM      9  C   UNL     1      34.289  -7.471 -24.494  0.00  0.00    +0.204 C 
ATOM     10  C   UNL     1      33.558  -9.504 -23.266  0.00  0.00    +0.003 C 
ATOM     11  C   UNL     1      31.510  -9.540 -22.003  0.00  0.00    +0.136 C 
ENDROOT
BRANCH  11  12
ATOM     12  O   UNL     1      30.616 -10.192 -21.206  0.00  0.00    -0.472 OA
ATOM     13  C   UNL     1      30.616  -9.853 -19.822  0.00  0.00    +0.252 C 
ENDBRANCH  11  12
BRANCH   7  15
ATOM     14  O   UNL     1      35.123  -4.072 -25.488  0.00  0.00    -0.245 OA
ATOM     15  C   UNL     1      34.857  -5.243 -25.698  0.00  0.00    +0.342 C 
BRANCH  15  16
ATOM     16  O   UNL     1      35.311  -5.979 -26.735  0.00  0.00    -0.477 OA
ATOM     17  H   UNL     1      34.704  -6.414 -27.301  0.00  0.00    +0.295 HD
ENDBRANCH  15  16
ENDBRANCH   7  15
BRANCH   2  18
ATOM     18  C   UNL     1      30.735  -5.464 -23.096  0.00  0.00    +0.106 C 
BRANCH  18  19
ATOM     19  C   UNL     1      31.056  -4.576 -21.872  0.00  0.00    +0.021 C 
ATOM     20  C   UNL     1      29.815  -4.358 -20.998  0.00  0.00    +0.002 C 
ATOM     21  C   UNL     1      32.210  -5.102 -21.011  0.00  0.00    +0.002 C 
ENDBRANCH  18  19
BRANCH  18  22
ATOM     22  C   UNL     1      30.127  -4.671 -24.256  0.00  0.00    +0.157 C 
BRANCH  22  23
ATOM     23  O   UNL     1      30.196  -3.280 -23.962  0.00  0.00    -0.380 OA
ATOM     24  H   UNL     1      29.708  -2.782 -24.636  0.00  0.00    +0.211 HD
ENDBRANCH  22  23
ENDBRANCH  18  22
ENDBRANCH   2  18
BRANCH   8  25
ATOM     25  C   UNL     1      32.936 -11.602 -22.078  0.00  0.00    +0.058 C 
BRANCH  25  28
ATOM     26 CL   UNL     1      34.221 -16.278 -23.971  0.00  0.00    -0.080 Cl
ATOM     27  F   UNL     1      33.943 -14.219 -21.867  0.00  0.00    -0.204 F 
ATOM     28  C   UNL     1      33.015 -12.546 -23.260  0.00  0.00    +0.011 C 
ATOM     29  C   UNL     1      33.524 -13.819 -23.076  0.00  0.00    +0.147 C 
ATOM     30  C   UNL     1      32.576 -12.110 -24.497  0.00  0.00    -0.002 C 
ATOM     31  C   UNL     1      33.594 -14.686 -24.167  0.00  0.00    +0.085 C 
ATOM     32  C   UNL     1      32.646 -12.976 -25.587  0.00  0.00    +0.001 C 
ATOM     33  C   UNL     1      33.155 -14.264 -25.423  0.00  0.00    +0.014 C 
ENDBRANCH  25  28
ENDBRANCH   8  25
TORSDOF 9
ENDMDL
MODEL 8
REMARK VINA RESULT:      -8.0      1.702      2.703
REMARK  Name = 5277135
REMARK  9 active torsions:
REMARK  status: ('A' for Active; 'I' for Inactive)
REMARK    1  A    between atoms: N_2  and  C_18
REMARK    2  A    between atoms: C_7  and  C_15
REMARK    3  A    between atoms: C_8  and  C_25
REMARK    4  A    between atoms: C_11  and  O_12
REMARK    5  A    between atoms: C_15  and  O_16
REMARK    6  A    between atoms: C_18  and  C_19
REMARK    7  A    between atoms: C_18  and  C_22
REMARK    8  A    between atoms: C_22  and  O_23
REMARK    9  A    between atoms: C_25  and  C_28
REMARK                            x       y       z     vdW  Elec       q    Type
REMARK                         _______ _______ _______ _____ _____    ______ ____
ROOT
ATOM      1  O   UNL     1      34.637 -22.493 -17.725  0.00  0.00    -0.286 OA
ATOM      2  N   UNL     1      30.724 -22.145 -16.629  0.00  0.00    -0.285 N 
ATOM      3  C   UNL     1      31.593 -22.876 -15.787  0.00  0.00    +0.058 C 
ATOM      4  C   UNL     1      32.955 -23.014 -16.139  0.00  0.00    +0.053 C 
ATOM      5  C   UNL     1      31.222 -21.576 -17.787  0.00  0.00    +0.075 C 
ATOM      6  C   UNL     1      31.174 -23.489 -14.592  0.00  0.00    +0.051 C 
ATOM      7  C   UNL     1      32.487 -21.642 -18.218  0.00  0.00    +0.129 C 
ATOM      8  C   UNL     1      33.403 -24.324 -14.157  0.00  0.00    +0.016 C 
ATOM      9  C   UNL     1      33.463 -22.392 -17.390  0.00  0.00    +0.204 C 
ATOM     10  C   UNL     1      33.850 -23.731 -15.333  0.00  0.00    +0.003 C 
ATOM     11  C   UNL     1      32.067 -24.204 -13.787  0.00  0.00    +0.136 C 
ENDROOT
BRANCH  11  12
ATOM     12  O   UNL     1      31.611 -24.778 -12.639  0.00  0.00    -0.472 OA
ATOM     13  C   UNL     1      30.211 -24.693 -12.384  0.00  0.00    +0.252 C 
ENDBRANCH  11  12
BRANCH   7  15
ATOM     14  O   UNL     1      32.027 -20.619 -20.314  0.00  0.00    -0.245 OA
ATOM     15  C   UNL     1      32.834 -20.976 -19.473  0.00  0.00    +0.342 C 
BRANCH  15  16
ATOM     16  O   UNL     1      34.173 -20.820 -19.550  0.00  0.00    -0.477 OA
ATOM     17  H   UNL     1      34.736 -21.565 -19.470  0.00  0.00    +0.295 HD
ENDBRANCH  15  16
ENDBRANCH   7  15
BRANCH   2  18
ATOM     18  C   UNL     1      29.320 -22.012 -16.250  0.00  0.00    +0.106 C 
BRANCH  18  19
ATOM     19  C   UNL     1      28.486 -23.182 -16.819  0.00  0.00    +0.021 C 
ATOM     20  C   UNL     1      28.345 -24.318 -15.798  0.00  0.00    +0.002 C 
ATOM     21  C   UNL     1      27.101 -22.766 -17.327  0.00  0.00    +0.002 C 
ENDBRANCH  18  19
BRANCH  18  22
ATOM     22  C   UNL     1      29.223 -21.905 -14.725  0.00  0.00    +0.157 C 
BRANCH  22  23
ATOM     23  O   UNL     1      28.011 -21.244 -14.377  0.00  0.00    -0.380 OA
ATOM     24  H   UNL     1      28.214 -20.440 -13.874  0.00  0.00    +0.211 HD
ENDBRANCH  22  23
ENDBRANCH  18  22
ENDBRANCH   2  18
BRANCH   8  25
ATOM     25  C   UNL     1      34.366 -25.084 -13.306  0.00  0.00    +0.058 C 
BRANCH  25  28
ATOM     26 CL   UNL     1      39.527 -24.457 -13.582  0.00  0.00    -0.080 Cl
ATOM     27  F   UNL     1      36.950 -25.788 -14.162  0.00  0.00    -0.204 F 
ATOM     28  C   UNL     1      35.599 -24.294 -12.921  0.00  0.00    +0.011 C 
ATOM     29  C   UNL     1      36.837 -24.704 -13.381  0.00  0.00    +0.147 C 
ATOM     30  C   UNL     1      35.456 -23.178 -12.115  0.00  0.00    -0.002 C 
ATOM     31  C   UNL     1      37.971 -23.973 -13.025  0.00  0.00    +0.085 C 
ATOM     32  C   UNL     1      36.589 -22.448 -11.758  0.00  0.00    +0.001 C 
ATOM     33  C   UNL     1      37.847 -22.845 -12.213  0.00  0.00    +0.014 C 
ENDBRANCH  25  28
ENDBRANCH   8  25
TORSDOF 9
ENDMDL
MODEL 9
REMARK VINA RESULT:      -7.4     15.199     17.917
REMARK  Name = 5277135
REMARK  9 active torsions:
REMARK  status: ('A' for Active; 'I' for Inactive)
REMARK    1  A    between atoms: N_2  and  C_18
REMARK    2  A    between atoms: C_7  and  C_15
REMARK    3  A    between atoms: C_8  and  C_25
REMARK    4  A    between atoms: C_11  and  O_12
REMARK    5  A    between atoms: C_15  and  O_16
REMARK    6  A    between atoms: C_18  and  C_19
REMARK    7  A    between atoms: C_18  and  C_22
REMARK    8  A    between atoms: C_22  and  O_23
REMARK    9  A    between atoms: C_25  and  C_28
REMARK                            x       y       z     vdW  Elec       q    Type
REMARK                         _______ _______ _______ _____ _____    ______ ____
ROOT
ATOM      1  O   UNL     1      31.445  -7.904 -25.706  0.00  0.00    -0.286 OA
ATOM      2  N   UNL     1      31.777  -5.476 -22.445  0.00  0.00    -0.285 N 
ATOM      3  C   UNL     1      31.488  -6.844 -22.234  0.00  0.00    +0.058 C 
ATOM      4  C   UNL     1      31.368  -7.711 -23.344  0.00  0.00    +0.053 C 
ATOM      5  C   UNL     1      31.937  -5.007 -23.737  0.00  0.00    +0.075 C 
ATOM      6  C   UNL     1      31.309  -7.407 -20.958  0.00  0.00    +0.051 C 
ATOM      7  C   UNL     1      31.845  -5.734 -24.857  0.00  0.00    +0.129 C 
ATOM      8  C   UNL     1      30.911  -9.598 -21.904  0.00  0.00    +0.016 C 
ATOM      9  C   UNL     1      31.544  -7.180 -24.722  0.00  0.00    +0.204 C 
ATOM     10  C   UNL     1      31.081  -9.073 -23.181  0.00  0.00    +0.003 C 
ATOM     11  C   UNL     1      31.024  -8.766 -20.795  0.00  0.00    +0.136 C 
ENDROOT
BRANCH  11  12
ATOM     12  O   UNL     1      30.861  -9.263 -19.536  0.00  0.00    -0.472 OA
ATOM     13  C   UNL     1      32.022  -9.335 -18.712  0.00  0.00    +0.252 C 
ENDBRANCH  11  12
BRANCH   7  15
ATOM     14  O   UNL     1      31.666  -3.936 -26.402  0.00  0.00    -0.245 OA
ATOM     15  C   UNL     1      32.045  -5.066 -26.142  0.00  0.00    +0.342 C 
BRANCH  15  16
ATOM     16  O   UNL     1      32.706  -5.887 -26.984  0.00  0.00    -0.477 OA
ATOM     17  H   UNL     1      33.598  -6.118 -26.809  0.00  0.00    +0.295 HD
ENDBRANCH  15  16
ENDBRANCH   7  15
BRANCH   2  18
ATOM     18  C   UNL     1      31.899  -4.595 -21.287  0.00  0.00    +0.106 C 
BRANCH  18  19
ATOM     19  C   UNL     1      30.669  -3.664 -21.176  0.00  0.00    +0.021 C 
ATOM     20  C   UNL     1      30.709  -2.556 -22.235  0.00  0.00    +0.002 C 
ATOM     21  C   UNL     1      29.327  -4.401 -21.245  0.00  0.00    +0.002 C 
ENDBRANCH  18  19
BRANCH  18  22
ATOM     22  C   UNL     1      32.111  -5.445 -20.032  0.00  0.00    +0.157 C 
BRANCH  22  23
ATOM     23  O   UNL     1      32.354  -4.589 -18.920  0.00  0.00    -0.380 OA
ATOM     24  H   UNL     1      32.872  -5.066 -18.253  0.00  0.00    +0.211 HD
ENDBRANCH  22  23
ENDBRANCH  18  22
ENDBRANCH   2  18
BRANCH   8  25
ATOM     25  C   UNL     1      30.608 -11.051 -21.742  0.00  0.00    +0.058 C 
BRANCH  25  28
ATOM     26 CL   UNL     1      33.890 -14.820 -20.287  0.00  0.00    -0.080 Cl
ATOM     27  F   UNL     1      31.651 -12.923 -19.922  0.00  0.00    -0.204 F 
ATOM     28  C   UNL     1      31.770 -11.961 -22.081  0.00  0.00    +0.011 C 
ATOM     29  C   UNL     1      32.228 -12.857 -21.131  0.00  0.00    +0.147 C 
ATOM     30  C   UNL     1      32.348 -11.873 -23.335  0.00  0.00    -0.002 C 
ATOM     31  C   UNL     1      33.298 -13.694 -21.447  0.00  0.00    +0.085 C 
ATOM     32  C   UNL     1      33.418 -12.709 -23.650  0.00  0.00    +0.001 C 
ATOM     33  C   UNL     1      33.893 -13.620 -22.707  0.00  0.00    +0.014 C 
ENDBRANCH  25  28
ENDBRANCH   8  25
TORSDOF 9
ENDMDL
