MODEL 1
REMARK VINA RESULT:     -10.9      0.000      0.000
REMARK  Name = 59757
REMARK  7 active torsions:
REMARK  status: ('A' for Active; 'I' for Inactive)
REMARK    1  A    between atoms: N_1  and  C_13
REMARK    2  A    between atoms: C_3  and  C_7
REMARK    3  A    between atoms: C_4  and  C_21
REMARK    4  A    between atoms: C_18  and  O_19
REMARK    5  A    between atoms: C_21  and  C_22
REMARK    6  A    between atoms: C_22  and  C_25
REMARK    7  A    between atoms: N_24  and  O_27
REMARK                            x       y       z     vdW  Elec       q    Type
REMARK                         _______ _______ _______ _____ _____    ______ ____
ROOT
ATOM      1  N   UNL     1      33.076 -23.096 -15.456  0.00  0.00    -0.190 N 
ATOM      2  N   UNL     1      31.745 -22.909 -15.421  0.00  0.00    -0.178 NA
ATOM      3  C   UNL     1      33.555 -23.843 -14.420  0.00  0.00    +0.075 C 
ATOM      4  C   UNL     1      31.401 -23.565 -14.326  0.00  0.00    +0.079 C 
ATOM      5  C   UNL     1      32.461 -24.167 -13.654  0.00  0.00    +0.033 C 
ENDROOT
BRANCH   3   7
ATOM      6 CL   UNL     1      39.285 -25.250 -13.639  0.00  0.00    -0.082 Cl
ATOM      7  C   UNL     1      34.946 -24.185 -14.230  0.00  0.00    +0.016 C 
ATOM      8  C   UNL     1      35.748 -23.399 -13.405  0.00  0.00    +0.002 C 
ATOM      9  C   UNL     1      35.481 -25.299 -14.872  0.00  0.00    +0.002 C 
ATOM     10  C   UNL     1      37.091 -23.728 -13.221  0.00  0.00    +0.011 C 
ATOM     11  C   UNL     1      36.824 -25.628 -14.689  0.00  0.00    +0.011 C 
ATOM     12  C   UNL     1      37.629 -24.844 -13.863  0.00  0.00    +0.058 C 
ENDBRANCH   3   7
BRANCH   1  13
ATOM     13  C   UNL     1      33.820 -22.539 -16.496  0.00  0.00    +0.074 C 
ATOM     14  C   UNL     1      35.117 -22.106 -16.254  0.00  0.00    +0.020 C 
ATOM     15  C   UNL     1      33.252 -22.422 -17.758  0.00  0.00    +0.020 C 
ATOM     16  C   UNL     1      35.861 -21.547 -17.295  0.00  0.00    +0.038 C 
ATOM     17  C   UNL     1      33.996 -21.864 -18.798  0.00  0.00    +0.038 C 
ATOM     18  C   UNL     1      35.300 -21.426 -18.566  0.00  0.00    +0.139 C 
BRANCH  18  19
ATOM     19  O   UNL     1      36.026 -20.883 -19.581  0.00  0.00    -0.471 OA
ATOM     20  C   UNL     1      35.373 -19.911 -20.397  0.00  0.00    +0.252 C 
ENDBRANCH  18  19
ENDBRANCH   1  13
BRANCH   4  21
ATOM     21  C   UNL     1      29.956 -23.597 -13.928  0.00  0.00    +0.057 C 
BRANCH  21  22
ATOM     22  C   UNL     1      29.028 -23.807 -15.126  0.00  0.00    +0.094 C 
BRANCH  22  25
ATOM     23  O   UNL     1      28.289 -21.540 -14.779  0.00  0.00    -0.273 OA
ATOM     24  N   UNL     1      27.322 -22.717 -16.492  0.00  0.00    -0.170 N 
ATOM     25  C   UNL     1      28.188 -22.576 -15.439  0.00  0.00    +0.248 C 
ATOM     26  C   UNL     1      26.430 -21.671 -16.945  0.00  0.00    +0.148 C 
BRANCH  24  27
ATOM     27  O   UNL     1      27.201 -23.890 -17.247  0.00  0.00    -0.292 OA
ATOM     28  H   UNL     1      26.724 -23.696 -18.069  0.00  0.00    +0.242 HD
ENDBRANCH  24  27
ENDBRANCH  22  25
ENDBRANCH  21  22
ENDBRANCH   4  21
TORSDOF 7
ENDMDL
MODEL 2
REMARK VINA RESULT:     -10.5      2.344      4.349
REMARK  Name = 59757
REMARK  7 active torsions:
REMARK  status: ('A' for Active; 'I' for Inactive)
REMARK    1  A    between atoms: N_1  and  C_13
REMARK    2  A    between atoms: C_3  and  C_7
REMARK    3  A    between atoms: C_4  and  C_21
REMARK    4  A    between atoms: C_18  and  O_19
REMARK    5  A    between atoms: C_21  and  C_22
REMARK    6  A    between atoms: C_22  and  C_25
REMARK    7  A    between atoms: N_24  and  O_27
REMARK                            x       y       z     vdW  Elec       q    Type
REMARK                         _______ _______ _______ _____ _____    ______ ____
ROOT
ATOM      1  N   UNL     1      33.408 -23.587 -14.787  0.00  0.00    -0.190 N 
ATOM      2  N   UNL     1      32.469 -24.071 -13.956  0.00  0.00    -0.178 NA
ATOM      3  C   UNL     1      32.900 -22.965 -15.889  0.00  0.00    +0.075 C 
ATOM      4  C   UNL     1      31.350 -23.732 -14.573  0.00  0.00    +0.079 C 
ATOM      5  C   UNL     1      31.534 -23.048 -15.771  0.00  0.00    +0.033 C 
ENDROOT
BRANCH   3   7
ATOM      6 CL   UNL     1      36.191 -20.478 -20.181  0.00  0.00    -0.082 Cl
ATOM      7  C   UNL     1      33.699 -22.361 -16.931  0.00  0.00    +0.016 C 
ATOM      8  C   UNL     1      35.031 -22.033 -16.684  0.00  0.00    +0.002 C 
ATOM      9  C   UNL     1      33.136 -22.109 -18.180  0.00  0.00    +0.002 C 
ATOM     10  C   UNL     1      35.803 -21.450 -17.689  0.00  0.00    +0.011 C 
ATOM     11  C   UNL     1      33.908 -21.527 -19.185  0.00  0.00    +0.011 C 
ATOM     12  C   UNL     1      35.240 -21.198 -18.941  0.00  0.00    +0.058 C 
ENDBRANCH   3   7
BRANCH   1  13
ATOM     13  C   UNL     1      34.757 -23.753 -14.470  0.00  0.00    +0.074 C 
ATOM     14  C   UNL     1      35.408 -22.782 -13.721  0.00  0.00    +0.020 C 
ATOM     15  C   UNL     1      35.429 -24.885 -14.910  0.00  0.00    +0.020 C 
ATOM     16  C   UNL     1      36.757 -22.947 -13.405  0.00  0.00    +0.038 C 
ATOM     17  C   UNL     1      36.778 -25.050 -14.593  0.00  0.00    +0.038 C 
ATOM     18  C   UNL     1      37.442 -24.081 -13.841  0.00  0.00    +0.139 C 
BRANCH  18  19
ATOM     19  O   UNL     1      38.757 -24.243 -13.531  0.00  0.00    -0.471 OA
ATOM     20  C   UNL     1      39.609 -24.745 -14.559  0.00  0.00    +0.252 C 
ENDBRANCH  18  19
ENDBRANCH   1  13
BRANCH   4  21
ATOM     21  C   UNL     1      30.040 -24.104 -13.946  0.00  0.00    +0.057 C 
BRANCH  21  22
ATOM     22  C   UNL     1      28.925 -24.265 -14.983  0.00  0.00    +0.094 C 
BRANCH  22  25
ATOM     23  O   UNL     1      28.424 -21.933 -14.641  0.00  0.00    -0.273 OA
ATOM     24  N   UNL     1      27.427 -22.979 -16.420  0.00  0.00    -0.170 N 
ATOM     25  C   UNL     1      28.246 -22.945 -15.321  0.00  0.00    +0.248 C 
ATOM     26  C   UNL     1      26.682 -21.836 -16.903  0.00  0.00    +0.148 C 
BRANCH  24  27
ATOM     27  O   UNL     1      27.218 -24.124 -17.198  0.00  0.00    -0.292 OA
ATOM     28  H   UNL     1      26.298 -24.141 -17.505  0.00  0.00    +0.242 HD
ENDBRANCH  24  27
ENDBRANCH  22  25
ENDBRANCH  21  22
ENDBRANCH   4  21
TORSDOF 7
ENDMDL
MODEL 3
REMARK VINA RESULT:     -10.2      3.822      6.914
REMARK  Name = 59757
REMARK  7 active torsions:
REMARK  status: ('A' for Active; 'I' for Inactive)
REMARK    1  A    between atoms: N_1  and  C_13
REMARK    2  A    between atoms: C_3  and  C_7
REMARK    3  A    between atoms: C_4  and  C_21
REMARK    4  A    between atoms: C_18  and  O_19
REMARK    5  A    between atoms: C_21  and  C_22
REMARK    6  A    between atoms: C_22  and  C_25
REMARK    7  A    between atoms: N_24  and  O_27
REMARK                            x       y       z     vdW  Elec       q    Type
REMARK                         _______ _______ _______ _____ _____    ______ ____
ROOT
ATOM      1  N   UNL     1      34.035 -22.639 -16.640  0.00  0.00    -0.190 N 
ATOM      2  N   UNL     1      34.533 -22.189 -17.805  0.00  0.00    -0.178 NA
ATOM      3  C   UNL     1      32.674 -22.595 -16.570  0.00  0.00    +0.075 C 
ATOM      4  C   UNL     1      33.437 -21.860 -18.467  0.00  0.00    +0.079 C 
ATOM      5  C   UNL     1      32.252 -22.081 -17.772  0.00  0.00    +0.033 C 
ENDROOT
BRANCH   3   7
ATOM      6 CL   UNL     1      29.478 -24.348 -11.864  0.00  0.00    -0.082 Cl
ATOM      7  C   UNL     1      31.898 -23.021 -15.427  0.00  0.00    +0.016 C 
ATOM      8  C   UNL     1      30.924 -24.006 -15.577  0.00  0.00    +0.002 C 
ATOM      9  C   UNL     1      32.127 -22.445 -14.179  0.00  0.00    +0.002 C 
ATOM     10  C   UNL     1      30.175 -24.417 -14.474  0.00  0.00    +0.011 C 
ATOM     11  C   UNL     1      31.377 -22.856 -13.077  0.00  0.00    +0.011 C 
ATOM     12  C   UNL     1      30.402 -23.842 -13.224  0.00  0.00    +0.058 C 
ENDBRANCH   3   7
BRANCH   1  13
ATOM     13  C   UNL     1      34.908 -23.090 -15.649  0.00  0.00    +0.074 C 
ATOM     14  C   UNL     1      35.754 -22.186 -15.020  0.00  0.00    +0.020 C 
ATOM     15  C   UNL     1      34.920 -24.435 -15.308  0.00  0.00    +0.020 C 
ATOM     16  C   UNL     1      36.628 -22.638 -14.030  0.00  0.00    +0.038 C 
ATOM     17  C   UNL     1      35.793 -24.886 -14.318  0.00  0.00    +0.038 C 
ATOM     18  C   UNL     1      36.648 -23.987 -13.679  0.00  0.00    +0.139 C 
BRANCH  18  19
ATOM     19  O   UNL     1      37.499 -24.427 -12.713  0.00  0.00    -0.471 OA
ATOM     20  C   UNL     1      37.132 -25.617 -12.017  0.00  0.00    +0.252 C 
ENDBRANCH  18  19
ENDBRANCH   1  13
BRANCH   4  21
ATOM     21  C   UNL     1      33.571 -21.302 -19.852  0.00  0.00    +0.057 C 
BRANCH  21  22
ATOM     22  C   UNL     1      34.776 -20.367 -19.987  0.00  0.00    +0.094 C 
BRANCH  22  25
ATOM     23  O   UNL     1      33.595 -19.320 -21.808  0.00  0.00    -0.273 OA
ATOM     24  N   UNL     1      35.574 -18.373 -21.147  0.00  0.00    -0.170 N 
ATOM     25  C   UNL     1      34.579 -19.311 -21.066  0.00  0.00    +0.248 C 
ATOM     26  C   UNL     1      35.583 -17.291 -22.109  0.00  0.00    +0.148 C 
BRANCH  24  27
ATOM     27  O   UNL     1      36.696 -18.354 -20.309  0.00  0.00    -0.292 OA
ATOM     28  H   UNL     1      36.865 -17.445 -20.017  0.00  0.00    +0.242 HD
ENDBRANCH  24  27
ENDBRANCH  22  25
ENDBRANCH  21  22
ENDBRANCH   4  21
TORSDOF 7
ENDMDL
MODEL 4
REMARK VINA RESULT:     -10.1      3.750      6.954
REMARK  Name = 59757
REMARK  7 active torsions:
REMARK  status: ('A' for Active; 'I' for Inactive)
REMARK    1  A    between atoms: N_1  and  C_13
REMARK    2  A    between atoms: C_3  and  C_7
REMARK    3  A    between atoms: C_4  and  C_21
REMARK    4  A    between atoms: C_18  and  O_19
REMARK    5  A    between atoms: C_21  and  C_22
REMARK    6  A    between atoms: C_22  and  C_25
REMARK    7  A    between atoms: N_24  and  O_27
REMARK                            x       y       z     vdW  Elec       q    Type
REMARK                         _______ _______ _______ _____ _____    ______ ____
ROOT
ATOM      1  N   UNL     1      34.244 -23.292 -14.499  0.00  0.00    -0.190 N 
ATOM      2  N   UNL     1      35.418 -23.516 -13.882  0.00  0.00    -0.178 NA
ATOM      3  C   UNL     1      33.155 -23.601 -13.739  0.00  0.00    +0.075 C 
ATOM      4  C   UNL     1      35.029 -23.975 -12.705  0.00  0.00    +0.079 C 
ATOM      5  C   UNL     1      33.650 -24.057 -12.541  0.00  0.00    +0.033 C 
ENDROOT
BRANCH   3   7
ATOM      6 CL   UNL     1      27.510 -22.985 -15.524  0.00  0.00    -0.082 Cl
ATOM      7  C   UNL     1      31.784 -23.451 -14.172  0.00  0.00    +0.016 C 
ATOM      8  C   UNL     1      31.049 -24.573 -14.551  0.00  0.00    +0.002 C 
ATOM      9  C   UNL     1      31.203 -22.186 -14.210  0.00  0.00    +0.002 C 
ATOM     10  C   UNL     1      29.726 -24.429 -14.969  0.00  0.00    +0.011 C 
ATOM     11  C   UNL     1      29.880 -22.042 -14.628  0.00  0.00    +0.011 C 
ATOM     12  C   UNL     1      29.141 -23.163 -15.007  0.00  0.00    +0.058 C 
ENDBRANCH   3   7
BRANCH   1  13
ATOM     13  C   UNL     1      34.238 -22.790 -15.801  0.00  0.00    +0.074 C 
ATOM     14  C   UNL     1      33.132 -23.004 -16.612  0.00  0.00    +0.020 C 
ATOM     15  C   UNL     1      35.340 -22.085 -16.267  0.00  0.00    +0.020 C 
ATOM     16  C   UNL     1      33.127 -22.502 -17.914  0.00  0.00    +0.038 C 
ATOM     17  C   UNL     1      35.334 -21.583 -17.569  0.00  0.00    +0.038 C 
ATOM     18  C   UNL     1      34.228 -21.792 -18.393  0.00  0.00    +0.139 C 
BRANCH  18  19
ATOM     19  O   UNL     1      34.222 -21.302 -19.662  0.00  0.00    -0.471 OA
ATOM     20  C   UNL     1      33.221 -20.337 -19.981  0.00  0.00    +0.252 C 
ENDBRANCH  18  19
ENDBRANCH   1  13
BRANCH   4  21
ATOM     21  C   UNL     1      36.074 -24.351 -11.697  0.00  0.00    +0.057 C 
BRANCH  21  22
ATOM     22  C   UNL     1      37.035 -25.419 -12.227  0.00  0.00    +0.094 C 
BRANCH  22  25
ATOM     23  O   UNL     1      38.749 -23.757 -12.552  0.00  0.00    -0.273 OA
ATOM     24  N   UNL     1      38.723 -25.545 -13.986  0.00  0.00    -0.170 N 
ATOM     25  C   UNL     1      38.248 -24.820 -12.924  0.00  0.00    +0.248 C 
ATOM     26  C   UNL     1      39.860 -25.146 -14.788  0.00  0.00    +0.148 C 
BRANCH  24  27
ATOM     27  O   UNL     1      38.161 -26.753 -14.416  0.00  0.00    -0.292 OA
ATOM     28  H   UNL     1      38.289 -26.845 -15.373  0.00  0.00    +0.242 HD
ENDBRANCH  24  27
ENDBRANCH  22  25
ENDBRANCH  21  22
ENDBRANCH   4  21
TORSDOF 7
ENDMDL
MODEL 5
REMARK VINA RESULT:     -10.1      3.387      7.397
REMARK  Name = 59757
REMARK  7 active torsions:
REMARK  status: ('A' for Active; 'I' for Inactive)
REMARK    1  A    between atoms: N_1  and  C_13
REMARK    2  A    between atoms: C_3  and  C_7
REMARK    3  A    between atoms: C_4  and  C_21
REMARK    4  A    between atoms: C_18  and  O_19
REMARK    5  A    between atoms: C_21  and  C_22
REMARK    6  A    between atoms: C_22  and  C_25
REMARK    7  A    between atoms: N_24  and  O_27
REMARK                            x       y       z     vdW  Elec       q    Type
REMARK                         _______ _______ _______ _____ _____    ______ ____
ROOT
ATOM      1  N   UNL     1      33.333 -23.612 -13.845  0.00  0.00    -0.190 N 
ATOM      2  N   UNL     1      33.718 -24.089 -12.649  0.00  0.00    -0.178 NA
ATOM      3  C   UNL     1      34.369 -23.240 -14.649  0.00  0.00    +0.075 C 
ATOM      4  C   UNL     1      35.035 -24.006 -12.728  0.00  0.00    +0.079 C 
ATOM      5  C   UNL     1      35.512 -23.492 -13.930  0.00  0.00    +0.033 C 
ENDROOT
BRANCH   3   7
ATOM      6 CL   UNL     1      33.753 -21.009 -20.133  0.00  0.00    -0.082 Cl
ATOM      7  C   UNL     1      34.219 -22.698 -15.981  0.00  0.00    +0.016 C 
ATOM      8  C   UNL     1      33.016 -22.858 -16.665  0.00  0.00    +0.002 C 
ATOM      9  C   UNL     1      35.279 -22.018 -16.576  0.00  0.00    +0.002 C 
ATOM     10  C   UNL     1      32.871 -22.335 -17.950  0.00  0.00    +0.011 C 
ATOM     11  C   UNL     1      35.134 -21.495 -17.861  0.00  0.00    +0.011 C 
ATOM     12  C   UNL     1      33.931 -21.653 -18.548  0.00  0.00    +0.058 C 
ENDBRANCH   3   7
BRANCH   1  13
ATOM     13  C   UNL     1      31.972 -23.540 -14.149  0.00  0.00    +0.074 C 
ATOM     14  C   UNL     1      31.345 -22.302 -14.187  0.00  0.00    +0.020 C 
ATOM     15  C   UNL     1      31.266 -24.707 -14.405  0.00  0.00    +0.020 C 
ATOM     16  C   UNL     1      29.985 -22.230 -14.490  0.00  0.00    +0.038 C 
ATOM     17  C   UNL     1      29.906 -24.635 -14.708  0.00  0.00    +0.038 C 
ATOM     18  C   UNL     1      29.265 -23.396 -14.750  0.00  0.00    +0.139 C 
BRANCH  18  19
ATOM     19  O   UNL     1      27.939 -23.326 -15.047  0.00  0.00    -0.471 OA
ATOM     20  C   UNL     1      27.491 -22.167 -15.747  0.00  0.00    +0.252 C 
ENDBRANCH  18  19
ENDBRANCH   1  13
BRANCH   4  21
ATOM     21  C   UNL     1      35.858 -24.455 -11.558  0.00  0.00    +0.057 C 
BRANCH  21  22
ATOM     22  C   UNL     1      36.953 -25.445 -11.964  0.00  0.00    +0.094 C 
BRANCH  22  25
ATOM     23  O   UNL     1      38.588 -23.695 -12.225  0.00  0.00    -0.273 OA
ATOM     24  N   UNL     1      38.642 -25.426 -13.727  0.00  0.00    -0.170 N 
ATOM     25  C   UNL     1      38.136 -24.765 -12.638  0.00  0.00    +0.248 C 
ATOM     26  C   UNL     1      39.758 -24.944 -14.513  0.00  0.00    +0.148 C 
BRANCH  24  27
ATOM     27  O   UNL     1      38.135 -26.641 -14.203  0.00  0.00    -0.292 OA
ATOM     28  H   UNL     1      37.307 -26.848 -13.742  0.00  0.00    +0.242 HD
ENDBRANCH  24  27
ENDBRANCH  22  25
ENDBRANCH  21  22
ENDBRANCH   4  21
TORSDOF 7
ENDMDL
MODEL 6
REMARK VINA RESULT:     -10.0      2.519      6.387
REMARK  Name = 59757
REMARK  7 active torsions:
REMARK  status: ('A' for Active; 'I' for Inactive)
REMARK    1  A    between atoms: N_1  and  C_13
REMARK    2  A    between atoms: C_3  and  C_7
REMARK    3  A    between atoms: C_4  and  C_21
REMARK    4  A    between atoms: C_18  and  O_19
REMARK    5  A    between atoms: C_21  and  C_22
REMARK    6  A    between atoms: C_22  and  C_25
REMARK    7  A    between atoms: N_24  and  O_27
REMARK                            x       y       z     vdW  Elec       q    Type
REMARK                         _______ _______ _______ _____ _____    ______ ____
ROOT
ATOM      1  N   UNL     1      34.372 -22.156 -16.870  0.00  0.00    -0.190 N 
ATOM      2  N   UNL     1      34.288 -21.568 -18.076  0.00  0.00    -0.178 NA
ATOM      3  C   UNL     1      35.649 -22.309 -16.419  0.00  0.00    +0.075 C 
ATOM      4  C   UNL     1      35.559 -21.355 -18.370  0.00  0.00    +0.079 C 
ATOM      5  C   UNL     1      36.458 -21.785 -17.398  0.00  0.00    +0.033 C 
ENDROOT
BRANCH   3   7
ATOM      6 CL   UNL     1      37.116 -24.791 -11.212  0.00  0.00    -0.082 Cl
ATOM      7  C   UNL     1      36.006 -22.912 -15.155  0.00  0.00    +0.016 C 
ATOM      8  C   UNL     1      36.002 -24.299 -15.021  0.00  0.00    +0.002 C 
ATOM      9  C   UNL     1      36.352 -22.104 -14.074  0.00  0.00    +0.002 C 
ATOM     10  C   UNL     1      36.345 -24.881 -13.801  0.00  0.00    +0.011 C 
ATOM     11  C   UNL     1      36.696 -22.686 -12.854  0.00  0.00    +0.011 C 
ATOM     12  C   UNL     1      36.693 -24.074 -12.717  0.00  0.00    +0.058 C 
ENDBRANCH   3   7
BRANCH   1  13
ATOM     13  C   UNL     1      33.203 -22.543 -16.213  0.00  0.00    +0.074 C 
ATOM     14  C   UNL     1      32.040 -22.741 -16.946  0.00  0.00    +0.020 C 
ATOM     15  C   UNL     1      33.218 -22.720 -14.836  0.00  0.00    +0.020 C 
ATOM     16  C   UNL     1      30.871 -23.127 -16.288  0.00  0.00    +0.038 C 
ATOM     17  C   UNL     1      32.050 -23.106 -14.180  0.00  0.00    +0.038 C 
ATOM     18  C   UNL     1      30.875 -23.309 -14.906  0.00  0.00    +0.139 C 
BRANCH  18  19
ATOM     19  O   UNL     1      29.736 -23.686 -14.265  0.00  0.00    -0.471 OA
ATOM     20  C   UNL     1      29.375 -25.064 -14.340  0.00  0.00    +0.252 C 
ENDBRANCH  18  19
ENDBRANCH   1  13
BRANCH   4  21
ATOM     21  C   UNL     1      35.898 -20.695 -19.673  0.00  0.00    +0.057 C 
BRANCH  21  22
ATOM     22  C   UNL     1      34.707 -19.940 -20.268  0.00  0.00    +0.094 C 
BRANCH  22  25
ATOM     23  O   UNL     1      35.997 -17.914 -20.466  0.00  0.00    -0.273 OA
ATOM     24  N   UNL     1      34.434 -18.336 -22.089  0.00  0.00    -0.170 N 
ATOM     25  C   UNL     1      35.118 -18.636 -20.940  0.00  0.00    +0.248 C 
ATOM     26  C   UNL     1      34.665 -17.141 -22.873  0.00  0.00    +0.148 C 
BRANCH  24  27
ATOM     27  O   UNL     1      33.434 -19.150 -22.634  0.00  0.00    -0.292 OA
ATOM     28  H   UNL     1      32.581 -18.692 -22.580  0.00  0.00    +0.242 HD
ENDBRANCH  24  27
ENDBRANCH  22  25
ENDBRANCH  21  22
ENDBRANCH   4  21
TORSDOF 7
ENDMDL
MODEL 7
REMARK VINA RESULT:     -10.0      3.949      7.066
REMARK  Name = 59757
REMARK  7 active torsions:
REMARK  status: ('A' for Active; 'I' for Inactive)
REMARK    1  A    between atoms: N_1  and  C_13
REMARK    2  A    between atoms: C_3  and  C_7
REMARK    3  A    between atoms: C_4  and  C_21
REMARK    4  A    between atoms: C_18  and  O_19
REMARK    5  A    between atoms: C_21  and  C_22
REMARK    6  A    between atoms: C_22  and  C_25
REMARK    7  A    between atoms: N_24  and  O_27
REMARK                            x       y       z     vdW  Elec       q    Type
REMARK                         _______ _______ _______ _____ _____    ______ ____
ROOT
ATOM      1  N   UNL     1      35.198 -22.387 -16.511  0.00  0.00    -0.190 N 
ATOM      2  N   UNL     1      36.016 -21.854 -17.436  0.00  0.00    -0.178 NA
ATOM      3  C   UNL     1      33.881 -22.364 -16.863  0.00  0.00    +0.075 C 
ATOM      4  C   UNL     1      35.166 -21.495 -18.384  0.00  0.00    +0.079 C 
ATOM      5  C   UNL     1      33.833 -21.776 -18.103  0.00  0.00    +0.033 C 
ENDROOT
BRANCH   3   7
ATOM      6 CL   UNL     1      29.452 -24.468 -13.488  0.00  0.00    -0.082 Cl
ATOM      7  C   UNL     1      32.806 -22.876 -16.043  0.00  0.00    +0.016 C 
ATOM      8  C   UNL     1      31.486 -22.757 -16.475  0.00  0.00    +0.002 C 
ATOM      9  C   UNL     1      33.092 -23.485 -14.823  0.00  0.00    +0.002 C 
ATOM     10  C   UNL     1      30.448 -23.250 -15.685  0.00  0.00    +0.011 C 
ATOM     11  C   UNL     1      32.053 -23.978 -14.033  0.00  0.00    +0.011 C 
ATOM     12  C   UNL     1      30.732 -23.861 -14.464  0.00  0.00    +0.058 C 
ENDBRANCH   3   7
BRANCH   1  13
ATOM     13  C   UNL     1      35.739 -22.893 -15.328  0.00  0.00    +0.074 C 
ATOM     14  C   UNL     1      35.988 -22.033 -14.268  0.00  0.00    +0.020 C 
ATOM     15  C   UNL     1      36.021 -24.249 -15.230  0.00  0.00    +0.020 C 
ATOM     16  C   UNL     1      36.530 -22.539 -13.086  0.00  0.00    +0.038 C 
ATOM     17  C   UNL     1      36.561 -24.755 -14.048  0.00  0.00    +0.038 C 
ATOM     18  C   UNL     1      36.817 -23.900 -12.975  0.00  0.00    +0.139 C 
BRANCH  18  19
ATOM     19  O   UNL     1      37.343 -24.393 -11.822  0.00  0.00    -0.471 OA
ATOM     20  C   UNL     1      37.210 -25.796 -11.596  0.00  0.00    +0.252 C 
ENDBRANCH  18  19
ENDBRANCH   1  13
BRANCH   4  21
ATOM     21  C   UNL     1      35.702 -20.842 -19.623  0.00  0.00    +0.057 C 
BRANCH  21  22
ATOM     22  C   UNL     1      34.628 -20.049 -20.372  0.00  0.00    +0.094 C 
BRANCH  22  25
ATOM     23  O   UNL     1      36.074 -18.123 -20.394  0.00  0.00    -0.273 OA
ATOM     24  N   UNL     1      34.532 -18.308 -22.080  0.00  0.00    -0.170 N 
ATOM     25  C   UNL     1      35.156 -18.739 -20.939  0.00  0.00    +0.248 C 
ATOM     26  C   UNL     1      34.877 -17.083 -22.771  0.00  0.00    +0.148 C 
BRANCH  24  27
ATOM     27  O   UNL     1      33.489 -19.001 -22.706  0.00  0.00    -0.292 OA
ATOM     28  H   UNL     1      33.828 -19.834 -23.069  0.00  0.00    +0.242 HD
ENDBRANCH  24  27
ENDBRANCH  22  25
ENDBRANCH  21  22
ENDBRANCH   4  21
TORSDOF 7
ENDMDL
MODEL 8
REMARK VINA RESULT:      -9.4      2.646      6.521
REMARK  Name = 59757
REMARK  7 active torsions:
REMARK  status: ('A' for Active; 'I' for Inactive)
REMARK    1  A    between atoms: N_1  and  C_13
REMARK    2  A    between atoms: C_3  and  C_7
REMARK    3  A    between atoms: C_4  and  C_21
REMARK    4  A    between atoms: C_18  and  O_19
REMARK    5  A    between atoms: C_21  and  C_22
REMARK    6  A    between atoms: C_22  and  C_25
REMARK    7  A    between atoms: N_24  and  O_27
REMARK                            x       y       z     vdW  Elec       q    Type
REMARK                         _______ _______ _______ _____ _____    ______ ____
ROOT
ATOM      1  N   UNL     1      32.751 -22.190 -17.169  0.00  0.00    -0.190 N 
ATOM      2  N   UNL     1      32.207 -21.596 -18.246  0.00  0.00    -0.178 NA
ATOM      3  C   UNL     1      34.115 -22.184 -17.167  0.00  0.00    +0.075 C 
ATOM      4  C   UNL     1      33.277 -21.215 -18.922  0.00  0.00    +0.079 C 
ATOM      5  C   UNL     1      34.489 -21.542 -18.322  0.00  0.00    +0.033 C 
ENDROOT
BRANCH   3   7
ATOM      6 CL   UNL     1      37.494 -24.545 -12.873  0.00  0.00    -0.082 Cl
ATOM      7  C   UNL     1      34.935 -22.757 -16.124  0.00  0.00    +0.016 C 
ATOM      8  C   UNL     1      35.976 -22.013 -15.571  0.00  0.00    +0.002 C 
ATOM      9  C   UNL     1      34.683 -24.051 -15.675  0.00  0.00    +0.002 C 
ATOM     10  C   UNL     1      36.768 -22.566 -14.565  0.00  0.00    +0.011 C 
ATOM     11  C   UNL     1      35.475 -24.604 -14.669  0.00  0.00    +0.011 C 
ATOM     12  C   UNL     1      36.517 -23.862 -14.113  0.00  0.00    +0.058 C 
ENDBRANCH   3   7
BRANCH   1  13
ATOM     13  C   UNL     1      31.917 -22.736 -16.192  0.00  0.00    +0.074 C 
ATOM     14  C   UNL     1      32.139 -22.432 -14.856  0.00  0.00    +0.020 C 
ATOM     15  C   UNL     1      30.879 -23.576 -16.571  0.00  0.00    +0.020 C 
ATOM     16  C   UNL     1      31.306 -22.979 -13.879  0.00  0.00    +0.038 C 
ATOM     17  C   UNL     1      30.046 -24.122 -15.595  0.00  0.00    +0.038 C 
ATOM     18  C   UNL     1      30.259 -23.824 -14.248  0.00  0.00    +0.139 C 
BRANCH  18  19
ATOM     19  O   UNL     1      29.446 -24.356 -13.296  0.00  0.00    -0.471 OA
ATOM     20  C   UNL     1      28.430 -25.256 -13.739  0.00  0.00    +0.252 C 
ENDBRANCH  18  19
ENDBRANCH   1  13
BRANCH   4  21
ATOM     21  C   UNL     1      33.089 -20.495 -20.224  0.00  0.00    +0.057 C 
BRANCH  21  22
ATOM     22  C   UNL     1      34.396 -19.897 -20.751  0.00  0.00    +0.094 C 
BRANCH  22  25
ATOM     23  O   UNL     1      33.487 -19.081 -22.828  0.00  0.00    -0.273 OA
ATOM     24  N   UNL     1      34.772 -17.637 -21.596  0.00  0.00    -0.170 N 
ATOM     25  C   UNL     1      34.166 -18.844 -21.827  0.00  0.00    +0.248 C 
ATOM     26  C   UNL     1      34.686 -16.509 -22.498  0.00  0.00    +0.148 C 
BRANCH  24  27
ATOM     27  O   UNL     1      35.545 -17.360 -20.462  0.00  0.00    -0.292 OA
ATOM     28  H   UNL     1      35.494 -16.412 -20.261  0.00  0.00    +0.242 HD
ENDBRANCH  24  27
ENDBRANCH  22  25
ENDBRANCH  21  22
ENDBRANCH   4  21
TORSDOF 7
ENDMDL
MODEL 9
REMARK VINA RESULT:      -7.9     13.996     17.555
REMARK  Name = 59757
REMARK  7 active torsions:
REMARK  status: ('A' for Active; 'I' for Inactive)
REMARK    1  A    between atoms: N_1  and  C_13
REMARK    2  A    between atoms: C_3  and  C_7
REMARK    3  A    between atoms: C_4  and  C_21
REMARK    4  A    between atoms: C_18  and  O_19
REMARK    5  A    between atoms: C_21  and  C_22
REMARK    6  A    between atoms: C_22  and  C_25
REMARK    7  A    between atoms: N_24  and  O_27
REMARK                            x       y       z     vdW  Elec       q    Type
REMARK                         _______ _______ _______ _____ _____    ______ ____
ROOT
ATOM      1  N   UNL     1      31.406  -8.094 -22.210  0.00  0.00    -0.190 N 
ATOM      2  N   UNL     1      30.919  -9.111 -21.478  0.00  0.00    -0.178 NA
ATOM      3  C   UNL     1      32.248  -8.487 -23.207  0.00  0.00    +0.075 C 
ATOM      4  C   UNL     1      31.483 -10.160 -22.051  0.00  0.00    +0.079 C 
ATOM      5  C   UNL     1      32.317  -9.856 -23.123  0.00  0.00    +0.033 C 
ENDROOT
BRANCH   3   7
ATOM      6 CL   UNL     1      34.938  -4.779 -27.008  0.00  0.00    -0.082 Cl
ATOM      7  C   UNL     1      32.901  -7.587 -24.130  0.00  0.00    +0.016 C 
ATOM      8  C   UNL     1      34.284  -7.422 -24.079  0.00  0.00    +0.002 C 
ATOM      9  C   UNL     1      32.146  -6.887 -25.069  0.00  0.00    +0.002 C 
ATOM     10  C   UNL     1      34.915  -6.554 -24.970  0.00  0.00    +0.011 C 
ATOM     11  C   UNL     1      32.777  -6.018 -25.959  0.00  0.00    +0.011 C 
ATOM     12  C   UNL     1      34.161  -5.852 -25.911  0.00  0.00    +0.058 C 
ENDBRANCH   3   7
BRANCH   1  13
ATOM     13  C   UNL     1      31.028  -6.786 -21.902  0.00  0.00    +0.074 C 
ATOM     14  C   UNL     1      31.682  -6.107 -20.883  0.00  0.00    +0.020 C 
ATOM     15  C   UNL     1      30.003  -6.184 -22.618  0.00  0.00    +0.020 C 
ATOM     16  C   UNL     1      31.304  -4.799 -20.575  0.00  0.00    +0.038 C 
ATOM     17  C   UNL     1      29.625  -4.876 -22.311  0.00  0.00    +0.038 C 
ATOM     18  C   UNL     1      30.276  -4.184 -21.289  0.00  0.00    +0.139 C 
BRANCH  18  19
ATOM     19  O   UNL     1      29.908  -2.909 -20.989  0.00  0.00    -0.471 OA
ATOM     20  C   UNL     1      29.905  -1.966 -22.060  0.00  0.00    +0.252 C 
ENDBRANCH  18  19
ENDBRANCH   1  13
BRANCH   4  21
ATOM     21  C   UNL     1      31.184 -11.526 -21.510  0.00  0.00    +0.057 C 
BRANCH  21  22
ATOM     22  C   UNL     1      32.452 -12.282 -21.107  0.00  0.00    +0.094 C 
BRANCH  22  25
ATOM     23  O   UNL     1      32.493 -13.237 -23.319  0.00  0.00    -0.273 OA
ATOM     24  N   UNL     1      33.711 -14.292 -21.688  0.00  0.00    -0.170 N 
ATOM     25  C   UNL     1      32.880 -13.305 -22.150  0.00  0.00    +0.248 C 
ATOM     26  C   UNL     1      34.224 -15.364 -22.515  0.00  0.00    +0.148 C 
BRANCH  24  27
ATOM     27  O   UNL     1      34.156 -14.377 -20.364  0.00  0.00    -0.292 OA
ATOM     28  H   UNL     1      33.949 -13.550 -19.900  0.00  0.00    +0.242 HD
ENDBRANCH  24  27
ENDBRANCH  22  25
ENDBRANCH  21  22
ENDBRANCH   4  21
TORSDOF 7
ENDMDL
