MODEL 1
REMARK VINA RESULT:     -11.9      0.000      0.000
REMARK  Name = 68869
REMARK  4 active torsions:
REMARK  status: ('A' for Active; 'I' for Inactive)
REMARK    1  A    between atoms: C_3  and  C_17
REMARK    2  A    between atoms: C_9  and  C_11
REMARK    3  A    between atoms: C_17  and  C_20
REMARK    4  A    between atoms: C_20  and  O_21
REMARK                            x       y       z     vdW  Elec       q    Type
REMARK                         _______ _______ _______ _____ _____    ______ ____
ROOT
ATOM      1  O   UNL     1      32.872 -13.576 -23.631  0.00  0.00    -0.425 OA
ATOM      2  N   UNL     1      33.449 -13.820 -21.453  0.00  0.00    -0.368 NA
ATOM      3  C   UNL     1      34.636 -17.137 -22.700  0.00  0.00    -0.027 C 
ATOM      4  C   UNL     1      33.796 -14.952 -22.148  0.00  0.00    +0.151 C 
ATOM      5  C   UNL     1      34.409 -16.144 -21.736  0.00  0.00    +0.085 C 
ATOM      6  C   UNL     1      33.444 -14.807 -23.483  0.00  0.00    +0.174 C 
ATOM      7  C   UNL     1      34.266 -16.949 -24.037  0.00  0.00    -0.004 C 
ATOM      8  C   UNL     1      33.654 -15.766 -24.465  0.00  0.00    +0.039 C 
ATOM      9  C   UNL     1      32.913 -13.051 -22.373  0.00  0.00    +0.282 C 
ENDROOT
BRANCH   9  11
ATOM     10  F   UNL     1      30.767  -7.933 -21.879  0.00  0.00    -0.204 F 
ATOM     11  C   UNL     1      32.359 -11.731 -22.246  0.00  0.00    +0.067 C 
ATOM     12  C   UNL     1      32.688 -10.738 -23.173  0.00  0.00    +0.008 C 
ATOM     13  C   UNL     1      31.489 -11.432 -21.194  0.00  0.00    +0.008 C 
ATOM     14  C   UNL     1      32.150  -9.457 -23.050  0.00  0.00    +0.030 C 
ATOM     15  C   UNL     1      30.952 -10.151 -21.070  0.00  0.00    +0.030 C 
ATOM     16  C   UNL     1      31.283  -9.164 -21.998  0.00  0.00    +0.140 C 
ENDBRANCH   9  11
BRANCH   3  17
ATOM     17  C   UNL     1      35.287 -18.419 -22.292  0.00  0.00    +0.118 C 
ATOM     18  C   UNL     1      34.326 -19.406 -21.600  0.00  0.00    +0.016 C 
BRANCH  17  20
ATOM     19  O   UNL     1      36.486 -18.234 -20.171  0.00  0.00    -0.250 OA
ATOM     20  C   UNL     1      36.508 -18.196 -21.394  0.00  0.00    +0.317 C 
BRANCH  20  21
ATOM     21  O   UNL     1      37.644 -17.939 -22.096  0.00  0.00    -0.480 OA
ATOM     22  H   UNL     1      38.321 -18.584 -22.143  0.00  0.00    +0.295 HD
ENDBRANCH  20  21
ENDBRANCH  17  20
ENDBRANCH   3  17
TORSDOF 4
ENDMDL
MODEL 2
REMARK VINA RESULT:     -11.9      0.027      1.055
REMARK  Name = 68869
REMARK  4 active torsions:
REMARK  status: ('A' for Active; 'I' for Inactive)
REMARK    1  A    between atoms: C_3  and  C_17
REMARK    2  A    between atoms: C_9  and  C_11
REMARK    3  A    between atoms: C_17  and  C_20
REMARK    4  A    between atoms: C_20  and  O_21
REMARK                            x       y       z     vdW  Elec       q    Type
REMARK                         _______ _______ _______ _____ _____    ______ ____
ROOT
ATOM      1  O   UNL     1      32.864 -13.555 -23.644  0.00  0.00    -0.425 OA
ATOM      2  N   UNL     1      33.447 -13.804 -21.468  0.00  0.00    -0.368 NA
ATOM      3  C   UNL     1      34.628 -17.119 -22.725  0.00  0.00    -0.027 C 
ATOM      4  C   UNL     1      33.791 -14.935 -22.167  0.00  0.00    +0.151 C 
ATOM      5  C   UNL     1      34.404 -16.128 -21.758  0.00  0.00    +0.085 C 
ATOM      6  C   UNL     1      33.435 -14.787 -23.500  0.00  0.00    +0.174 C 
ATOM      7  C   UNL     1      34.254 -16.928 -24.061  0.00  0.00    -0.004 C 
ATOM      8  C   UNL     1      33.641 -15.744 -24.485  0.00  0.00    +0.039 C 
ATOM      9  C   UNL     1      32.908 -13.033 -22.385  0.00  0.00    +0.282 C 
ENDROOT
BRANCH   9  11
ATOM     10  F   UNL     1      30.764  -7.915 -21.876  0.00  0.00    -0.204 F 
ATOM     11  C   UNL     1      32.356 -11.713 -22.254  0.00  0.00    +0.067 C 
ATOM     12  C   UNL     1      31.484 -11.417 -21.202  0.00  0.00    +0.008 C 
ATOM     13  C   UNL     1      32.686 -10.717 -23.178  0.00  0.00    +0.008 C 
ATOM     14  C   UNL     1      30.948 -10.135 -21.074  0.00  0.00    +0.030 C 
ATOM     15  C   UNL     1      32.148  -9.436 -23.050  0.00  0.00    +0.030 C 
ATOM     16  C   UNL     1      31.280  -9.146 -21.998  0.00  0.00    +0.140 C 
ENDBRANCH   9  11
BRANCH   3  17
ATOM     17  C   UNL     1      35.278 -18.402 -22.322  0.00  0.00    +0.118 C 
ATOM     18  C   UNL     1      34.315 -19.397 -21.644  0.00  0.00    +0.016 C 
BRANCH  17  20
ATOM     19  O   UNL     1      36.458 -18.211 -20.191  0.00  0.00    -0.250 OA
ATOM     20  C   UNL     1      36.493 -18.183 -21.414  0.00  0.00    +0.317 C 
BRANCH  20  21
ATOM     21  O   UNL     1      37.638 -17.941 -22.107  0.00  0.00    -0.480 OA
ATOM     22  H   UNL     1      38.275 -18.620 -22.210  0.00  0.00    +0.295 HD
ENDBRANCH  20  21
ENDBRANCH  17  20
ENDBRANCH   3  17
TORSDOF 4
ENDMDL
MODEL 3
REMARK VINA RESULT:     -11.1      1.162      1.978
REMARK  Name = 68869
REMARK  4 active torsions:
REMARK  status: ('A' for Active; 'I' for Inactive)
REMARK    1  A    between atoms: C_3  and  C_17
REMARK    2  A    between atoms: C_9  and  C_11
REMARK    3  A    between atoms: C_17  and  C_20
REMARK    4  A    between atoms: C_20  and  O_21
REMARK                            x       y       z     vdW  Elec       q    Type
REMARK                         _______ _______ _______ _____ _____    ______ ____
ROOT
ATOM      1  O   UNL     1      32.870 -12.899 -21.062  0.00  0.00    -0.425 OA
ATOM      2  N   UNL     1      33.119 -13.207 -23.293  0.00  0.00    -0.368 NA
ATOM      3  C   UNL     1      34.619 -16.427 -22.133  0.00  0.00    -0.027 C 
ATOM      4  C   UNL     1      33.615 -14.298 -22.622  0.00  0.00    +0.151 C 
ATOM      5  C   UNL     1      34.207 -15.482 -23.084  0.00  0.00    +0.085 C 
ATOM      6  C   UNL     1      33.464 -14.113 -21.255  0.00  0.00    +0.174 C 
ATOM      7  C   UNL     1      34.448 -16.201 -20.762  0.00  0.00    -0.004 C 
ATOM      8  C   UNL     1      33.859 -15.025 -20.285  0.00  0.00    +0.039 C 
ATOM      9  C   UNL     1      32.698 -12.422 -22.327  0.00  0.00    +0.282 C 
ENDROOT
BRANCH   9  11
ATOM     10  F   UNL     1      30.299  -7.404 -22.656  0.00  0.00    -0.204 F 
ATOM     11  C   UNL     1      32.079 -11.127 -22.412  0.00  0.00    +0.067 C 
ATOM     12  C   UNL     1      30.983 -10.817 -21.602  0.00  0.00    +0.008 C 
ATOM     13  C   UNL     1      32.570 -10.171 -23.305  0.00  0.00    +0.008 C 
ATOM     14  C   UNL     1      30.383  -9.561 -21.684  0.00  0.00    +0.030 C 
ATOM     15  C   UNL     1      31.969  -8.915 -23.388  0.00  0.00    +0.030 C 
ATOM     16  C   UNL     1      30.876  -8.610 -22.577  0.00  0.00    +0.140 C 
ENDBRANCH   9  11
BRANCH   3  17
ATOM     17  C   UNL     1      35.254 -17.699 -22.593  0.00  0.00    +0.118 C 
ATOM     18  C   UNL     1      34.237 -18.789 -22.986  0.00  0.00    +0.016 C 
BRANCH  17  20
ATOM     19  O   UNL     1      35.906 -18.974 -20.614  0.00  0.00    -0.250 OA
ATOM     20  C   UNL     1      36.232 -18.273 -21.563  0.00  0.00    +0.317 C 
BRANCH  20  21
ATOM     21  O   UNL     1      37.522 -17.918 -21.800  0.00  0.00    -0.480 OA
ATOM     22  H   UNL     1      38.208 -18.261 -21.263  0.00  0.00    +0.295 HD
ENDBRANCH  20  21
ENDBRANCH  17  20
ENDBRANCH   3  17
TORSDOF 4
ENDMDL
MODEL 4
REMARK VINA RESULT:     -11.1      6.803     10.389
REMARK  Name = 68869
REMARK  4 active torsions:
REMARK  status: ('A' for Active; 'I' for Inactive)
REMARK    1  A    between atoms: C_3  and  C_17
REMARK    2  A    between atoms: C_9  and  C_11
REMARK    3  A    between atoms: C_17  and  C_20
REMARK    4  A    between atoms: C_20  and  O_21
REMARK                            x       y       z     vdW  Elec       q    Type
REMARK                         _______ _______ _______ _____ _____    ______ ____
ROOT
ATOM      1  O   UNL     1      33.754 -22.247 -17.551  0.00  0.00    -0.425 OA
ATOM      2  N   UNL     1      31.794 -21.360 -18.264  0.00  0.00    -0.368 NA
ATOM      3  C   UNL     1      34.057 -19.749 -20.765  0.00  0.00    -0.027 C 
ATOM      4  C   UNL     1      32.820 -20.901 -19.055  0.00  0.00    +0.151 C 
ATOM      5  C   UNL     1      32.826 -20.031 -20.155  0.00  0.00    +0.085 C 
ATOM      6  C   UNL     1      34.022 -21.442 -18.621  0.00  0.00    +0.174 C 
ATOM      7  C   UNL     1      35.248 -20.318 -20.296  0.00  0.00    -0.004 C 
ATOM      8  C   UNL     1      35.258 -21.188 -19.200  0.00  0.00    +0.039 C 
ATOM      9  C   UNL     1      32.404 -22.142 -17.402  0.00  0.00    +0.282 C 
ENDROOT
BRANCH   9  11
ATOM     10  F   UNL     1      30.254 -25.105 -13.201  0.00  0.00    -0.204 F 
ATOM     11  C   UNL     1      31.849 -22.907 -16.319  0.00  0.00    +0.067 C 
ATOM     12  C   UNL     1      30.483 -23.203 -16.294  0.00  0.00    +0.008 C 
ATOM     13  C   UNL     1      32.673 -23.358 -15.283  0.00  0.00    +0.008 C 
ATOM     14  C   UNL     1      29.945 -23.946 -15.242  0.00  0.00    +0.030 C 
ATOM     15  C   UNL     1      32.134 -24.099 -14.231  0.00  0.00    +0.030 C 
ATOM     16  C   UNL     1      30.771 -24.393 -14.212  0.00  0.00    +0.140 C 
ENDBRANCH   9  11
BRANCH   3  17
ATOM     17  C   UNL     1      34.098 -18.826 -21.939  0.00  0.00    +0.118 C 
ATOM     18  C   UNL     1      34.627 -19.487 -23.226  0.00  0.00    +0.016 C 
BRANCH  17  20
ATOM     19  O   UNL     1      35.102 -17.091 -20.542  0.00  0.00    -0.250 OA
ATOM     20  C   UNL     1      34.907 -17.556 -21.658  0.00  0.00    +0.317 C 
BRANCH  20  21
ATOM     21  O   UNL     1      35.393 -16.975 -22.786  0.00  0.00    -0.480 OA
ATOM     22  H   UNL     1      35.733 -17.507 -23.478  0.00  0.00    +0.295 HD
ENDBRANCH  20  21
ENDBRANCH  17  20
ENDBRANCH   3  17
TORSDOF 4
ENDMDL
MODEL 5
REMARK VINA RESULT:     -11.0      4.731      7.512
REMARK  Name = 68869
REMARK  4 active torsions:
REMARK  status: ('A' for Active; 'I' for Inactive)
REMARK    1  A    between atoms: C_3  and  C_17
REMARK    2  A    between atoms: C_9  and  C_11
REMARK    3  A    between atoms: C_17  and  C_20
REMARK    4  A    between atoms: C_20  and  O_21
REMARK                            x       y       z     vdW  Elec       q    Type
REMARK                         _______ _______ _______ _____ _____    ______ ____
ROOT
ATOM      1  O   UNL     1      35.270 -19.527 -20.461  0.00  0.00    -0.425 OA
ATOM      2  N   UNL     1      33.027 -19.849 -20.537  0.00  0.00    -0.368 NA
ATOM      3  C   UNL     1      33.818 -22.213 -17.753  0.00  0.00    -0.027 C 
ATOM      4  C   UNL     1      33.571 -20.638 -19.553  0.00  0.00    +0.151 C 
ATOM      5  C   UNL     1      32.983 -21.544 -18.659  0.00  0.00    +0.085 C 
ATOM      6  C   UNL     1      34.944 -20.444 -19.504  0.00  0.00    +0.174 C 
ATOM      7  C   UNL     1      35.200 -21.988 -17.736  0.00  0.00    -0.004 C 
ATOM      8  C   UNL     1      35.803 -21.087 -18.622  0.00  0.00    +0.039 C 
ATOM      9  C   UNL     1      34.071 -19.222 -21.033  0.00  0.00    +0.282 C 
ENDROOT
BRANCH   9  11
ATOM     10  F   UNL     1      34.305 -15.485 -25.159  0.00  0.00    -0.204 F 
ATOM     11  C   UNL     1      34.131 -18.258 -22.097  0.00  0.00    +0.067 C 
ATOM     12  C   UNL     1      33.677 -18.593 -23.376  0.00  0.00    +0.008 C 
ATOM     13  C   UNL     1      34.644 -16.979 -21.859  0.00  0.00    +0.008 C 
ATOM     14  C   UNL     1      33.736 -17.657 -24.409  0.00  0.00    +0.030 C 
ATOM     15  C   UNL     1      34.703 -16.044 -22.892  0.00  0.00    +0.030 C 
ATOM     16  C   UNL     1      34.249 -16.383 -24.167  0.00  0.00    +0.140 C 
ENDBRANCH   9  11
BRANCH   3  17
ATOM     17  C   UNL     1      33.222 -23.185 -16.787  0.00  0.00    +0.118 C 
ATOM     18  C   UNL     1      31.772 -22.847 -16.388  0.00  0.00    +0.016 C 
BRANCH  17  20
ATOM     19  O   UNL     1      34.862 -24.257 -15.327  0.00  0.00    -0.250 OA
ATOM     20  C   UNL     1      34.067 -23.345 -15.519  0.00  0.00    +0.317 C 
BRANCH  20  21
ATOM     21  O   UNL     1      33.844 -22.365 -14.604  0.00  0.00    -0.480 OA
ATOM     22  H   UNL     1      34.567 -21.956 -14.171  0.00  0.00    +0.295 HD
ENDBRANCH  20  21
ENDBRANCH  17  20
ENDBRANCH   3  17
TORSDOF 4
ENDMDL
MODEL 6
REMARK VINA RESULT:     -10.8      6.425      9.507
REMARK  Name = 68869
REMARK  4 active torsions:
REMARK  status: ('A' for Active; 'I' for Inactive)
REMARK    1  A    between atoms: C_3  and  C_17
REMARK    2  A    between atoms: C_9  and  C_11
REMARK    3  A    between atoms: C_17  and  C_20
REMARK    4  A    between atoms: C_20  and  O_21
REMARK                            x       y       z     vdW  Elec       q    Type
REMARK                         _______ _______ _______ _____ _____    ______ ____
ROOT
ATOM      1  O   UNL     1      36.340 -20.480 -18.400  0.00  0.00    -0.425 OA
ATOM      2  N   UNL     1      34.287 -21.405 -18.654  0.00  0.00    -0.368 NA
ATOM      3  C   UNL     1      35.294 -23.180 -15.523  0.00  0.00    -0.027 C 
ATOM      4  C   UNL     1      34.883 -21.916 -17.528  0.00  0.00    +0.151 C 
ATOM      5  C   UNL     1      34.438 -22.855 -16.586  0.00  0.00    +0.085 C 
ATOM      6  C   UNL     1      36.141 -21.353 -17.369  0.00  0.00    +0.174 C 
ATOM      7  C   UNL     1      36.556 -22.586 -15.399  0.00  0.00    -0.004 C 
ATOM      8  C   UNL     1      37.015 -21.648 -16.330  0.00  0.00    +0.039 C 
ATOM      9  C   UNL     1      35.188 -20.571 -19.122  0.00  0.00    +0.282 C 
ENDROOT
BRANCH   9  11
ATOM     10  F   UNL     1      34.979 -17.333 -23.652  0.00  0.00    -0.204 F 
ATOM     11  C   UNL     1      35.134 -19.736 -20.291  0.00  0.00    +0.067 C 
ATOM     12  C   UNL     1      36.232 -18.946 -20.642  0.00  0.00    +0.008 C 
ATOM     13  C   UNL     1      33.983 -19.709 -21.083  0.00  0.00    +0.008 C 
ATOM     14  C   UNL     1      36.180 -18.136 -21.776  0.00  0.00    +0.030 C 
ATOM     15  C   UNL     1      33.931 -18.898 -22.217  0.00  0.00    +0.030 C 
ATOM     16  C   UNL     1      35.029 -18.112 -22.563  0.00  0.00    +0.140 C 
ENDBRANCH   9  11
BRANCH   3  17
ATOM     17  C   UNL     1      34.848 -24.177 -14.504  0.00  0.00    +0.118 C 
ATOM     18  C   UNL     1      34.896 -23.644 -13.058  0.00  0.00    +0.016 C 
BRANCH  17  20
ATOM     19  O   UNL     1      35.748 -26.171 -15.591  0.00  0.00    -0.250 OA
ATOM     20  C   UNL     1      35.638 -25.488 -14.581  0.00  0.00    +0.317 C 
BRANCH  20  21
ATOM     21  O   UNL     1      36.211 -25.834 -13.399  0.00  0.00    -0.480 OA
ATOM     22  H   UNL     1      37.098 -25.592 -13.220  0.00  0.00    +0.295 HD
ENDBRANCH  20  21
ENDBRANCH  17  20
ENDBRANCH   3  17
TORSDOF 4
ENDMDL
MODEL 7
REMARK VINA RESULT:     -10.8      7.718     10.862
REMARK  Name = 68869
REMARK  4 active torsions:
REMARK  status: ('A' for Active; 'I' for Inactive)
REMARK    1  A    between atoms: C_3  and  C_17
REMARK    2  A    between atoms: C_9  and  C_11
REMARK    3  A    between atoms: C_17  and  C_20
REMARK    4  A    between atoms: C_20  and  O_21
REMARK                            x       y       z     vdW  Elec       q    Type
REMARK                         _______ _______ _______ _____ _____    ______ ____
ROOT
ATOM      1  O   UNL     1      34.250 -22.423 -17.062  0.00  0.00    -0.425 OA
ATOM      2  N   UNL     1      36.357 -21.589 -17.110  0.00  0.00    -0.368 NA
ATOM      3  C   UNL     1      36.664 -23.655 -14.011  0.00  0.00    -0.027 C 
ATOM      4  C   UNL     1      36.214 -22.412 -16.019  0.00  0.00    +0.151 C 
ATOM      5  C   UNL     1      37.115 -22.781 -15.010  0.00  0.00    +0.085 C 
ATOM      6  C   UNL     1      34.925 -22.924 -15.986  0.00  0.00    +0.174 C 
ATOM      7  C   UNL     1      35.354 -24.150 -14.016  0.00  0.00    -0.004 C 
ATOM      8  C   UNL     1      34.443 -23.792 -15.015  0.00  0.00    +0.039 C 
ATOM      9  C   UNL     1      35.174 -21.636 -17.681  0.00  0.00    +0.282 C 
ENDROOT
BRANCH   9  11
ATOM     10  F   UNL     1      33.382 -19.061 -22.286  0.00  0.00    -0.204 F 
ATOM     11  C   UNL     1      34.712 -20.972 -18.869  0.00  0.00    +0.067 C 
ATOM     12  C   UNL     1      35.623 -20.345 -19.724  0.00  0.00    +0.008 C 
ATOM     13  C   UNL     1      33.348 -20.948 -19.176  0.00  0.00    +0.008 C 
ATOM     14  C   UNL     1      35.174 -19.701 -20.877  0.00  0.00    +0.030 C 
ATOM     15  C   UNL     1      32.900 -20.303 -20.328  0.00  0.00    +0.030 C 
ATOM     16  C   UNL     1      33.813 -19.680 -21.179  0.00  0.00    +0.140 C 
ENDBRANCH   9  11
BRANCH   3  17
ATOM     17  C   UNL     1      37.600 -24.067 -12.921  0.00  0.00    +0.118 C 
ATOM     18  C   UNL     1      37.651 -25.591 -12.694  0.00  0.00    +0.016 C 
BRANCH  17  20
ATOM     19  O   UNL     1      36.919 -23.948 -10.578  0.00  0.00    -0.250 OA
ATOM     20  C   UNL     1      37.293 -23.371 -11.591  0.00  0.00    +0.317 C 
BRANCH  20  21
ATOM     21  O   UNL     1      37.472 -22.025 -11.642  0.00  0.00    -0.480 OA
ATOM     22  H   UNL     1      37.804 -21.568 -10.895  0.00  0.00    +0.295 HD
ENDBRANCH  20  21
ENDBRANCH  17  20
ENDBRANCH   3  17
TORSDOF 4
ENDMDL
MODEL 8
REMARK VINA RESULT:     -10.6      7.001     10.832
REMARK  Name = 68869
REMARK  4 active torsions:
REMARK  status: ('A' for Active; 'I' for Inactive)
REMARK    1  A    between atoms: C_3  and  C_17
REMARK    2  A    between atoms: C_9  and  C_11
REMARK    3  A    between atoms: C_17  and  C_20
REMARK    4  A    between atoms: C_20  and  O_21
REMARK                            x       y       z     vdW  Elec       q    Type
REMARK                         _______ _______ _______ _____ _____    ______ ____
ROOT
ATOM      1  O   UNL     1      34.248 -22.071 -17.578  0.00  0.00    -0.425 OA
ATOM      2  N   UNL     1      36.369 -21.273 -17.619  0.00  0.00    -0.368 NA
ATOM      3  C   UNL     1      35.071 -19.507 -20.646  0.00  0.00    -0.027 C 
ATOM      4  C   UNL     1      35.663 -20.749 -18.674  0.00  0.00    +0.151 C 
ATOM      5  C   UNL     1      36.037 -19.862 -19.692  0.00  0.00    +0.085 C 
ATOM      6  C   UNL     1      34.363 -21.236 -18.653  0.00  0.00    +0.174 C 
ATOM      7  C   UNL     1      33.770 -20.021 -20.587  0.00  0.00    -0.004 C 
ATOM      8  C   UNL     1      33.380 -20.908 -19.578  0.00  0.00    +0.039 C 
ATOM      9  C   UNL     1      35.489 -22.039 -17.014  0.00  0.00    +0.282 C 
ENDROOT
BRANCH   9  11
ATOM     10  F   UNL     1      36.095 -25.193 -12.462  0.00  0.00    -0.204 F 
ATOM     11  C   UNL     1      35.645 -22.852 -15.840  0.00  0.00    +0.067 C 
ATOM     12  C   UNL     1      36.897 -22.975 -15.231  0.00  0.00    +0.008 C 
ATOM     13  C   UNL     1      34.546 -23.525 -15.299  0.00  0.00    +0.008 C 
ATOM     14  C   UNL     1      37.049 -23.764 -14.091  0.00  0.00    +0.030 C 
ATOM     15  C   UNL     1      34.698 -24.316 -14.160  0.00  0.00    +0.030 C 
ATOM     16  C   UNL     1      35.950 -24.435 -13.556  0.00  0.00    +0.140 C 
ENDBRANCH   9  11
BRANCH   3  17
ATOM     17  C   UNL     1      35.439 -18.563 -21.744  0.00  0.00    +0.118 C 
ATOM     18  C   UNL     1      36.959 -18.378 -21.915  0.00  0.00    +0.016 C 
BRANCH  17  20
ATOM     19  O   UNL     1      34.712 -16.575 -20.523  0.00  0.00    -0.250 OA
ATOM     20  C   UNL     1      34.781 -17.189 -21.580  0.00  0.00    +0.317 C 
BRANCH  20  21
ATOM     21  O   UNL     1      34.262 -16.707 -22.741  0.00  0.00    -0.480 OA
ATOM     22  H   UNL     1      33.468 -16.210 -22.728  0.00  0.00    +0.295 HD
ENDBRANCH  20  21
ENDBRANCH  17  20
ENDBRANCH   3  17
TORSDOF 4
ENDMDL
MODEL 9
REMARK VINA RESULT:     -10.5      6.286      9.313
REMARK  Name = 68869
REMARK  4 active torsions:
REMARK  status: ('A' for Active; 'I' for Inactive)
REMARK    1  A    between atoms: C_3  and  C_17
REMARK    2  A    between atoms: C_9  and  C_11
REMARK    3  A    between atoms: C_17  and  C_20
REMARK    4  A    between atoms: C_20  and  O_21
REMARK                            x       y       z     vdW  Elec       q    Type
REMARK                         _______ _______ _______ _____ _____    ______ ____
ROOT
ATOM      1  O   UNL     1      33.975 -21.198 -18.840  0.00  0.00    -0.425 OA
ATOM      2  N   UNL     1      36.137 -20.781 -18.300  0.00  0.00    -0.368 NA
ATOM      3  C   UNL     1      35.311 -23.088 -15.478  0.00  0.00    -0.027 C 
ATOM      4  C   UNL     1      35.591 -21.638 -17.376  0.00  0.00    +0.151 C 
ATOM      5  C   UNL     1      36.137 -22.245 -16.236  0.00  0.00    +0.085 C 
ATOM      6  C   UNL     1      34.267 -21.896 -17.703  0.00  0.00    +0.174 C 
ATOM      7  C   UNL     1      33.980 -23.322 -15.844  0.00  0.00    -0.004 C 
ATOM      8  C   UNL     1      33.420 -22.725 -16.979  0.00  0.00    +0.039 C 
ATOM      9  C   UNL     1      35.143 -20.559 -19.131  0.00  0.00    +0.282 C 
ENDROOT
BRANCH   9  11
ATOM     10  F   UNL     1      35.012 -17.360 -23.692  0.00  0.00    -0.204 F 
ATOM     11  C   UNL     1      35.110 -19.734 -20.308  0.00  0.00    +0.067 C 
ATOM     12  C   UNL     1      36.217 -18.955 -20.652  0.00  0.00    +0.008 C 
ATOM     13  C   UNL     1      33.968 -19.706 -21.114  0.00  0.00    +0.008 C 
ATOM     14  C   UNL     1      36.185 -18.154 -21.794  0.00  0.00    +0.030 C 
ATOM     15  C   UNL     1      33.935 -18.905 -22.255  0.00  0.00    +0.030 C 
ATOM     16  C   UNL     1      35.044 -18.130 -22.595  0.00  0.00    +0.140 C 
ENDBRANCH   9  11
BRANCH   3  17
ATOM     17  C   UNL     1      35.863 -23.749 -14.257  0.00  0.00    +0.118 C 
ATOM     18  C   UNL     1      36.300 -22.757 -13.162  0.00  0.00    +0.016 C 
BRANCH  17  20
ATOM     19  O   UNL     1      38.175 -24.535 -14.171  0.00  0.00    -0.250 OA
ATOM     20  C   UNL     1      37.031 -24.689 -14.577  0.00  0.00    +0.317 C 
BRANCH  20  21
ATOM     21  O   UNL     1      36.672 -25.729 -15.377  0.00  0.00    -0.480 OA
ATOM     22  H   UNL     1      36.108 -25.583 -16.109  0.00  0.00    +0.295 HD
ENDBRANCH  20  21
ENDBRANCH  17  20
ENDBRANCH   3  17
TORSDOF 4
ENDMDL
