MODEL 1
REMARK VINA RESULT:     -11.6      0.000      0.000
REMARK  Name = 5338
REMARK  3 active torsions:
REMARK  status: ('A' for Active; 'I' for Inactive)
REMARK    1  A    between atoms: S_1  and  N_4
REMARK    2  A    between atoms: S_1  and  C_16
REMARK    3  A    between atoms: C_21  and  N_22
REMARK                            x       y       z     vdW  Elec       q    Type
REMARK                         _______ _______ _______ _____ _____    ______ ____
ROOT
ATOM      1  S   UNL     1      35.328 -18.037 -21.404  0.00  0.00    +0.075 S 
ATOM      2  O   UNL     1      34.932 -18.158 -22.795  0.00  0.00    -0.150 OA
ATOM      3  O   UNL     1      36.733 -17.926 -21.062  0.00  0.00    -0.150 OA
ENDROOT
BRANCH   1   4
ATOM      4  N   UNL     1      34.440 -16.751 -20.675  0.00  0.00    -0.191 N 
ATOM      5  N   UNL     1      33.835 -15.794 -22.751  0.00  0.00    -0.391 NA
ATOM      6  N   UNL     1      33.849 -13.252 -21.629  0.00  0.00    -0.263 NA
ATOM      7  C   UNL     1      34.133 -15.598 -21.454  0.00  0.00    +0.200 C 
ATOM      8  C   UNL     1      33.542 -14.714 -23.496  0.00  0.00    +0.128 C 
ATOM      9  C   UNL     1      33.549 -13.428 -22.928  0.00  0.00    +0.084 C 
ATOM     10  C   UNL     1      34.139 -14.346 -20.900  0.00  0.00    +0.201 C 
ATOM     11  C   UNL     1      33.227 -14.857 -24.845  0.00  0.00    +0.086 C 
ATOM     12  C   UNL     1      33.240 -12.331 -23.730  0.00  0.00    +0.073 C 
ATOM     13  C   UNL     1      32.919 -13.754 -25.639  0.00  0.00    -0.023 C 
ATOM     14  C   UNL     1      32.926 -12.486 -25.079  0.00  0.00    -0.024 C 
ATOM     15  H   UNL     1      34.151 -16.812 -19.735  0.00  0.00    +0.176 HD
ENDBRANCH   1   4
BRANCH   1  16
ATOM     16  C   UNL     1      34.677 -19.450 -20.561  0.00  0.00    +0.125 C 
ATOM     17  C   UNL     1      33.309 -19.650 -20.537  0.00  0.00    +0.021 C 
ATOM     18  C   UNL     1      35.550 -20.328 -19.944  0.00  0.00    +0.021 C 
ATOM     19  C   UNL     1      32.795 -20.763 -19.873  0.00  0.00    +0.015 C 
ATOM     20  C   UNL     1      35.037 -21.441 -19.279  0.00  0.00    +0.015 C 
ATOM     21  C   UNL     1      33.659 -21.659 -19.244  0.00  0.00    +0.042 C 
BRANCH  21  22
ATOM     22  N   UNL     1      33.140 -22.787 -18.574  0.00  0.00    -0.357 N 
ATOM     23  H   UNL     1      33.559 -23.669 -18.699  0.00  0.00    +0.142 HD
ATOM     24  H   UNL     1      32.359 -22.692 -17.981  0.00  0.00    +0.142 HD
ENDBRANCH  21  22
ENDBRANCH   1  16
TORSDOF 3
ENDMDL
MODEL 2
REMARK VINA RESULT:     -11.3      1.303      2.351
REMARK  Name = 5338
REMARK  3 active torsions:
REMARK  status: ('A' for Active; 'I' for Inactive)
REMARK    1  A    between atoms: S_1  and  N_4
REMARK    2  A    between atoms: S_1  and  C_16
REMARK    3  A    between atoms: C_21  and  N_22
REMARK                            x       y       z     vdW  Elec       q    Type
REMARK                         _______ _______ _______ _____ _____    ______ ____
ROOT
ATOM      1  S   UNL     1      35.650 -17.929 -20.994  0.00  0.00    +0.075 S 
ATOM      2  O   UNL     1      37.071 -18.089 -20.748  0.00  0.00    -0.150 OA
ATOM      3  O   UNL     1      34.945 -16.792 -20.433  0.00  0.00    -0.150 OA
ENDROOT
BRANCH   1   4
ATOM      4  N   UNL     1      35.356 -18.026 -22.689  0.00  0.00    -0.191 N 
ATOM      5  N   UNL     1      34.748 -15.748 -22.864  0.00  0.00    -0.391 NA
ATOM      6  N   UNL     1      32.981 -16.336 -24.927  0.00  0.00    -0.263 NA
ATOM      7  C   UNL     1      34.584 -17.004 -23.315  0.00  0.00    +0.200 C 
ATOM      8  C   UNL     1      34.026 -14.774 -23.447  0.00  0.00    +0.128 C 
ATOM      9  C   UNL     1      33.132 -15.072 -24.491  0.00  0.00    +0.084 C 
ATOM     10  C   UNL     1      33.714 -17.294 -24.331  0.00  0.00    +0.201 C 
ATOM     11  C   UNL     1      34.156 -13.454 -23.022  0.00  0.00    +0.086 C 
ATOM     12  C   UNL     1      32.400 -14.039 -25.072  0.00  0.00    +0.073 C 
ATOM     13  C   UNL     1      33.419 -12.428 -23.609  0.00  0.00    -0.023 C 
ATOM     14  C   UNL     1      32.537 -12.722 -24.638  0.00  0.00    -0.024 C 
ATOM     15  H   UNL     1      35.715 -18.775 -23.218  0.00  0.00    +0.176 HD
ENDBRANCH   1   4
BRANCH   1  16
ATOM     16  C   UNL     1      34.860 -19.398 -20.404  0.00  0.00    +0.125 C 
ATOM     17  C   UNL     1      35.629 -20.390 -19.823  0.00  0.00    +0.021 C 
ATOM     18  C   UNL     1      33.488 -19.526 -20.535  0.00  0.00    +0.021 C 
ATOM     19  C   UNL     1      35.007 -21.549 -19.358  0.00  0.00    +0.015 C 
ATOM     20  C   UNL     1      32.866 -20.684 -20.071  0.00  0.00    +0.015 C 
ATOM     21  C   UNL     1      33.626 -21.696 -19.482  0.00  0.00    +0.042 C 
BRANCH  21  22
ATOM     22  N   UNL     1      32.996 -22.867 -19.011  0.00  0.00    -0.357 N 
ATOM     23  H   UNL     1      33.171 -23.185 -18.096  0.00  0.00    +0.142 HD
ATOM     24  H   UNL     1      32.381 -23.366 -19.597  0.00  0.00    +0.142 HD
ENDBRANCH  21  22
ENDBRANCH   1  16
TORSDOF 3
ENDMDL
MODEL 3
REMARK VINA RESULT:     -10.6      4.369      6.293
REMARK  Name = 5338
REMARK  3 active torsions:
REMARK  status: ('A' for Active; 'I' for Inactive)
REMARK    1  A    between atoms: S_1  and  N_4
REMARK    2  A    between atoms: S_1  and  C_16
REMARK    3  A    between atoms: C_21  and  N_22
REMARK                            x       y       z     vdW  Elec       q    Type
REMARK                         _______ _______ _______ _____ _____    ______ ____
ROOT
ATOM      1  S   UNL     1      32.847 -12.637 -23.430  0.00  0.00    +0.075 S 
ATOM      2  O   UNL     1      32.292 -13.083 -24.694  0.00  0.00    -0.150 OA
ATOM      3  O   UNL     1      33.858 -11.598 -23.413  0.00  0.00    -0.150 OA
ENDROOT
BRANCH   1   4
ATOM      4  N   UNL     1      31.558 -12.223 -22.363  0.00  0.00    -0.191 N 
ATOM      5  N   UNL     1      31.903  -9.897 -22.613  0.00  0.00    -0.391 NA
ATOM      6  N   UNL     1      31.042  -9.448 -20.009  0.00  0.00    -0.263 NA
ATOM      7  C   UNL     1      31.513 -10.908 -21.816  0.00  0.00    +0.200 C 
ATOM      8  C   UNL     1      31.864  -8.651 -22.109  0.00  0.00    +0.128 C 
ATOM      9  C   UNL     1      31.427  -8.424 -20.791  0.00  0.00    +0.084 C 
ATOM     10  C   UNL     1      31.088 -10.687 -20.533  0.00  0.00    +0.201 C 
ATOM     11  C   UNL     1      32.255  -7.566 -22.889  0.00  0.00    +0.086 C 
ATOM     12  C   UNL     1      31.399  -7.120 -20.301  0.00  0.00    +0.073 C 
ATOM     13  C   UNL     1      32.224  -6.265 -22.390  0.00  0.00    -0.023 C 
ATOM     14  C   UNL     1      31.794  -6.041 -21.091  0.00  0.00    -0.024 C 
ATOM     15  H   UNL     1      30.865 -12.884 -22.134  0.00  0.00    +0.176 HD
ENDBRANCH   1   4
BRANCH   1  16
ATOM     16  C   UNL     1      33.528 -14.066 -22.637  0.00  0.00    +0.125 C 
ATOM     17  C   UNL     1      34.021 -15.097 -23.416  0.00  0.00    +0.021 C 
ATOM     18  C   UNL     1      33.555 -14.122 -21.255  0.00  0.00    +0.021 C 
ATOM     19  C   UNL     1      34.558 -16.224 -22.792  0.00  0.00    +0.015 C 
ATOM     20  C   UNL     1      34.091 -15.248 -20.632  0.00  0.00    +0.015 C 
ATOM     21  C   UNL     1      34.593 -16.299 -21.400  0.00  0.00    +0.042 C 
BRANCH  21  22
ATOM     22  N   UNL     1      35.137 -17.437 -20.769  0.00  0.00    -0.357 N 
ATOM     23  H   UNL     1      35.607 -18.118 -21.302  0.00  0.00    +0.142 HD
ATOM     24  H   UNL     1      35.048 -17.550 -19.795  0.00  0.00    +0.142 HD
ENDBRANCH  21  22
ENDBRANCH   1  16
TORSDOF 3
ENDMDL
MODEL 4
REMARK VINA RESULT:     -10.2      6.539      9.132
REMARK  Name = 5338
REMARK  3 active torsions:
REMARK  status: ('A' for Active; 'I' for Inactive)
REMARK    1  A    between atoms: S_1  and  N_4
REMARK    2  A    between atoms: S_1  and  C_16
REMARK    3  A    between atoms: C_21  and  N_22
REMARK                            x       y       z     vdW  Elec       q    Type
REMARK                         _______ _______ _______ _____ _____    ______ ____
ROOT
ATOM      1  S   UNL     1      36.017 -22.773 -13.967  0.00  0.00    +0.075 S 
ATOM      2  O   UNL     1      36.415 -21.564 -14.664  0.00  0.00    -0.150 OA
ATOM      3  O   UNL     1      35.560 -22.695 -12.593  0.00  0.00    -0.150 OA
ENDROOT
BRANCH   1   4
ATOM      4  N   UNL     1      34.863 -23.623 -14.925  0.00  0.00    -0.191 N 
ATOM      5  N   UNL     1      35.236 -22.276 -16.832  0.00  0.00    -0.391 NA
ATOM      6  N   UNL     1      32.589 -22.587 -17.619  0.00  0.00    -0.263 NA
ATOM      7  C   UNL     1      34.368 -23.009 -16.112  0.00  0.00    +0.200 C 
ATOM      8  C   UNL     1      34.781 -21.693 -17.955  0.00  0.00    +0.128 C 
ATOM      9  C   UNL     1      33.441 -21.851 -18.354  0.00  0.00    +0.084 C 
ATOM     10  C   UNL     1      33.064 -23.163 -16.500  0.00  0.00    +0.201 C 
ATOM     11  C   UNL     1      35.635 -20.922 -18.741  0.00  0.00    +0.086 C 
ATOM     12  C   UNL     1      33.005 -21.232 -19.523  0.00  0.00    +0.073 C 
ATOM     13  C   UNL     1      35.189 -20.308 -19.909  0.00  0.00    -0.023 C 
ATOM     14  C   UNL     1      33.868 -20.463 -20.302  0.00  0.00    -0.024 C 
ATOM     15  H   UNL     1      34.550 -24.517 -14.656  0.00  0.00    +0.176 HD
ENDBRANCH   1   4
BRANCH   1  16
ATOM     16  C   UNL     1      37.404 -23.871 -14.013  0.00  0.00    +0.125 C 
ATOM     17  C   UNL     1      37.507 -24.868 -13.060  0.00  0.00    +0.021 C 
ATOM     18  C   UNL     1      38.358 -23.711 -15.002  0.00  0.00    +0.021 C 
ATOM     19  C   UNL     1      38.600 -25.734 -13.095  0.00  0.00    +0.015 C 
ATOM     20  C   UNL     1      39.452 -24.576 -15.037  0.00  0.00    +0.015 C 
ATOM     21  C   UNL     1      39.572 -25.587 -14.084  0.00  0.00    +0.042 C 
BRANCH  21  22
ATOM     22  N   UNL     1      40.677 -26.464 -14.121  0.00  0.00    -0.357 N 
ATOM     23  H   UNL     1      41.103 -26.754 -13.283  0.00  0.00    +0.142 HD
ATOM     24  H   UNL     1      41.023 -26.784 -14.986  0.00  0.00    +0.142 HD
ENDBRANCH  21  22
ENDBRANCH   1  16
TORSDOF 3
ENDMDL
MODEL 5
REMARK VINA RESULT:     -10.2      4.581      9.771
REMARK  Name = 5338
REMARK  3 active torsions:
REMARK  status: ('A' for Active; 'I' for Inactive)
REMARK    1  A    between atoms: S_1  and  N_4
REMARK    2  A    between atoms: S_1  and  C_16
REMARK    3  A    between atoms: C_21  and  N_22
REMARK                            x       y       z     vdW  Elec       q    Type
REMARK                         _______ _______ _______ _____ _____    ______ ____
ROOT
ATOM      1  S   UNL     1      33.618 -22.245 -18.589  0.00  0.00    +0.075 S 
ATOM      2  O   UNL     1      34.508 -22.394 -17.452  0.00  0.00    -0.150 OA
ATOM      3  O   UNL     1      33.387 -23.369 -19.475  0.00  0.00    -0.150 OA
ENDROOT
BRANCH   1   4
ATOM      4  N   UNL     1      32.114 -21.602 -18.047  0.00  0.00    -0.191 N 
ATOM      5  N   UNL     1      32.181 -22.778 -15.997  0.00  0.00    -0.391 NA
ATOM      6  N   UNL     1      29.409 -22.960 -15.964  0.00  0.00    -0.263 NA
ATOM      7  C   UNL     1      31.429 -22.256 -16.982  0.00  0.00    +0.200 C 
ATOM      8  C   UNL     1      31.547 -23.397 -14.986  0.00  0.00    +0.128 C 
ATOM      9  C   UNL     1      30.143 -23.488 -14.969  0.00  0.00    +0.084 C 
ATOM     10  C   UNL     1      30.063 -22.345 -16.966  0.00  0.00    +0.201 C 
ATOM     11  C   UNL     1      32.275 -23.956 -13.938  0.00  0.00    +0.086 C 
ATOM     12  C   UNL     1      29.520 -24.136 -13.905  0.00  0.00    +0.073 C 
ATOM     13  C   UNL     1      31.641 -24.602 -12.879  0.00  0.00    -0.023 C 
ATOM     14  C   UNL     1      30.258 -24.692 -12.862  0.00  0.00    -0.024 C 
ATOM     15  H   UNL     1      31.733 -20.797 -18.467  0.00  0.00    +0.176 HD
ENDBRANCH   1   4
BRANCH   1  16
ATOM     16  C   UNL     1      34.253 -20.911 -19.564  0.00  0.00    +0.125 C 
ATOM     17  C   UNL     1      33.375 -20.143 -20.308  0.00  0.00    +0.021 C 
ATOM     18  C   UNL     1      35.613 -20.661 -19.561  0.00  0.00    +0.021 C 
ATOM     19  C   UNL     1      33.874 -19.092 -21.077  0.00  0.00    +0.015 C 
ATOM     20  C   UNL     1      36.113 -19.610 -20.330  0.00  0.00    +0.015 C 
ATOM     21  C   UNL     1      35.243 -18.825 -21.087  0.00  0.00    +0.042 C 
BRANCH  21  22
ATOM     22  N   UNL     1      35.748 -17.761 -21.863  0.00  0.00    -0.357 N 
ATOM     23  H   UNL     1      36.617 -17.357 -21.637  0.00  0.00    +0.142 HD
ATOM     24  H   UNL     1      35.231 -17.421 -22.630  0.00  0.00    +0.142 HD
ENDBRANCH  21  22
ENDBRANCH   1  16
TORSDOF 3
ENDMDL
MODEL 6
REMARK VINA RESULT:     -10.1      5.880      8.479
REMARK  Name = 5338
REMARK  3 active torsions:
REMARK  status: ('A' for Active; 'I' for Inactive)
REMARK    1  A    between atoms: S_1  and  N_4
REMARK    2  A    between atoms: S_1  and  C_16
REMARK    3  A    between atoms: C_21  and  N_22
REMARK                            x       y       z     vdW  Elec       q    Type
REMARK                         _______ _______ _______ _____ _____    ______ ____
ROOT
ATOM      1  S   UNL     1      36.201 -22.682 -15.147  0.00  0.00    +0.075 S 
ATOM      2  O   UNL     1      37.366 -23.437 -15.571  0.00  0.00    -0.150 OA
ATOM      3  O   UNL     1      36.195 -21.237 -15.268  0.00  0.00    -0.150 OA
ENDROOT
BRANCH   1   4
ATOM      4  N   UNL     1      34.798 -23.342 -15.900  0.00  0.00    -0.191 N 
ATOM      5  N   UNL     1      34.977 -21.943 -17.798  0.00  0.00    -0.391 NA
ATOM      6  N   UNL     1      32.213 -21.910 -18.085  0.00  0.00    -0.263 NA
ATOM      7  C   UNL     1      34.173 -22.612 -16.953  0.00  0.00    +0.200 C 
ATOM      8  C   UNL     1      34.400 -21.250 -18.796  0.00  0.00    +0.128 C 
ATOM      9  C   UNL     1      33.001 -21.235 -18.941  0.00  0.00    +0.084 C 
ATOM     10  C   UNL     1      32.811 -22.597 -17.095  0.00  0.00    +0.201 C 
ATOM     11  C   UNL     1      35.183 -20.539 -19.701  0.00  0.00    +0.086 C 
ATOM     12  C   UNL     1      32.437 -20.507 -19.987  0.00  0.00    +0.073 C 
ATOM     13  C   UNL     1      34.609 -19.814 -20.743  0.00  0.00    -0.023 C 
ATOM     14  C   UNL     1      33.230 -19.798 -20.887  0.00  0.00    -0.024 C 
ATOM     15  H   UNL     1      34.433 -24.209 -15.608  0.00  0.00    +0.176 HD
ENDBRANCH   1   4
BRANCH   1  16
ATOM     16  C   UNL     1      35.922 -23.083 -13.446  0.00  0.00    +0.125 C 
ATOM     17  C   UNL     1      34.745 -23.716 -13.087  0.00  0.00    +0.021 C 
ATOM     18  C   UNL     1      36.886 -22.758 -12.510  0.00  0.00    +0.021 C 
ATOM     19  C   UNL     1      34.524 -24.032 -11.747  0.00  0.00    +0.015 C 
ATOM     20  C   UNL     1      36.665 -23.073 -11.169  0.00  0.00    +0.015 C 
ATOM     21  C   UNL     1      35.484 -23.711 -10.788  0.00  0.00    +0.042 C 
BRANCH  21  22
ATOM     22  N   UNL     1      35.262 -24.032  -9.432  0.00  0.00    -0.357 N 
ATOM     23  H   UNL     1      35.779 -24.754  -9.007  0.00  0.00    +0.142 HD
ATOM     24  H   UNL     1      34.590 -23.535  -8.912  0.00  0.00    +0.142 HD
ENDBRANCH  21  22
ENDBRANCH   1  16
TORSDOF 3
ENDMDL
MODEL 7
REMARK VINA RESULT:      -9.8      1.889      7.868
REMARK  Name = 5338
REMARK  3 active torsions:
REMARK  status: ('A' for Active; 'I' for Inactive)
REMARK    1  A    between atoms: S_1  and  N_4
REMARK    2  A    between atoms: S_1  and  C_16
REMARK    3  A    between atoms: C_21  and  N_22
REMARK                            x       y       z     vdW  Elec       q    Type
REMARK                         _______ _______ _______ _____ _____    ______ ____
ROOT
ATOM      1  S   UNL     1      34.635 -18.859 -22.410  0.00  0.00    +0.075 S 
ATOM      2  O   UNL     1      35.860 -18.809 -21.634  0.00  0.00    -0.150 OA
ATOM      3  O   UNL     1      34.556 -19.717 -23.576  0.00  0.00    -0.150 OA
ENDROOT
BRANCH   1   4
ATOM      4  N   UNL     1      33.311 -19.176 -21.353  0.00  0.00    -0.191 N 
ATOM      5  N   UNL     1      34.691 -20.063 -19.650  0.00  0.00    -0.391 NA
ATOM      6  N   UNL     1      32.666 -21.790 -18.852  0.00  0.00    -0.263 NA
ATOM      7  C   UNL     1      33.497 -20.082 -20.269  0.00  0.00    +0.200 C 
ATOM      8  C   UNL     1      34.878 -20.912 -18.625  0.00  0.00    +0.128 C 
ATOM      9  C   UNL     1      33.853 -21.786 -18.221  0.00  0.00    +0.084 C 
ATOM     10  C   UNL     1      32.498 -20.932 -19.876  0.00  0.00    +0.201 C 
ATOM     11  C   UNL     1      36.095 -20.936 -17.947  0.00  0.00    +0.086 C 
ATOM     12  C   UNL     1      34.082 -22.652 -17.154  0.00  0.00    +0.073 C 
ATOM     13  C   UNL     1      36.314 -21.807 -16.881  0.00  0.00    -0.023 C 
ATOM     14  C   UNL     1      35.303 -22.668 -16.483  0.00  0.00    -0.024 C 
ATOM     15  H   UNL     1      32.440 -18.740 -21.497  0.00  0.00    +0.176 HD
ENDBRANCH   1   4
BRANCH   1  16
ATOM     16  C   UNL     1      34.293 -17.204 -22.934  0.00  0.00    +0.125 C 
ATOM     17  C   UNL     1      34.506 -16.160 -22.051  0.00  0.00    +0.021 C 
ATOM     18  C   UNL     1      33.821 -16.986 -24.215  0.00  0.00    +0.021 C 
ATOM     19  C   UNL     1      34.236 -14.855 -22.462  0.00  0.00    +0.015 C 
ATOM     20  C   UNL     1      33.550 -15.681 -24.627  0.00  0.00    +0.015 C 
ATOM     21  C   UNL     1      33.758 -14.616 -23.751  0.00  0.00    +0.042 C 
BRANCH  21  22
ATOM     22  N   UNL     1      33.487 -13.296 -24.169  0.00  0.00    -0.357 N 
ATOM     23  H   UNL     1      32.974 -12.691 -23.586  0.00  0.00    +0.142 HD
ATOM     24  H   UNL     1      33.810 -12.980 -25.044  0.00  0.00    +0.142 HD
ENDBRANCH  21  22
ENDBRANCH   1  16
TORSDOF 3
ENDMDL
MODEL 8
REMARK VINA RESULT:      -9.7      4.814      9.776
REMARK  Name = 5338
REMARK  3 active torsions:
REMARK  status: ('A' for Active; 'I' for Inactive)
REMARK    1  A    between atoms: S_1  and  N_4
REMARK    2  A    between atoms: S_1  and  C_16
REMARK    3  A    between atoms: C_21  and  N_22
REMARK                            x       y       z     vdW  Elec       q    Type
REMARK                         _______ _______ _______ _____ _____    ______ ____
ROOT
ATOM      1  S   UNL     1      33.149 -22.138 -18.750  0.00  0.00    +0.075 S 
ATOM      2  O   UNL     1      33.188 -23.326 -19.582  0.00  0.00    -0.150 OA
ATOM      3  O   UNL     1      31.888 -21.463 -18.516  0.00  0.00    -0.150 OA
ENDROOT
BRANCH   1   4
ATOM      4  N   UNL     1      33.924 -22.478 -17.247  0.00  0.00    -0.191 N 
ATOM      5  N   UNL     1      31.999 -23.486 -16.314  0.00  0.00    -0.391 NA
ATOM      6  N   UNL     1      32.721 -22.611 -13.778  0.00  0.00    -0.263 NA
ATOM      7  C   UNL     1      33.119 -22.770 -16.108  0.00  0.00    +0.200 C 
ATOM      8  C   UNL     1      31.231 -23.769 -15.247  0.00  0.00    +0.128 C 
ATOM      9  C   UNL     1      31.598 -23.326 -13.963  0.00  0.00    +0.084 C 
ATOM     10  C   UNL     1      33.476 -22.340 -14.858  0.00  0.00    +0.201 C 
ATOM     11  C   UNL     1      30.060 -24.507 -15.401  0.00  0.00    +0.086 C 
ATOM     12  C   UNL     1      30.779 -23.638 -12.880  0.00  0.00    +0.073 C 
ATOM     13  C   UNL     1      29.248 -24.813 -14.311  0.00  0.00    -0.023 C 
ATOM     14  C   UNL     1      29.609 -24.377 -13.046  0.00  0.00    -0.024 C 
ATOM     15  H   UNL     1      34.906 -22.470 -17.177  0.00  0.00    +0.176 HD
ENDBRANCH   1   4
BRANCH   1  16
ATOM     16  C   UNL     1      34.262 -20.969 -19.475  0.00  0.00    +0.125 C 
ATOM     17  C   UNL     1      33.774 -20.049 -20.385  0.00  0.00    +0.021 C 
ATOM     18  C   UNL     1      35.598 -20.996 -19.115  0.00  0.00    +0.021 C 
ATOM     19  C   UNL     1      34.650 -19.127 -20.958  0.00  0.00    +0.015 C 
ATOM     20  C   UNL     1      36.474 -20.075 -19.688  0.00  0.00    +0.015 C 
ATOM     21  C   UNL     1      36.000 -19.140 -20.608  0.00  0.00    +0.042 C 
BRANCH  21  22
ATOM     22  N   UNL     1      36.887 -18.207 -21.185  0.00  0.00    -0.357 N 
ATOM     23  H   UNL     1      37.834 -18.442 -21.313  0.00  0.00    +0.142 HD
ATOM     24  H   UNL     1      36.559 -17.319 -21.459  0.00  0.00    +0.142 HD
ENDBRANCH  21  22
ENDBRANCH   1  16
TORSDOF 3
ENDMDL
MODEL 9
REMARK VINA RESULT:      -9.7      4.266      9.444
REMARK  Name = 5338
REMARK  3 active torsions:
REMARK  status: ('A' for Active; 'I' for Inactive)
REMARK    1  A    between atoms: S_1  and  N_4
REMARK    2  A    between atoms: S_1  and  C_16
REMARK    3  A    between atoms: C_21  and  N_22
REMARK                            x       y       z     vdW  Elec       q    Type
REMARK                         _______ _______ _______ _____ _____    ______ ____
ROOT
ATOM      1  S   UNL     1      34.465 -21.558 -19.049  0.00  0.00    +0.075 S 
ATOM      2  O   UNL     1      34.297 -22.737 -19.878  0.00  0.00    -0.150 OA
ATOM      3  O   UNL     1      33.416 -21.171 -18.126  0.00  0.00    -0.150 OA
ENDROOT
BRANCH   1   4
ATOM      4  N   UNL     1      35.972 -21.663 -18.219  0.00  0.00    -0.191 N 
ATOM      5  N   UNL     1      35.043 -22.811 -16.372  0.00  0.00    -0.391 NA
ATOM      6  N   UNL     1      36.883 -21.629 -14.659  0.00  0.00    -0.263 NA
ATOM      7  C   UNL     1      35.970 -21.947 -16.822  0.00  0.00    +0.200 C 
ATOM      8  C   UNL     1      35.031 -23.089 -15.057  0.00  0.00    +0.128 C 
ATOM      9  C   UNL     1      35.964 -22.491 -14.190  0.00  0.00    +0.084 C 
ATOM     10  C   UNL     1      36.878 -21.365 -15.978  0.00  0.00    +0.201 C 
ATOM     11  C   UNL     1      34.094 -23.976 -14.535  0.00  0.00    +0.086 C 
ATOM     12  C   UNL     1      35.923 -22.802 -12.832  0.00  0.00    +0.073 C 
ATOM     13  C   UNL     1      34.061 -24.280 -13.175  0.00  0.00    -0.023 C 
ATOM     14  C   UNL     1      34.980 -23.691 -12.321  0.00  0.00    -0.024 C 
ATOM     15  H   UNL     1      36.820 -21.527 -18.700  0.00  0.00    +0.176 HD
ENDBRANCH   1   4
BRANCH   1  16
ATOM     16  C   UNL     1      34.749 -20.198 -20.145  0.00  0.00    +0.125 C 
ATOM     17  C   UNL     1      33.721 -19.767 -20.965  0.00  0.00    +0.021 C 
ATOM     18  C   UNL     1      35.992 -19.592 -20.160  0.00  0.00    +0.021 C 
ATOM     19  C   UNL     1      33.944 -18.696 -21.830  0.00  0.00    +0.015 C 
ATOM     20  C   UNL     1      36.216 -18.521 -21.025  0.00  0.00    +0.015 C 
ATOM     21  C   UNL     1      35.192 -18.073 -21.859  0.00  0.00    +0.042 C 
BRANCH  21  22
ATOM     22  N   UNL     1      35.417 -16.988 -22.732  0.00  0.00    -0.357 N 
ATOM     23  H   UNL     1      34.676 -16.627 -23.271  0.00  0.00    +0.142 HD
ATOM     24  H   UNL     1      36.316 -16.591 -22.803  0.00  0.00    +0.142 HD
ENDBRANCH  21  22
ENDBRANCH   1  16
TORSDOF 3
ENDMDL
