MODEL 1
REMARK VINA RESULT:     -12.4      0.000      0.000
REMARK  Name = 54682555
REMARK  3 active torsions:
REMARK  status: ('A' for Active; 'I' for Inactive)
REMARK    1  A    between atoms: C_4  and  C_19
REMARK    2  A    between atoms: C_5  and  C_9
REMARK    3  A    between atoms: C_6  and  O_25
REMARK                            x       y       z     vdW  Elec       q    Type
REMARK                         _______ _______ _______ _____ _____    ______ ____
ROOT
ATOM      1  O   UNL     1      33.279 -20.071 -20.623  0.00  0.00    -0.418 OA
ATOM      2  O   UNL     1      31.975 -21.451 -19.336  0.00  0.00    -0.244 OA
ATOM      3  C   UNL     1      34.618 -19.711 -20.522  0.00  0.00    +0.182 C 
ATOM      4  C   UNL     1      34.275 -21.092 -18.757  0.00  0.00    +0.113 C 
ATOM      5  C   UNL     1      35.190 -18.891 -21.410  0.00  0.00    +0.041 C 
ATOM      6  C   UNL     1      35.186 -20.345 -19.379  0.00  0.00    +0.175 C 
ATOM      7  C   UNL     1      33.049 -20.915 -19.564  0.00  0.00    +0.349 C 
ENDROOT
BRANCH   5   9
ATOM      8  C   UNL     1      34.241 -16.909 -22.637  0.00  0.00    +0.000 C 
ATOM      9  C   UNL     1      34.534 -18.280 -22.564  0.00  0.00    +0.003 C 
ATOM     10  C   UNL     1      33.603 -16.399 -23.793  0.00  0.00    +0.000 C 
ATOM     11  C   UNL     1      34.202 -19.136 -23.615  0.00  0.00    +0.000 C 
ATOM     12  C   UNL     1      34.568 -16.033 -21.590  0.00  0.00    +0.000 C 
ATOM     13  C   UNL     1      33.276 -17.274 -24.841  0.00  0.00    +0.000 C 
ATOM     14  C   UNL     1      33.309 -15.026 -23.866  0.00  0.00    +0.000 C 
ATOM     15  C   UNL     1      33.575 -18.634 -24.751  0.00  0.00    +0.000 C 
ATOM     16  C   UNL     1      34.269 -14.673 -21.679  0.00  0.00    +0.000 C 
ATOM     17  C   UNL     1      33.641 -14.171 -22.815  0.00  0.00    +0.000 C 
ENDBRANCH   5   9
BRANCH   4  19
ATOM     18 CL   UNL     1      34.827 -24.369 -13.794  0.00  0.00    -0.082 Cl
ATOM     19  C   UNL     1      34.410 -21.894 -17.543  0.00  0.00    +0.009 C 
ATOM     20  C   UNL     1      35.620 -21.910 -16.849  0.00  0.00    +0.001 C 
ATOM     21  C   UNL     1      33.329 -22.643 -17.078  0.00  0.00    +0.001 C 
ATOM     22  C   UNL     1      35.749 -22.675 -15.689  0.00  0.00    +0.011 C 
ATOM     23  C   UNL     1      33.458 -23.408 -15.919  0.00  0.00    +0.011 C 
ATOM     24  C   UNL     1      34.668 -23.424 -15.224  0.00  0.00    +0.058 C 
ENDBRANCH   4  19
BRANCH   6  25
ATOM     25  O   UNL     1      36.481 -20.160 -18.991  0.00  0.00    -0.503 OA
ATOM     26  H   UNL     1      36.745 -19.344 -18.612  0.00  0.00    +0.292 HD
ENDBRANCH   6  25
TORSDOF 3
ENDMDL
MODEL 2
REMARK VINA RESULT:     -12.3      3.448      9.366
REMARK  Name = 54682555
REMARK  3 active torsions:
REMARK  status: ('A' for Active; 'I' for Inactive)
REMARK    1  A    between atoms: C_4  and  C_19
REMARK    2  A    between atoms: C_5  and  C_9
REMARK    3  A    between atoms: C_6  and  O_25
REMARK                            x       y       z     vdW  Elec       q    Type
REMARK                         _______ _______ _______ _____ _____    ______ ____
ROOT
ATOM      1  O   UNL     1      35.180 -22.498 -17.249  0.00  0.00    -0.418 OA
ATOM      2  O   UNL     1      33.824 -22.502 -19.099  0.00  0.00    -0.244 OA
ATOM      3  C   UNL     1      36.156 -21.604 -16.824  0.00  0.00    +0.182 C 
ATOM      4  C   UNL     1      35.418 -20.737 -18.784  0.00  0.00    +0.113 C 
ATOM      5  C   UNL     1      36.824 -21.791 -15.680  0.00  0.00    +0.041 C 
ATOM      6  C   UNL     1      36.275 -20.555 -17.780  0.00  0.00    +0.175 C 
ATOM      7  C   UNL     1      34.712 -21.989 -18.436  0.00  0.00    +0.349 C 
ENDROOT
BRANCH   5   9
ATOM      8  C   UNL     1      37.649 -23.836 -14.466  0.00  0.00    +0.000 C 
ATOM      9  C   UNL     1      36.640 -22.901 -14.747  0.00  0.00    +0.003 C 
ATOM     10  C   UNL     1      37.386 -24.882 -13.550  0.00  0.00    +0.000 C 
ATOM     11  C   UNL     1      35.389 -22.995 -14.134  0.00  0.00    +0.000 C 
ATOM     12  C   UNL     1      38.912 -23.756 -15.074  0.00  0.00    +0.000 C 
ATOM     13  C   UNL     1      36.123 -24.962 -12.941  0.00  0.00    +0.000 C 
ATOM     14  C   UNL     1      38.396 -25.818 -13.268  0.00  0.00    +0.000 C 
ATOM     15  C   UNL     1      35.132 -24.024 -13.233  0.00  0.00    +0.000 C 
ATOM     16  C   UNL     1      39.903 -24.694 -14.783  0.00  0.00    +0.000 C 
ATOM     17  C   UNL     1      39.645 -25.723 -13.882  0.00  0.00    +0.000 C 
ENDBRANCH   5   9
BRANCH   4  19
ATOM     18 CL   UNL     1      34.574 -17.422 -23.680  0.00  0.00    -0.082 Cl
ATOM     19  C   UNL     1      35.212 -19.926 -19.982  0.00  0.00    +0.009 C 
ATOM     20  C   UNL     1      33.960 -19.897 -20.598  0.00  0.00    +0.001 C 
ATOM     21  C   UNL     1      36.266 -19.180 -20.510  0.00  0.00    +0.001 C 
ATOM     22  C   UNL     1      33.763 -19.123 -21.741  0.00  0.00    +0.011 C 
ATOM     23  C   UNL     1      36.069 -18.406 -21.653  0.00  0.00    +0.011 C 
ATOM     24  C   UNL     1      34.817 -18.377 -22.269  0.00  0.00    +0.058 C 
ENDBRANCH   4  19
BRANCH   6  25
ATOM     25  O   UNL     1      37.178 -19.538 -17.663  0.00  0.00    -0.503 OA
ATOM     26  H   UNL     1      37.970 -19.669 -17.177  0.00  0.00    +0.292 HD
ENDBRANCH   6  25
TORSDOF 3
ENDMDL
MODEL 3
REMARK VINA RESULT:     -11.8      6.517     10.042
REMARK  Name = 54682555
REMARK  3 active torsions:
REMARK  status: ('A' for Active; 'I' for Inactive)
REMARK    1  A    between atoms: C_4  and  C_19
REMARK    2  A    between atoms: C_5  and  C_9
REMARK    3  A    between atoms: C_6  and  O_25
REMARK                            x       y       z     vdW  Elec       q    Type
REMARK                         _______ _______ _______ _____ _____    ______ ____
ROOT
ATOM      1  O   UNL     1      32.547 -10.644 -23.397  0.00  0.00    -0.418 OA
ATOM      2  O   UNL     1      33.887 -11.954 -24.720  0.00  0.00    -0.244 OA
ATOM      3  C   UNL     1      31.930 -10.895 -22.176  0.00  0.00    +0.182 C 
ATOM      4  C   UNL     1      33.002 -12.830 -22.670  0.00  0.00    +0.113 C 
ATOM      5  C   UNL     1      31.195  -9.963 -21.560  0.00  0.00    +0.041 C 
ATOM      6  C   UNL     1      32.225 -12.229 -21.771  0.00  0.00    +0.175 C 
ATOM      7  C   UNL     1      33.209 -11.805 -23.715  0.00  0.00    +0.349 C 
ENDROOT
BRANCH   5   9
ATOM      8  C   UNL     1      31.322  -7.459 -21.333  0.00  0.00    +0.000 C 
ATOM      9  C   UNL     1      30.941  -8.608 -22.045  0.00  0.00    +0.003 C 
ATOM     10  C   UNL     1      31.037  -6.184 -21.876  0.00  0.00    +0.000 C 
ATOM     11  C   UNL     1      30.288  -8.501 -23.275  0.00  0.00    +0.000 C 
ATOM     12  C   UNL     1      31.979  -7.548 -20.096  0.00  0.00    +0.000 C 
ATOM     13  C   UNL     1      30.380  -6.094 -23.113  0.00  0.00    +0.000 C 
ATOM     14  C   UNL     1      31.417  -5.034 -21.163  0.00  0.00    +0.000 C 
ATOM     15  C   UNL     1      30.009  -7.246 -23.807  0.00  0.00    +0.000 C 
ATOM     16  C   UNL     1      32.350  -6.397 -19.402  0.00  0.00    +0.000 C 
ATOM     17  C   UNL     1      32.069  -5.142 -19.934  0.00  0.00    +0.000 C 
ENDBRANCH   5   9
BRANCH   4  19
ATOM     18 CL   UNL     1      35.146 -18.405 -22.685  0.00  0.00    -0.082 Cl
ATOM     19  C   UNL     1      33.526 -14.195 -22.673  0.00  0.00    +0.009 C 
ATOM     20  C   UNL     1      33.554 -14.928 -23.860  0.00  0.00    +0.001 C 
ATOM     21  C   UNL     1      34.000 -14.763 -21.491  0.00  0.00    +0.001 C 
ATOM     22  C   UNL     1      34.054 -16.230 -23.864  0.00  0.00    +0.011 C 
ATOM     23  C   UNL     1      34.501 -16.065 -21.494  0.00  0.00    +0.011 C 
ATOM     24  C   UNL     1      34.528 -16.799 -22.681  0.00  0.00    +0.058 C 
ENDBRANCH   4  19
BRANCH   6  25
ATOM     25  O   UNL     1      31.732 -12.786 -20.627  0.00  0.00    -0.503 OA
ATOM     26  H   UNL     1      31.277 -12.252 -20.004  0.00  0.00    +0.292 HD
ENDBRANCH   6  25
TORSDOF 3
ENDMDL
MODEL 4
REMARK VINA RESULT:     -11.8      3.167      8.675
REMARK  Name = 54682555
REMARK  3 active torsions:
REMARK  status: ('A' for Active; 'I' for Inactive)
REMARK    1  A    between atoms: C_4  and  C_19
REMARK    2  A    between atoms: C_5  and  C_9
REMARK    3  A    between atoms: C_6  and  O_25
REMARK                            x       y       z     vdW  Elec       q    Type
REMARK                         _______ _______ _______ _____ _____    ______ ____
ROOT
ATOM      1  O   UNL     1      35.957 -19.855 -19.194  0.00  0.00    -0.418 OA
ATOM      2  O   UNL     1      37.013 -18.277 -20.481  0.00  0.00    -0.244 OA
ATOM      3  C   UNL     1      34.680 -20.399 -19.267  0.00  0.00    +0.182 C 
ATOM      4  C   UNL     1      34.748 -18.900 -20.965  0.00  0.00    +0.113 C 
ATOM      5  C   UNL     1      34.271 -21.340 -18.409  0.00  0.00    +0.041 C 
ATOM      6  C   UNL     1      33.977 -19.794 -20.348  0.00  0.00    +0.175 C 
ATOM      7  C   UNL     1      36.024 -18.945 -20.220  0.00  0.00    +0.349 C 
ENDROOT
BRANCH   5   9
ATOM      8  C   UNL     1      34.485 -22.619 -16.251  0.00  0.00    +0.000 C 
ATOM      9  C   UNL     1      35.060 -21.914 -17.320  0.00  0.00    +0.003 C 
ATOM     10  C   UNL     1      35.323 -23.142 -15.238  0.00  0.00    +0.000 C 
ATOM     11  C   UNL     1      36.441 -21.725 -17.389  0.00  0.00    +0.000 C 
ATOM     12  C   UNL     1      33.098 -22.819 -16.167  0.00  0.00    +0.000 C 
ATOM     13  C   UNL     1      36.710 -22.944 -15.322  0.00  0.00    +0.000 C 
ATOM     14  C   UNL     1      34.748 -23.848 -14.168  0.00  0.00    +0.000 C 
ATOM     15  C   UNL     1      37.264 -22.239 -16.392  0.00  0.00    +0.000 C 
ATOM     16  C   UNL     1      32.543 -23.522 -15.098  0.00  0.00    +0.000 C 
ATOM     17  C   UNL     1      33.367 -24.036 -14.100  0.00  0.00    +0.000 C 
ENDBRANCH   5   9
BRANCH   4  19
ATOM     18 CL   UNL     1      33.464 -15.368 -25.608  0.00  0.00    -0.082 Cl
ATOM     19  C   UNL     1      34.434 -18.036 -22.102  0.00  0.00    +0.009 C 
ATOM     20  C   UNL     1      34.650 -16.661 -22.013  0.00  0.00    +0.001 C 
ATOM     21  C   UNL     1      33.918 -18.586 -23.275  0.00  0.00    +0.001 C 
ATOM     22  C   UNL     1      34.350 -15.835 -23.097  0.00  0.00    +0.011 C 
ATOM     23  C   UNL     1      33.618 -17.761 -24.359  0.00  0.00    +0.011 C 
ATOM     24  C   UNL     1      33.834 -16.386 -24.270  0.00  0.00    +0.058 C 
ENDBRANCH   4  19
BRANCH   6  25
ATOM     25  O   UNL     1      32.681 -20.094 -20.656  0.00  0.00    -0.503 OA
ATOM     26  H   UNL     1      32.065 -20.267 -19.970  0.00  0.00    +0.292 HD
ENDBRANCH   6  25
TORSDOF 3
ENDMDL
MODEL 5
REMARK VINA RESULT:     -11.6      3.240      8.779
REMARK  Name = 54682555
REMARK  3 active torsions:
REMARK  status: ('A' for Active; 'I' for Inactive)
REMARK    1  A    between atoms: C_4  and  C_19
REMARK    2  A    between atoms: C_5  and  C_9
REMARK    3  A    between atoms: C_6  and  O_25
REMARK                            x       y       z     vdW  Elec       q    Type
REMARK                         _______ _______ _______ _____ _____    ______ ____
ROOT
ATOM      1  O   UNL     1      34.691 -21.101 -18.407  0.00  0.00    -0.418 OA
ATOM      2  O   UNL     1      36.312 -19.935 -19.537  0.00  0.00    -0.244 OA
ATOM      3  C   UNL     1      33.323 -21.221 -18.623  0.00  0.00    +0.182 C 
ATOM      4  C   UNL     1      34.028 -19.825 -20.264  0.00  0.00    +0.113 C 
ATOM      5  C   UNL     1      32.556 -21.984 -17.837  0.00  0.00    +0.041 C 
ATOM      6  C   UNL     1      32.959 -20.433 -19.752  0.00  0.00    +0.175 C 
ATOM      7  C   UNL     1      35.143 -20.261 -19.395  0.00  0.00    +0.349 C 
ENDROOT
BRANCH   5   9
ATOM      8  C   UNL     1      32.148 -23.196 -15.669  0.00  0.00    +0.000 C 
ATOM      9  C   UNL     1      33.010 -22.769 -16.691  0.00  0.00    +0.003 C 
ATOM     10  C   UNL     1      32.671 -23.953 -14.594  0.00  0.00    +0.000 C 
ATOM     11  C   UNL     1      34.370 -23.083 -16.654  0.00  0.00    +0.000 C 
ATOM     12  C   UNL     1      30.778 -22.889 -15.690  0.00  0.00    +0.000 C 
ATOM     13  C   UNL     1      34.041 -24.260 -14.572  0.00  0.00    +0.000 C 
ATOM     14  C   UNL     1      31.808 -24.380 -13.570  0.00  0.00    +0.000 C 
ATOM     15  C   UNL     1      34.884 -23.827 -15.597  0.00  0.00    +0.000 C 
ATOM     16  C   UNL     1      29.935 -23.322 -14.666  0.00  0.00    +0.000 C 
ATOM     17  C   UNL     1      30.449 -24.065 -13.608  0.00  0.00    +0.000 C 
ENDBRANCH   5   9
BRANCH   4  19
ATOM     18 CL   UNL     1      34.393 -16.092 -24.912  0.00  0.00    -0.082 Cl
ATOM     19  C   UNL     1      34.117 -18.912 -21.402  0.00  0.00    +0.009 C 
ATOM     20  C   UNL     1      34.668 -17.641 -21.234  0.00  0.00    +0.001 C 
ATOM     21  C   UNL     1      33.652 -19.311 -22.654  0.00  0.00    +0.001 C 
ATOM     22  C   UNL     1      34.753 -16.769 -22.319  0.00  0.00    +0.011 C 
ATOM     23  C   UNL     1      33.737 -18.439 -23.740  0.00  0.00    +0.011 C 
ATOM     24  C   UNL     1      34.288 -17.168 -23.573  0.00  0.00    +0.058 C 
ENDBRANCH   4  19
BRANCH   6  25
ATOM     25  O   UNL     1      31.673 -20.316 -20.197  0.00  0.00    -0.503 OA
ATOM     26  H   UNL     1      31.424 -20.699 -21.016  0.00  0.00    +0.292 HD
ENDBRANCH   6  25
TORSDOF 3
ENDMDL
MODEL 6
REMARK VINA RESULT:     -11.6      7.764     12.312
REMARK  Name = 54682555
REMARK  3 active torsions:
REMARK  status: ('A' for Active; 'I' for Inactive)
REMARK    1  A    between atoms: C_4  and  C_19
REMARK    2  A    between atoms: C_5  and  C_9
REMARK    3  A    between atoms: C_6  and  O_25
REMARK                            x       y       z     vdW  Elec       q    Type
REMARK                         _______ _______ _______ _____ _____    ______ ____
ROOT
ATOM      1  O   UNL     1      33.679 -10.442 -23.586  0.00  0.00    -0.418 OA
ATOM      2  O   UNL     1      34.806  -8.453 -23.786  0.00  0.00    -0.244 OA
ATOM      3  C   UNL     1      32.374 -10.726 -23.201  0.00  0.00    +0.182 C 
ATOM      4  C   UNL     1      32.526  -8.470 -23.043  0.00  0.00    +0.113 C 
ATOM      5  C   UNL     1      31.911 -11.980 -23.174  0.00  0.00    +0.041 C 
ATOM      6  C   UNL     1      31.709  -9.509 -22.876  0.00  0.00    +0.175 C 
ATOM      7  C   UNL     1      33.794  -9.075 -23.503  0.00  0.00    +0.349 C 
ENDROOT
BRANCH   5   9
ATOM      8  C   UNL     1      33.231 -14.036 -22.568  0.00  0.00    +0.000 C 
ATOM      9  C   UNL     1      32.663 -13.183 -23.527  0.00  0.00    +0.003 C 
ATOM     10  C   UNL     1      33.944 -15.181 -22.997  0.00  0.00    +0.000 C 
ATOM     11  C   UNL     1      32.796 -13.453 -24.890  0.00  0.00    +0.000 C 
ATOM     12  C   UNL     1      33.106 -13.780 -21.193  0.00  0.00    +0.000 C 
ATOM     13  C   UNL     1      34.069 -15.438 -24.371  0.00  0.00    +0.000 C 
ATOM     14  C   UNL     1      34.514 -16.035 -22.037  0.00  0.00    +0.000 C 
ATOM     15  C   UNL     1      33.498 -14.579 -25.311  0.00  0.00    +0.000 C 
ATOM     16  C   UNL     1      33.677 -14.638 -20.254  0.00  0.00    +0.000 C 
ATOM     17  C   UNL     1      34.380 -15.763 -20.675  0.00  0.00    +0.000 C 
ENDBRANCH   5   9
BRANCH   4  19
ATOM     18 CL   UNL     1      31.497  -2.664 -22.088  0.00  0.00    -0.082 Cl
ATOM     19  C   UNL     1      32.274  -7.049 -22.810  0.00  0.00    +0.009 C 
ATOM     20  C   UNL     1      32.279  -6.544 -21.509  0.00  0.00    +0.001 C 
ATOM     21  C   UNL     1      32.029  -6.198 -23.887  0.00  0.00    +0.001 C 
ATOM     22  C   UNL     1      32.038  -5.188 -21.286  0.00  0.00    +0.011 C 
ATOM     23  C   UNL     1      31.789  -4.842 -23.664  0.00  0.00    +0.011 C 
ATOM     24  C   UNL     1      31.794  -4.337 -22.364  0.00  0.00    +0.058 C 
ENDBRANCH   4  19
BRANCH   6  25
ATOM     25  O   UNL     1      30.420  -9.460 -22.428  0.00  0.00    -0.503 OA
ATOM     26  H   UNL     1      29.746  -9.108 -22.977  0.00  0.00    +0.292 HD
ENDBRANCH   6  25
TORSDOF 3
ENDMDL
MODEL 7
REMARK VINA RESULT:     -11.6      3.516      9.771
REMARK  Name = 54682555
REMARK  3 active torsions:
REMARK  status: ('A' for Active; 'I' for Inactive)
REMARK    1  A    between atoms: C_4  and  C_19
REMARK    2  A    between atoms: C_5  and  C_9
REMARK    3  A    between atoms: C_6  and  O_25
REMARK                            x       y       z     vdW  Elec       q    Type
REMARK                         _______ _______ _______ _____ _____    ______ ____
ROOT
ATOM      1  O   UNL     1      35.920 -21.939 -15.685  0.00  0.00    -0.418 OA
ATOM      2  O   UNL     1      36.837 -20.247 -16.933  0.00  0.00    -0.244 OA
ATOM      3  C   UNL     1      34.858 -22.800 -15.940  0.00  0.00    +0.182 C 
ATOM      4  C   UNL     1      34.953 -21.471 -17.774  0.00  0.00    +0.113 C 
ATOM      5  C   UNL     1      34.499 -23.744 -15.064  0.00  0.00    +0.041 C 
ATOM      6  C   UNL     1      34.296 -22.483 -17.210  0.00  0.00    +0.175 C 
ATOM      7  C   UNL     1      36.001 -21.125 -16.789  0.00  0.00    +0.349 C 
ENDROOT
BRANCH   5   9
ATOM      8  C   UNL     1      36.431 -24.529 -13.654  0.00  0.00    +0.000 C 
ATOM      9  C   UNL     1      35.133 -24.007 -13.773  0.00  0.00    +0.003 C 
ATOM     10  C   UNL     1      36.969 -24.754 -12.365  0.00  0.00    +0.000 C 
ATOM     11  C   UNL     1      34.376 -23.712 -12.638  0.00  0.00    +0.000 C 
ATOM     12  C   UNL     1      37.206 -24.831 -14.784  0.00  0.00    +0.000 C 
ATOM     13  C   UNL     1      36.195 -24.452 -11.233  0.00  0.00    +0.000 C 
ATOM     14  C   UNL     1      38.268 -25.277 -12.244  0.00  0.00    +0.000 C 
ATOM     15  C   UNL     1      34.906 -23.934 -11.371  0.00  0.00    +0.000 C 
ATOM     16  C   UNL     1      38.494 -25.349 -14.647  0.00  0.00    +0.000 C 
ATOM     17  C   UNL     1      39.024 -25.572 -13.380  0.00  0.00    +0.000 C 
ENDBRANCH   5   9
BRANCH   4  19
ATOM     18 CL   UNL     1      33.958 -18.767 -23.005  0.00  0.00    -0.082 Cl
ATOM     19  C   UNL     1      34.710 -20.809 -19.054  0.00  0.00    +0.009 C 
ATOM     20  C   UNL     1      33.403 -20.612 -19.500  0.00  0.00    +0.001 C 
ATOM     21  C   UNL     1      35.784 -20.375 -19.830  0.00  0.00    +0.001 C 
ATOM     22  C   UNL     1      33.170 -19.981 -20.722  0.00  0.00    +0.011 C 
ATOM     23  C   UNL     1      35.552 -19.743 -21.052  0.00  0.00    +0.011 C 
ATOM     24  C   UNL     1      34.245 -19.546 -21.498  0.00  0.00    +0.058 C 
ENDBRANCH   4  19
BRANCH   6  25
ATOM     25  O   UNL     1      33.212 -23.132 -17.728  0.00  0.00    -0.503 OA
ATOM     26  H   UNL     1      32.365 -22.732 -17.690  0.00  0.00    +0.292 HD
ENDBRANCH   6  25
TORSDOF 3
ENDMDL
MODEL 8
REMARK VINA RESULT:     -11.5      3.161      8.701
REMARK  Name = 54682555
REMARK  3 active torsions:
REMARK  status: ('A' for Active; 'I' for Inactive)
REMARK    1  A    between atoms: C_4  and  C_19
REMARK    2  A    between atoms: C_5  and  C_9
REMARK    3  A    between atoms: C_6  and  O_25
REMARK                            x       y       z     vdW  Elec       q    Type
REMARK                         _______ _______ _______ _____ _____    ______ ____
ROOT
ATOM      1  O   UNL     1      33.862 -21.213 -18.696  0.00  0.00    -0.418 OA
ATOM      2  O   UNL     1      32.275 -20.546 -20.212  0.00  0.00    -0.244 OA
ATOM      3  C   UNL     1      35.184 -20.824 -18.515  0.00  0.00    +0.182 C 
ATOM      4  C   UNL     1      34.481 -19.608 -20.294  0.00  0.00    +0.113 C 
ATOM      5  C   UNL     1      35.936 -21.339 -17.536  0.00  0.00    +0.041 C 
ATOM      6  C   UNL     1      35.523 -19.856 -19.503  0.00  0.00    +0.175 C 
ATOM      7  C   UNL     1      33.411 -20.483 -19.769  0.00  0.00    +0.349 C 
ENDROOT
BRANCH   5   9
ATOM      8  C   UNL     1      36.407 -23.021 -15.723  0.00  0.00    +0.000 C 
ATOM      9  C   UNL     1      35.508 -22.335 -16.556  0.00  0.00    +0.003 C 
ATOM     10  C   UNL     1      35.909 -23.971 -14.801  0.00  0.00    +0.000 C 
ATOM     11  C   UNL     1      34.137 -22.583 -16.480  0.00  0.00    +0.000 C 
ATOM     12  C   UNL     1      37.790 -22.784 -15.786  0.00  0.00    +0.000 C 
ATOM     13  C   UNL     1      34.526 -24.207 -14.737  0.00  0.00    +0.000 C 
ATOM     14  C   UNL     1      36.808 -24.658 -13.968  0.00  0.00    +0.000 C 
ATOM     15  C   UNL     1      33.647 -23.517 -15.573  0.00  0.00    +0.000 C 
ATOM     16  C   UNL     1      38.669 -23.475 -14.952  0.00  0.00    +0.000 C 
ATOM     17  C   UNL     1      38.179 -24.410 -14.045  0.00  0.00    +0.000 C 
ENDBRANCH   5   9
BRANCH   4  19
ATOM     18 CL   UNL     1      34.085 -15.932 -24.985  0.00  0.00    -0.082 Cl
ATOM     19  C   UNL     1      34.384 -18.708 -21.442  0.00  0.00    +0.009 C 
ATOM     20  C   UNL     1      33.915 -19.187 -22.666  0.00  0.00    +0.001 C 
ATOM     21  C   UNL     1      34.761 -17.372 -21.314  0.00  0.00    +0.001 C 
ATOM     22  C   UNL     1      33.823 -18.329 -23.761  0.00  0.00    +0.011 C 
ATOM     23  C   UNL     1      34.668 -16.513 -22.409  0.00  0.00    +0.011 C 
ATOM     24  C   UNL     1      34.199 -16.991 -23.633  0.00  0.00    +0.058 C 
ENDBRANCH   4  19
BRANCH   6  25
ATOM     25  O   UNL     1      36.768 -19.305 -19.609  0.00  0.00    -0.503 OA
ATOM     26  H   UNL     1      37.475 -19.809 -19.965  0.00  0.00    +0.292 HD
ENDBRANCH   6  25
TORSDOF 3
ENDMDL
MODEL 9
REMARK VINA RESULT:     -11.4      8.156     12.778
REMARK  Name = 54682555
REMARK  3 active torsions:
REMARK  status: ('A' for Active; 'I' for Inactive)
REMARK    1  A    between atoms: C_4  and  C_19
REMARK    2  A    between atoms: C_5  and  C_9
REMARK    3  A    between atoms: C_6  and  O_25
REMARK                            x       y       z     vdW  Elec       q    Type
REMARK                         _______ _______ _______ _____ _____    ______ ____
ROOT
ATOM      1  O   UNL     1      33.643 -10.279 -22.925  0.00  0.00    -0.418 OA
ATOM      2  O   UNL     1      34.786  -8.459 -23.728  0.00  0.00    -0.244 OA
ATOM      3  C   UNL     1      32.303 -10.454 -22.598  0.00  0.00    +0.182 C 
ATOM      4  C   UNL     1      32.438  -8.293 -23.269  0.00  0.00    +0.113 C 
ATOM      5  C   UNL     1      31.840 -11.628 -22.157  0.00  0.00    +0.041 C 
ATOM      6  C   UNL     1      31.607  -9.230 -22.816  0.00  0.00    +0.175 C 
ATOM      7  C   UNL     1      33.748  -8.974 -23.341  0.00  0.00    +0.349 C 
ENDROOT
BRANCH   5   9
ATOM      8  C   UNL     1      33.017 -13.678 -23.022  0.00  0.00    +0.000 C 
ATOM      9  C   UNL     1      32.625 -12.845 -21.962  0.00  0.00    +0.003 C 
ATOM     10  C   UNL     1      33.777 -14.839 -22.745  0.00  0.00    +0.000 C 
ATOM     11  C   UNL     1      32.977 -13.153 -20.646  0.00  0.00    +0.000 C 
ATOM     12  C   UNL     1      32.672 -13.384 -24.351  0.00  0.00    +0.000 C 
ATOM     13  C   UNL     1      34.122 -15.134 -21.416  0.00  0.00    +0.000 C 
ATOM     14  C   UNL     1      34.169 -15.674 -23.805  0.00  0.00    +0.000 C 
ATOM     15  C   UNL     1      33.724 -14.294 -20.375  0.00  0.00    +0.000 C 
ATOM     16  C   UNL     1      33.070 -14.223 -25.392  0.00  0.00    +0.000 C 
ATOM     17  C   UNL     1      33.816 -15.366 -25.120  0.00  0.00    +0.000 C 
ENDBRANCH   5   9
BRANCH   4  19
ATOM     18 CL   UNL     1      31.313  -2.589 -24.638  0.00  0.00    -0.082 Cl
ATOM     19  C   UNL     1      32.162  -6.897 -23.604  0.00  0.00    +0.009 C 
ATOM     20  C   UNL     1      32.568  -5.880 -22.741  0.00  0.00    +0.001 C 
ATOM     21  C   UNL     1      31.494  -6.583 -24.787  0.00  0.00    +0.001 C 
ATOM     22  C   UNL     1      32.306  -4.547 -23.060  0.00  0.00    +0.011 C 
ATOM     23  C   UNL     1      31.231  -5.250 -25.107  0.00  0.00    +0.011 C 
ATOM     24  C   UNL     1      31.638  -4.233 -24.243  0.00  0.00    +0.058 C 
ENDBRANCH   4  19
BRANCH   6  25
ATOM     25  O   UNL     1      30.277  -9.073 -22.552  0.00  0.00    -0.503 OA
ATOM     26  H   UNL     1      29.818  -8.327 -22.887  0.00  0.00    +0.292 HD
ENDBRANCH   6  25
TORSDOF 3
ENDMDL
