MODEL 1
REMARK VINA RESULT:     -10.7      0.000      0.000
REMARK  Name = 25150855
REMARK  7 active torsions:
REMARK  status: ('A' for Active; 'I' for Inactive)
REMARK    1  A    between atoms: C_2  and  C_10
REMARK    2  A    between atoms: C_3  and  C_18
REMARK    3  A    between atoms: C_5  and  O_26
REMARK    4  A    between atoms: N_17  and  C_20
REMARK    5  A    between atoms: C_20  and  C_21
REMARK    6  A    between atoms: C_21  and  C_23
REMARK    7  A    between atoms: C_23  and  O_24
REMARK                            x       y       z     vdW  Elec       q    Type
REMARK                         _______ _______ _______ _____ _____    ______ ____
ROOT
ATOM      1  I   UNL     1      29.290 -24.321 -14.843  0.00  0.00    -0.039 I 
ATOM      2  C   UNL     1      33.126 -22.799 -16.179  0.00  0.00    +0.003 C 
ATOM      3  C   UNL     1      33.532 -23.715 -13.981  0.00  0.00    +0.087 C 
ATOM      4  C   UNL     1      34.001 -23.075 -15.129  0.00  0.00    +0.008 C 
ATOM      5  C   UNL     1      32.189 -24.078 -13.885  0.00  0.00    +0.143 C 
ATOM      6  C   UNL     1      31.783 -23.162 -16.082  0.00  0.00    +0.009 C 
ATOM      7  C   UNL     1      31.314 -23.802 -14.935  0.00  0.00    +0.064 C 
ENDROOT
BRANCH   2  10
ATOM      8  F   UNL     1      35.855 -22.271 -16.590  0.00  0.00    -0.204 F 
ATOM      9  F   UNL     1      34.985 -20.235 -20.769  0.00  0.00    -0.204 F 
ATOM     10  C   UNL     1      33.612 -22.134 -17.369  0.00  0.00    +0.028 C 
ATOM     11  C   UNL     1      34.977 -21.893 -17.530  0.00  0.00    +0.142 C 
ATOM     12  C   UNL     1      32.712 -21.733 -18.356  0.00  0.00    +0.005 C 
ATOM     13  C   UNL     1      35.440 -21.251 -18.678  0.00  0.00    +0.059 C 
ATOM     14  C   UNL     1      33.175 -21.092 -19.504  0.00  0.00    +0.030 C 
ATOM     15  C   UNL     1      34.539 -20.851 -19.665  0.00  0.00    +0.142 C 
ENDBRANCH   2  10
BRANCH   3  18
ATOM     16  O   UNL     1      34.311 -23.460 -11.784  0.00  0.00    -0.270 OA
ATOM     17  N   UNL     1      35.511 -24.886 -13.165  0.00  0.00    -0.300 N 
ATOM     18  C   UNL     1      34.484 -23.996 -12.876  0.00  0.00    +0.249 C 
ATOM     19  H   UNL     1      35.566 -25.264 -14.072  0.00  0.00    +0.150 HD
BRANCH  17  20
ATOM     20  C   UNL     1      36.496 -25.277 -12.192  0.00  0.00    +0.101 C 
BRANCH  20  21
ATOM     21  C   UNL     1      37.855 -24.642 -12.459  0.00  0.00    +0.131 C 
BRANCH  21  23
ATOM     22  O   UNL     1      37.693 -22.946 -14.199  0.00  0.00    -0.250 OA
ATOM     23  C   UNL     1      37.981 -24.085 -13.862  0.00  0.00    +0.319 C 
BRANCH  23  24
ATOM     24  O   UNL     1      38.458 -25.067 -14.683  0.00  0.00    -0.444 OA
ATOM     25  C   UNL     1      39.882 -25.207 -14.714  0.00  0.00    +0.256 C 
ENDBRANCH  23  24
ENDBRANCH  21  23
ENDBRANCH  20  21
ENDBRANCH  17  20
ENDBRANCH   3  18
BRANCH   5  26
ATOM     26  O   UNL     1      31.751 -24.704 -12.752  0.00  0.00    -0.505 OA
ATOM     27  H   UNL     1      32.122 -24.482 -11.921  0.00  0.00    +0.292 HD
ENDBRANCH   5  26
TORSDOF 7
ENDMDL
MODEL 2
REMARK VINA RESULT:     -10.5      3.000      5.759
REMARK  Name = 25150855
REMARK  7 active torsions:
REMARK  status: ('A' for Active; 'I' for Inactive)
REMARK    1  A    between atoms: C_2  and  C_10
REMARK    2  A    between atoms: C_3  and  C_18
REMARK    3  A    between atoms: C_5  and  O_26
REMARK    4  A    between atoms: N_17  and  C_20
REMARK    5  A    between atoms: C_20  and  C_21
REMARK    6  A    between atoms: C_21  and  C_23
REMARK    7  A    between atoms: C_23  and  O_24
REMARK                            x       y       z     vdW  Elec       q    Type
REMARK                         _______ _______ _______ _____ _____    ______ ____
ROOT
ATOM      1  I   UNL     1      36.783 -24.087 -12.802  0.00  0.00    -0.039 I 
ATOM      2  C   UNL     1      34.248 -22.614 -15.999  0.00  0.00    +0.003 C 
ATOM      3  C   UNL     1      32.732 -23.443 -14.311  0.00  0.00    +0.087 C 
ATOM      4  C   UNL     1      32.947 -22.849 -15.555  0.00  0.00    +0.008 C 
ATOM      5  C   UNL     1      33.817 -23.801 -13.512  0.00  0.00    +0.143 C 
ATOM      6  C   UNL     1      35.333 -22.973 -15.201  0.00  0.00    +0.009 C 
ATOM      7  C   UNL     1      35.118 -23.566 -13.957  0.00  0.00    +0.064 C 
ENDROOT
BRANCH   2  10
ATOM      8  F   UNL     1      36.772 -21.667 -16.791  0.00  0.00    -0.204 F 
ATOM      9  F   UNL     1      35.090 -20.247 -20.978  0.00  0.00    -0.204 F 
ATOM     10  C   UNL     1      34.471 -22.000 -17.290  0.00  0.00    +0.028 C 
ATOM     11  C   UNL     1      35.741 -21.544 -17.641  0.00  0.00    +0.142 C 
ATOM     12  C   UNL     1      33.409 -21.863 -18.185  0.00  0.00    +0.005 C 
ATOM     13  C   UNL     1      35.951 -20.951 -18.886  0.00  0.00    +0.059 C 
ATOM     14  C   UNL     1      33.618 -21.272 -19.430  0.00  0.00    +0.030 C 
ATOM     15  C   UNL     1      34.889 -20.815 -19.780  0.00  0.00    +0.142 C 
ENDBRANCH   2  10
BRANCH   3  18
ATOM     16  O   UNL     1      31.029 -23.432 -12.699  0.00  0.00    -0.270 OA
ATOM     17  N   UNL     1      30.459 -24.168 -14.823  0.00  0.00    -0.300 N 
ATOM     18  C   UNL     1      31.337 -23.684 -13.861  0.00  0.00    +0.249 C 
ATOM     19  H   UNL     1      30.801 -24.340 -15.731  0.00  0.00    +0.150 HD
BRANCH  17  20
ATOM     20  C   UNL     1      29.071 -24.428 -14.549  0.00  0.00    +0.101 C 
BRANCH  20  21
ATOM     21  C   UNL     1      28.159 -23.929 -15.662  0.00  0.00    +0.131 C 
BRANCH  21  23
ATOM     22  O   UNL     1      29.276 -22.109 -16.832  0.00  0.00    -0.250 OA
ATOM     23  C   UNL     1      28.424 -22.487 -16.041  0.00  0.00    +0.319 C 
BRANCH  23  24
ATOM     24  O   UNL     1      27.563 -21.685 -15.347  0.00  0.00    -0.444 OA
ATOM     25  C   UNL     1      26.195 -21.747 -15.761  0.00  0.00    +0.256 C 
ENDBRANCH  23  24
ENDBRANCH  21  23
ENDBRANCH  20  21
ENDBRANCH  17  20
ENDBRANCH   3  18
BRANCH   5  26
ATOM     26  O   UNL     1      33.584 -24.382 -12.298  0.00  0.00    -0.505 OA
ATOM     27  H   UNL     1      33.871 -23.959 -11.514  0.00  0.00    +0.292 HD
ENDBRANCH   5  26
TORSDOF 7
ENDMDL
MODEL 3
REMARK VINA RESULT:     -10.5      1.555      2.464
REMARK  Name = 25150855
REMARK  7 active torsions:
REMARK  status: ('A' for Active; 'I' for Inactive)
REMARK    1  A    between atoms: C_2  and  C_10
REMARK    2  A    between atoms: C_3  and  C_18
REMARK    3  A    between atoms: C_5  and  O_26
REMARK    4  A    between atoms: N_17  and  C_20
REMARK    5  A    between atoms: C_20  and  C_21
REMARK    6  A    between atoms: C_21  and  C_23
REMARK    7  A    between atoms: C_23  and  O_24
REMARK                            x       y       z     vdW  Elec       q    Type
REMARK                         _______ _______ _______ _____ _____    ______ ____
ROOT
ATOM      1  I   UNL     1      30.648 -23.744 -14.786  0.00  0.00    -0.039 I 
ATOM      2  C   UNL     1      33.737 -22.077 -17.335  0.00  0.00    +0.003 C 
ATOM      3  C   UNL     1      34.915 -23.143 -15.516  0.00  0.00    +0.087 C 
ATOM      4  C   UNL     1      34.934 -22.416 -16.706  0.00  0.00    +0.008 C 
ATOM      5  C   UNL     1      33.699 -23.531 -14.955  0.00  0.00    +0.143 C 
ATOM      6  C   UNL     1      32.520 -22.465 -16.774  0.00  0.00    +0.009 C 
ATOM      7  C   UNL     1      32.501 -23.192 -15.584  0.00  0.00    +0.064 C 
ENDROOT
BRANCH   2  10
ATOM      8  F   UNL     1      36.132 -21.415 -18.647  0.00  0.00    -0.204 F 
ATOM      9  F   UNL     1      33.798 -19.165 -22.091  0.00  0.00    -0.204 F 
ATOM     10  C   UNL     1      33.757 -21.322 -18.569  0.00  0.00    +0.028 C 
ATOM     11  C   UNL     1      34.970 -21.016 -19.186  0.00  0.00    +0.142 C 
ATOM     12  C   UNL     1      32.557 -20.899 -19.142  0.00  0.00    +0.005 C 
ATOM     13  C   UNL     1      34.984 -20.287 -20.375  0.00  0.00    +0.059 C 
ATOM     14  C   UNL     1      32.571 -20.171 -20.331  0.00  0.00    +0.030 C 
ATOM     15  C   UNL     1      33.784 -19.865 -20.947  0.00  0.00    +0.142 C 
ENDBRANCH   2  10
BRANCH   3  18
ATOM     16  O   UNL     1      37.034 -22.606 -14.667  0.00  0.00    -0.270 OA
ATOM     17  N   UNL     1      36.367 -24.821 -14.501  0.00  0.00    -0.300 N 
ATOM     18  C   UNL     1      36.205 -23.490 -14.865  0.00  0.00    +0.249 C 
ATOM     19  H   UNL     1      35.644 -25.457 -14.702  0.00  0.00    +0.150 HD
BRANCH  17  20
ATOM     20  C   UNL     1      37.549 -25.307 -13.840  0.00  0.00    +0.101 C 
BRANCH  20  21
ATOM     21  C   UNL     1      37.350 -25.456 -12.337  0.00  0.00    +0.131 C 
BRANCH  21  23
ATOM     22  O   UNL     1      38.444 -23.325 -11.899  0.00  0.00    -0.250 OA
ATOM     23  C   UNL     1      37.632 -24.179 -11.574  0.00  0.00    +0.319 C 
BRANCH  23  24
ATOM     24  O   UNL     1      36.840 -24.148 -10.461  0.00  0.00    -0.444 OA
ATOM     25  C   UNL     1      35.454 -23.888 -10.700  0.00  0.00    +0.256 C 
ENDBRANCH  23  24
ENDBRANCH  21  23
ENDBRANCH  20  21
ENDBRANCH  17  20
ENDBRANCH   3  18
BRANCH   5  26
ATOM     26  O   UNL     1      33.703 -24.242 -13.789  0.00  0.00    -0.505 OA
ATOM     27  H   UNL     1      34.503 -24.605 -13.465  0.00  0.00    +0.292 HD
ENDBRANCH   5  26
TORSDOF 7
ENDMDL
MODEL 4
REMARK VINA RESULT:     -10.3      4.026      7.021
REMARK  Name = 25150855
REMARK  7 active torsions:
REMARK  status: ('A' for Active; 'I' for Inactive)
REMARK    1  A    between atoms: C_2  and  C_10
REMARK    2  A    between atoms: C_3  and  C_18
REMARK    3  A    between atoms: C_5  and  O_26
REMARK    4  A    between atoms: N_17  and  C_20
REMARK    5  A    between atoms: C_20  and  C_21
REMARK    6  A    between atoms: C_21  and  C_23
REMARK    7  A    between atoms: C_23  and  O_24
REMARK                            x       y       z     vdW  Elec       q    Type
REMARK                         _______ _______ _______ _____ _____    ______ ____
ROOT
ATOM      1  I   UNL     1      29.845 -22.814 -14.697  0.00  0.00    -0.039 I 
ATOM      2  C   UNL     1      34.139 -23.304 -15.073  0.00  0.00    +0.003 C 
ATOM      3  C   UNL     1      33.396 -22.499 -17.225  0.00  0.00    +0.087 C 
ATOM      4  C   UNL     1      34.425 -22.920 -16.383  0.00  0.00    +0.008 C 
ATOM      5  C   UNL     1      32.083 -22.462 -16.758  0.00  0.00    +0.143 C 
ATOM      6  C   UNL     1      32.825 -23.267 -14.606  0.00  0.00    +0.009 C 
ATOM      7  C   UNL     1      31.797 -22.846 -15.448  0.00  0.00    +0.064 C 
ENDROOT
BRANCH   2  10
ATOM      8  F   UNL     1      35.259 -25.875 -15.250  0.00  0.00    -0.204 F 
ATOM      9  F   UNL     1      38.250 -24.978 -11.698  0.00  0.00    -0.204 F 
ATOM     10  C   UNL     1      35.206 -23.742 -14.199  0.00  0.00    +0.028 C 
ATOM     11  C   UNL     1      35.732 -25.028 -14.323  0.00  0.00    +0.142 C 
ATOM     12  C   UNL     1      35.708 -22.874 -13.229  0.00  0.00    +0.005 C 
ATOM     13  C   UNL     1      36.759 -25.446 -13.478  0.00  0.00    +0.059 C 
ATOM     14  C   UNL     1      36.736 -23.291 -12.385  0.00  0.00    +0.030 C 
ATOM     15  C   UNL     1      37.261 -24.577 -12.509  0.00  0.00    +0.142 C 
ENDBRANCH   2  10
BRANCH   3  18
ATOM     16  O   UNL     1      33.121 -22.614 -19.551  0.00  0.00    -0.270 OA
ATOM     17  N   UNL     1      34.707 -21.122 -18.755  0.00  0.00    -0.300 N 
ATOM     18  C   UNL     1      33.727 -22.096 -18.617  0.00  0.00    +0.249 C 
ATOM     19  H   UNL     1      35.138 -20.767 -17.944  0.00  0.00    +0.150 HD
BRANCH  17  20
ATOM     20  C   UNL     1      35.120 -20.611 -20.035  0.00  0.00    +0.101 C 
BRANCH  20  21
ATOM     21  C   UNL     1      34.204 -19.503 -20.537  0.00  0.00    +0.131 C 
BRANCH  21  23
ATOM     22  O   UNL     1      35.354 -17.357 -20.574  0.00  0.00    -0.250 OA
ATOM     23  C   UNL     1      34.959 -18.351 -21.166  0.00  0.00    +0.319 C 
BRANCH  23  24
ATOM     24  O   UNL     1      35.113 -18.603 -22.500  0.00  0.00    -0.444 OA
ATOM     25  C   UNL     1      33.925 -18.488 -23.289  0.00  0.00    +0.256 C 
ENDBRANCH  23  24
ENDBRANCH  21  23
ENDBRANCH  20  21
ENDBRANCH  17  20
ENDBRANCH   3  18
BRANCH   5  26
ATOM     26  O   UNL     1      31.091 -22.046 -17.601  0.00  0.00    -0.505 OA
ATOM     27  H   UNL     1      30.257 -21.795 -17.255  0.00  0.00    +0.292 HD
ENDBRANCH   5  26
TORSDOF 7
ENDMDL
MODEL 5
REMARK VINA RESULT:     -10.3      4.099      6.990
REMARK  Name = 25150855
REMARK  7 active torsions:
REMARK  status: ('A' for Active; 'I' for Inactive)
REMARK    1  A    between atoms: C_2  and  C_10
REMARK    2  A    between atoms: C_3  and  C_18
REMARK    3  A    between atoms: C_5  and  O_26
REMARK    4  A    between atoms: N_17  and  C_20
REMARK    5  A    between atoms: C_20  and  C_21
REMARK    6  A    between atoms: C_21  and  C_23
REMARK    7  A    between atoms: C_23  and  O_24
REMARK                            x       y       z     vdW  Elec       q    Type
REMARK                         _______ _______ _______ _____ _____    ______ ____
ROOT
ATOM      1  I   UNL     1      37.449 -24.986 -13.101  0.00  0.00    -0.039 I 
ATOM      2  C   UNL     1      33.849 -23.420 -14.947  0.00  0.00    +0.003 C 
ATOM      3  C   UNL     1      35.678 -22.317 -16.074  0.00  0.00    +0.087 C 
ATOM      4  C   UNL     1      34.309 -22.519 -15.907  0.00  0.00    +0.008 C 
ATOM      5  C   UNL     1      36.589 -23.014 -15.281  0.00  0.00    +0.143 C 
ATOM      6  C   UNL     1      34.759 -24.118 -14.154  0.00  0.00    +0.009 C 
ATOM      7  C   UNL     1      36.129 -23.915 -14.320  0.00  0.00    +0.064 C 
ENDROOT
BRANCH   2  10
ATOM      8  F   UNL     1      31.953 -22.393 -16.749  0.00  0.00    -0.204 F 
ATOM      9  F   UNL     1      28.375 -24.234 -14.263  0.00  0.00    -0.204 F 
ATOM     10  C   UNL     1      32.428 -23.629 -14.773  0.00  0.00    +0.028 C 
ATOM     11  C   UNL     1      31.523 -23.101 -15.693  0.00  0.00    +0.142 C 
ATOM     12  C   UNL     1      31.964 -24.362 -13.680  0.00  0.00    +0.005 C 
ATOM     13  C   UNL     1      30.154 -23.304 -15.521  0.00  0.00    +0.059 C 
ATOM     14  C   UNL     1      30.596 -24.566 -13.508  0.00  0.00    +0.030 C 
ATOM     15  C   UNL     1      29.691 -24.037 -14.428  0.00  0.00    +0.142 C 
ENDBRANCH   2  10
BRANCH   3  18
ATOM     16  O   UNL     1      37.000 -20.523 -16.806  0.00  0.00    -0.270 OA
ATOM     17  N   UNL     1      35.568 -21.474 -18.362  0.00  0.00    -0.300 N 
ATOM     18  C   UNL     1      36.142 -21.350 -17.103  0.00  0.00    +0.249 C 
ATOM     19  H   UNL     1      34.885 -22.170 -18.502  0.00  0.00    +0.150 HD
BRANCH  17  20
ATOM     20  C   UNL     1      35.930 -20.629 -19.468  0.00  0.00    +0.101 C 
BRANCH  20  21
ATOM     21  C   UNL     1      34.713 -20.135 -20.239  0.00  0.00    +0.131 C 
BRANCH  21  23
ATOM     22  O   UNL     1      35.736 -17.957 -20.607  0.00  0.00    -0.250 OA
ATOM     23  C   UNL     1      34.964 -18.833 -20.969  0.00  0.00    +0.319 C 
BRANCH  23  24
ATOM     24  O   UNL     1      34.179 -18.796 -22.087  0.00  0.00    -0.444 OA
ATOM     25  C   UNL     1      34.403 -17.684 -22.959  0.00  0.00    +0.256 C 
ENDBRANCH  23  24
ENDBRANCH  21  23
ENDBRANCH  20  21
ENDBRANCH  17  20
ENDBRANCH   3  18
BRANCH   5  26
ATOM     26  O   UNL     1      37.926 -22.800 -15.461  0.00  0.00    -0.505 OA
ATOM     27  H   UNL     1      38.485 -23.511 -15.704  0.00  0.00    +0.292 HD
ENDBRANCH   5  26
TORSDOF 7
ENDMDL
MODEL 6
REMARK VINA RESULT:     -10.0      3.918      7.476
REMARK  Name = 25150855
REMARK  7 active torsions:
REMARK  status: ('A' for Active; 'I' for Inactive)
REMARK    1  A    between atoms: C_2  and  C_10
REMARK    2  A    between atoms: C_3  and  C_18
REMARK    3  A    between atoms: C_5  and  O_26
REMARK    4  A    between atoms: N_17  and  C_20
REMARK    5  A    between atoms: C_20  and  C_21
REMARK    6  A    between atoms: C_21  and  C_23
REMARK    7  A    between atoms: C_23  and  O_24
REMARK                            x       y       z     vdW  Elec       q    Type
REMARK                         _______ _______ _______ _____ _____    ______ ____
ROOT
ATOM      1  I   UNL     1      33.927 -21.531 -19.136  0.00  0.00    -0.039 I 
ATOM      2  C   UNL     1      34.414 -23.371 -15.238  0.00  0.00    +0.003 C 
ATOM      3  C   UNL     1      32.035 -23.049 -15.500  0.00  0.00    +0.087 C 
ATOM      4  C   UNL     1      33.117 -23.490 -14.740  0.00  0.00    +0.008 C 
ATOM      5  C   UNL     1      32.249 -22.487 -16.759  0.00  0.00    +0.143 C 
ATOM      6  C   UNL     1      34.629 -22.810 -16.496  0.00  0.00    +0.009 C 
ATOM      7  C   UNL     1      33.547 -22.368 -17.257  0.00  0.00    +0.064 C 
ENDROOT
BRANCH   2  10
ATOM      8  F   UNL     1      35.394 -25.999 -15.409  0.00  0.00    -0.204 F 
ATOM      9  F   UNL     1      38.742 -25.118 -12.187  0.00  0.00    -0.204 F 
ATOM     10  C   UNL     1      35.537 -23.828 -14.448  0.00  0.00    +0.028 C 
ATOM     11  C   UNL     1      35.990 -25.142 -14.566  0.00  0.00    +0.142 C 
ATOM     12  C   UNL     1      36.167 -22.950 -13.566  0.00  0.00    +0.005 C 
ATOM     13  C   UNL     1      37.072 -25.578 -13.802  0.00  0.00    +0.059 C 
ATOM     14  C   UNL     1      37.249 -23.385 -12.802  0.00  0.00    +0.030 C 
ATOM     15  C   UNL     1      37.701 -24.700 -12.920  0.00  0.00    +0.142 C 
ENDBRANCH   2  10
BRANCH   3  18
ATOM     16  O   UNL     1      30.361 -22.562 -13.932  0.00  0.00    -0.270 OA
ATOM     17  N   UNL     1      29.799 -24.014 -15.650  0.00  0.00    -0.300 N 
ATOM     18  C   UNL     1      30.663 -23.186 -14.946  0.00  0.00    +0.249 C 
ATOM     19  H   UNL     1      30.135 -24.473 -16.454  0.00  0.00    +0.150 HD
BRANCH  17  20
ATOM     20  C   UNL     1      28.433 -24.230 -15.254  0.00  0.00    +0.101 C 
BRANCH  20  21
ATOM     21  C   UNL     1      27.448 -23.867 -16.357  0.00  0.00    +0.131 C 
BRANCH  21  23
ATOM     22  O   UNL     1      28.239 -21.592 -16.716  0.00  0.00    -0.250 OA
ATOM     23  C   UNL     1      27.311 -22.373 -16.560  0.00  0.00    +0.319 C 
BRANCH  23  24
ATOM     24  O   UNL     1      25.985 -22.044 -16.528  0.00  0.00    -0.444 OA
ATOM     25  C   UNL     1      25.615 -20.903 -17.309  0.00  0.00    +0.256 C 
ENDBRANCH  23  24
ENDBRANCH  21  23
ENDBRANCH  20  21
ENDBRANCH  17  20
ENDBRANCH   3  18
BRANCH   5  26
ATOM     26  O   UNL     1      31.175 -22.061 -17.487  0.00  0.00    -0.505 OA
ATOM     27  H   UNL     1      31.292 -21.775 -18.371  0.00  0.00    +0.292 HD
ENDBRANCH   5  26
TORSDOF 7
ENDMDL
MODEL 7
REMARK VINA RESULT:     -10.0      3.091      4.944
REMARK  Name = 25150855
REMARK  7 active torsions:
REMARK  status: ('A' for Active; 'I' for Inactive)
REMARK    1  A    between atoms: C_2  and  C_10
REMARK    2  A    between atoms: C_3  and  C_18
REMARK    3  A    between atoms: C_5  and  O_26
REMARK    4  A    between atoms: N_17  and  C_20
REMARK    5  A    between atoms: C_20  and  C_21
REMARK    6  A    between atoms: C_21  and  C_23
REMARK    7  A    between atoms: C_23  and  O_24
REMARK                            x       y       z     vdW  Elec       q    Type
REMARK                         _______ _______ _______ _____ _____    ______ ____
ROOT
ATOM      1  I   UNL     1      34.719 -21.301 -19.371  0.00  0.00    -0.039 I 
ATOM      2  C   UNL     1      32.956 -22.916 -15.752  0.00  0.00    +0.003 C 
ATOM      3  C   UNL     1      35.276 -22.520 -15.211  0.00  0.00    +0.087 C 
ATOM      4  C   UNL     1      34.006 -22.956 -14.835  0.00  0.00    +0.008 C 
ATOM      5  C   UNL     1      35.496 -22.043 -16.502  0.00  0.00    +0.143 C 
ATOM      6  C   UNL     1      33.176 -22.439 -17.043  0.00  0.00    +0.009 C 
ATOM      7  C   UNL     1      34.446 -22.003 -17.419  0.00  0.00    +0.064 C 
ENDROOT
BRANCH   2  10
ATOM      8  F   UNL     1      32.563 -24.766 -13.673  0.00  0.00    -0.204 F 
ATOM      9  F   UNL     1      27.872 -24.656 -14.262  0.00  0.00    -0.204 F 
ATOM     10  C   UNL     1      31.639 -23.370 -15.362  0.00  0.00    +0.028 C 
ATOM     11  C   UNL     1      31.491 -24.290 -14.324  0.00  0.00    +0.142 C 
ATOM     12  C   UNL     1      30.513 -22.885 -16.029  0.00  0.00    +0.005 C 
ATOM     13  C   UNL     1      30.219 -24.725 -13.953  0.00  0.00    +0.059 C 
ATOM     14  C   UNL     1      29.241 -23.319 -15.658  0.00  0.00    +0.030 C 
ATOM     15  C   UNL     1      29.094 -24.239 -14.620  0.00  0.00    +0.142 C 
ENDBRANCH   2  10
BRANCH   3  18
ATOM     16  O   UNL     1      37.536 -22.698 -14.608  0.00  0.00    -0.270 OA
ATOM     17  N   UNL     1      36.006 -22.459 -12.883  0.00  0.00    -0.300 N 
ATOM     18  C   UNL     1      36.379 -22.575 -14.216  0.00  0.00    +0.249 C 
ATOM     19  H   UNL     1      35.050 -22.365 -12.667  0.00  0.00    +0.150 HD
BRANCH  17  20
ATOM     20  C   UNL     1      36.959 -22.469 -11.805  0.00  0.00    +0.101 C 
BRANCH  20  21
ATOM     21  C   UNL     1      37.324 -23.883 -11.372  0.00  0.00    +0.131 C 
BRANCH  21  23
ATOM     22  O   UNL     1      35.000 -24.494 -10.980  0.00  0.00    -0.250 OA
ATOM     23  C   UNL     1      36.130 -24.813 -11.321  0.00  0.00    +0.319 C 
BRANCH  23  24
ATOM     24  O   UNL     1      36.528 -26.062 -11.706  0.00  0.00    -0.444 OA
ATOM     25  C   UNL     1      36.946 -26.181 -13.069  0.00  0.00    +0.256 C 
ENDBRANCH  23  24
ENDBRANCH  21  23
ENDBRANCH  20  21
ENDBRANCH  17  20
ENDBRANCH   3  18
BRANCH   5  26
ATOM     26  O   UNL     1      36.749 -21.621 -16.849  0.00  0.00    -0.505 OA
ATOM     27  H   UNL     1      37.193 -22.018 -17.572  0.00  0.00    +0.292 HD
ENDBRANCH   5  26
TORSDOF 7
ENDMDL
MODEL 8
REMARK VINA RESULT:     -10.0      5.025      7.954
REMARK  Name = 25150855
REMARK  7 active torsions:
REMARK  status: ('A' for Active; 'I' for Inactive)
REMARK    1  A    between atoms: C_2  and  C_10
REMARK    2  A    between atoms: C_3  and  C_18
REMARK    3  A    between atoms: C_5  and  O_26
REMARK    4  A    between atoms: N_17  and  C_20
REMARK    5  A    between atoms: C_20  and  C_21
REMARK    6  A    between atoms: C_21  and  C_23
REMARK    7  A    between atoms: C_23  and  O_24
REMARK                            x       y       z     vdW  Elec       q    Type
REMARK                         _______ _______ _______ _____ _____    ______ ____
ROOT
ATOM      1  I   UNL     1      36.790 -22.530 -15.350  0.00  0.00    -0.039 I 
ATOM      2  C   UNL     1      32.546 -22.840 -16.191  0.00  0.00    +0.003 C 
ATOM      3  C   UNL     1      33.494 -21.699 -18.097  0.00  0.00    +0.087 C 
ATOM      4  C   UNL     1      32.387 -22.230 -17.436  0.00  0.00    +0.008 C 
ATOM      5  C   UNL     1      34.759 -21.778 -17.516  0.00  0.00    +0.143 C 
ATOM      6  C   UNL     1      33.811 -22.918 -15.609  0.00  0.00    +0.009 C 
ATOM      7  C   UNL     1      34.918 -22.387 -16.271  0.00  0.00    +0.064 C 
ENDROOT
BRANCH   2  10
ATOM      8  F   UNL     1      29.914 -22.119 -16.861  0.00  0.00    -0.204 F 
ATOM      9  F   UNL     1      28.130 -24.967 -13.533  0.00  0.00    -0.204 F 
ATOM     10  C   UNL     1      31.397 -23.389 -15.504  0.00  0.00    +0.028 C 
ATOM     11  C   UNL     1      30.109 -23.003 -15.871  0.00  0.00    +0.142 C 
ATOM     12  C   UNL     1      31.582 -24.309 -14.471  0.00  0.00    +0.005 C 
ATOM     13  C   UNL     1      29.005 -23.535 -15.204  0.00  0.00    +0.059 C 
ATOM     14  C   UNL     1      30.479 -24.842 -13.806  0.00  0.00    +0.030 C 
ATOM     15  C   UNL     1      29.190 -24.454 -14.172  0.00  0.00    +0.142 C 
ENDBRANCH   2  10
BRANCH   3  18
ATOM     16  O   UNL     1      32.265 -21.272 -20.049  0.00  0.00    -0.270 OA
ATOM     17  N   UNL     1      34.318 -20.212 -19.848  0.00  0.00    -0.300 N 
ATOM     18  C   UNL     1      33.298 -21.053 -19.421  0.00  0.00    +0.249 C 
ATOM     19  H   UNL     1      35.110 -20.101 -19.274  0.00  0.00    +0.150 HD
BRANCH  17  20
ATOM     20  C   UNL     1      34.265 -19.497 -21.095  0.00  0.00    +0.101 C 
BRANCH  20  21
ATOM     21  C   UNL     1      35.374 -18.459 -21.213  0.00  0.00    +0.131 C 
BRANCH  21  23
ATOM     22  O   UNL     1      34.620 -16.294 -20.394  0.00  0.00    -0.250 OA
ATOM     23  C   UNL     1      34.849 -17.044 -21.332  0.00  0.00    +0.319 C 
BRANCH  23  24
ATOM     24  O   UNL     1      34.665 -16.752 -22.654  0.00  0.00    -0.444 OA
ATOM     25  C   UNL     1      34.424 -15.374 -22.952  0.00  0.00    +0.256 C 
ENDBRANCH  23  24
ENDBRANCH  21  23
ENDBRANCH  20  21
ENDBRANCH  17  20
ENDBRANCH   3  18
BRANCH   5  26
ATOM     26  O   UNL     1      35.829 -21.250 -18.181  0.00  0.00    -0.505 OA
ATOM     27  H   UNL     1      35.692 -20.658 -18.893  0.00  0.00    +0.292 HD
ENDBRANCH   5  26
TORSDOF 7
ENDMDL
MODEL 9
REMARK VINA RESULT:      -9.7      3.059      5.155
REMARK  Name = 25150855
REMARK  7 active torsions:
REMARK  status: ('A' for Active; 'I' for Inactive)
REMARK    1  A    between atoms: C_2  and  C_10
REMARK    2  A    between atoms: C_3  and  C_18
REMARK    3  A    between atoms: C_5  and  O_26
REMARK    4  A    between atoms: N_17  and  C_20
REMARK    5  A    between atoms: C_20  and  C_21
REMARK    6  A    between atoms: C_21  and  C_23
REMARK    7  A    between atoms: C_23  and  O_24
REMARK                            x       y       z     vdW  Elec       q    Type
REMARK                         _______ _______ _______ _____ _____    ______ ____
ROOT
ATOM      1  I   UNL     1      33.835 -20.914 -19.734  0.00  0.00    -0.039 I 
ATOM      2  C   UNL     1      32.915 -22.931 -16.004  0.00  0.00    +0.003 C 
ATOM      3  C   UNL     1      35.305 -22.580 -15.970  0.00  0.00    +0.087 C 
ATOM      4  C   UNL     1      34.146 -23.065 -15.363  0.00  0.00    +0.008 C 
ATOM      5  C   UNL     1      35.233 -21.963 -17.218  0.00  0.00    +0.143 C 
ATOM      6  C   UNL     1      32.843 -22.313 -17.252  0.00  0.00    +0.009 C 
ATOM      7  C   UNL     1      34.001 -21.829 -17.860  0.00  0.00    +0.064 C 
ENDROOT
BRANCH   2  10
ATOM      8  F   UNL     1      30.349 -22.122 -16.815  0.00  0.00    -0.204 F 
ATOM      9  F   UNL     1      28.293 -24.879 -13.568  0.00  0.00    -0.204 F 
ATOM     10  C   UNL     1      31.714 -23.434 -15.375  0.00  0.00    +0.028 C 
ATOM     11  C   UNL     1      30.460 -23.004 -15.811  0.00  0.00    +0.142 C 
ATOM     12  C   UNL     1      31.811 -24.351 -14.329  0.00  0.00    +0.005 C 
ATOM     13  C   UNL     1      29.305 -23.492 -15.200  0.00  0.00    +0.059 C 
ATOM     14  C   UNL     1      30.657 -24.840 -13.719  0.00  0.00    +0.030 C 
ATOM     15  C   UNL     1      29.403 -24.409 -14.154  0.00  0.00    +0.142 C 
ENDBRANCH   2  10
BRANCH   3  18
ATOM     16  O   UNL     1      37.249 -21.736 -14.966  0.00  0.00    -0.270 OA
ATOM     17  N   UNL     1      36.989 -24.040 -14.976  0.00  0.00    -0.300 N 
ATOM     18  C   UNL     1      36.604 -22.737 -15.266  0.00  0.00    +0.249 C 
ATOM     19  H   UNL     1      36.403 -24.779 -15.259  0.00  0.00    +0.150 HD
BRANCH  17  20
ATOM     20  C   UNL     1      38.207 -24.353 -14.278  0.00  0.00    +0.101 C 
BRANCH  20  21
ATOM     21  C   UNL     1      38.009 -25.444 -13.232  0.00  0.00    +0.131 C 
BRANCH  21  23
ATOM     22  O   UNL     1      36.545 -25.644 -11.297  0.00  0.00    -0.250 OA
ATOM     23  C   UNL     1      37.269 -24.958 -12.005  0.00  0.00    +0.319 C 
BRANCH  23  24
ATOM     24  O   UNL     1      37.533 -23.629 -11.828  0.00  0.00    -0.444 OA
ATOM     25  C   UNL     1      36.411 -22.823 -11.454  0.00  0.00    +0.256 C 
ENDBRANCH  23  24
ENDBRANCH  21  23
ENDBRANCH  20  21
ENDBRANCH  17  20
ENDBRANCH   3  18
BRANCH   5  26
ATOM     26  O   UNL     1      36.380 -21.496 -17.795  0.00  0.00    -0.505 OA
ATOM     27  H   UNL     1      37.165 -21.429 -17.288  0.00  0.00    +0.292 HD
ENDBRANCH   5  26
TORSDOF 7
ENDMDL
