MODEL 1
REMARK VINA RESULT:     -11.6      0.000      0.000
REMARK  Name = 24756910
REMARK  12 active torsions:
REMARK  status: ('A' for Active; 'I' for Inactive)
REMARK    1  A    between atoms: N_1  and  C_13
REMARK    2  A    between atoms: C_4  and  O_23
REMARK    3  A    between atoms: C_7  and  O_21
REMARK    4  A    between atoms: C_16  and  C_19
REMARK    5  A    between atoms: O_23  and  C_24
REMARK    6  A    between atoms: C_24  and  C_25
REMARK    7  A    between atoms: C_25  and  C_26
REMARK    8  A    between atoms: C_26  and  C_27
REMARK    9  A    between atoms: C_27  and  C_28
REMARK   10  A    between atoms: C_28  and  C_29
REMARK   11  A    between atoms: C_29  and  C_32
REMARK   12  A    between atoms: N_31  and  O_34
REMARK                            x       y       z     vdW  Elec       q    Type
REMARK                         _______ _______ _______ _____ _____    ______ ____
ROOT
ATOM      1  N   UNL     1      33.252 -12.526 -22.161  0.00  0.00    -0.298 N 
ATOM      2  N   UNL     1      33.101 -14.862 -25.574  0.00  0.00    -0.248 NA
ATOM      3  N   UNL     1      32.700 -12.777 -24.434  0.00  0.00    -0.230 NA
ATOM      4  C   UNL     1      34.660 -16.527 -22.084  0.00  0.00    +0.169 C 
ATOM      5  C   UNL     1      33.678 -14.647 -23.257  0.00  0.00    +0.048 C 
ATOM      6  C   UNL     1      34.205 -15.211 -22.082  0.00  0.00    +0.044 C 
ATOM      7  C   UNL     1      34.590 -17.275 -23.255  0.00  0.00    +0.156 C 
ATOM      8  C   UNL     1      33.603 -15.391 -24.445  0.00  0.00    +0.066 C 
ATOM      9  C   UNL     1      34.065 -16.705 -24.420  0.00  0.00    +0.112 C 
ATOM     10  C   UNL     1      33.208 -13.339 -23.321  0.00  0.00    +0.131 C 
ATOM     11  C   UNL     1      32.676 -13.584 -25.507  0.00  0.00    +0.252 C 
ATOM     12  H   UNL     1      33.994 -12.744 -21.551  0.00  0.00    +0.154 HD
ENDROOT
BRANCH   1  13
ATOM     13  C   UNL     1      32.444 -11.468 -21.713  0.00  0.00    +0.050 C 
ATOM     14  C   UNL     1      32.157 -10.401 -22.564  0.00  0.00    +0.023 C 
ATOM     15  C   UNL     1      31.928 -11.486 -20.418  0.00  0.00    +0.015 C 
ATOM     16  C   UNL     1      31.354  -9.350 -22.119  0.00  0.00    +0.044 C 
ATOM     17  C   UNL     1      31.125 -10.436 -19.973  0.00  0.00    +0.002 C 
ATOM     18  C   UNL     1      30.838  -9.368 -20.824  0.00  0.00    +0.008 C 
BRANCH  16  19
ATOM     19  C   UNL     1      31.060  -8.257 -22.991  0.00  0.00    -0.051 C 
ATOM     20  C   UNL     1      30.812  -7.338 -23.723  0.00  0.00    -0.009 C 
ENDBRANCH  16  19
ENDBRANCH   1  13
BRANCH   7  21
ATOM     21  O   UNL     1      35.030 -18.563 -23.281  0.00  0.00    -0.472 OA
ATOM     22  C   UNL     1      34.256 -19.498 -24.030  0.00  0.00    +0.252 C 
ENDBRANCH   7  21
BRANCH   4  23
ATOM     23  O   UNL     1      35.173 -17.071 -20.936  0.00  0.00    -0.473 OA
BRANCH  23  24
ATOM     24  C   UNL     1      36.156 -18.086 -21.092  0.00  0.00    +0.206 C 
BRANCH  24  25
ATOM     25  C   UNL     1      35.996 -19.131 -19.995  0.00  0.00    +0.047 C 
BRANCH  25  26
ATOM     26  C   UNL     1      35.031 -20.240 -20.409  0.00  0.00    +0.004 C 
BRANCH  26  27
ATOM     27  C   UNL     1      33.583 -19.747 -20.399  0.00  0.00    +0.001 C 
BRANCH  27  28
ATOM     28  C   UNL     1      32.678 -20.697 -19.614  0.00  0.00    +0.010 C 
BRANCH  28  29
ATOM     29  C   UNL     1      33.437 -21.943 -19.165  0.00  0.00    +0.087 C 
BRANCH  29  32
ATOM     30  O   UNL     1      33.796 -22.839 -16.968  0.00  0.00    -0.273 OA
ATOM     31  N   UNL     1      31.656 -22.196 -17.567  0.00  0.00    -0.197 N 
ATOM     32  C   UNL     1      33.001 -22.371 -17.780  0.00  0.00    +0.244 C 
ATOM     33  H   UNL     1      31.064 -21.815 -18.255  0.00  0.00    +0.182 HD
BRANCH  31  34
ATOM     34  O   UNL     1      31.178 -22.593 -16.311  0.00  0.00    -0.295 OA
ATOM     35  H   UNL     1      31.175 -21.831 -15.711  0.00  0.00    +0.241 HD
ENDBRANCH  31  34
ENDBRANCH  29  32
ENDBRANCH  28  29
ENDBRANCH  27  28
ENDBRANCH  26  27
ENDBRANCH  25  26
ENDBRANCH  24  25
ENDBRANCH  23  24
ENDBRANCH   4  23
TORSDOF 12
ENDMDL
MODEL 2
REMARK VINA RESULT:     -11.6      1.780      2.040
REMARK  Name = 24756910
REMARK  12 active torsions:
REMARK  status: ('A' for Active; 'I' for Inactive)
REMARK    1  A    between atoms: N_1  and  C_13
REMARK    2  A    between atoms: C_4  and  O_23
REMARK    3  A    between atoms: C_7  and  O_21
REMARK    4  A    between atoms: C_16  and  C_19
REMARK    5  A    between atoms: O_23  and  C_24
REMARK    6  A    between atoms: C_24  and  C_25
REMARK    7  A    between atoms: C_25  and  C_26
REMARK    8  A    between atoms: C_26  and  C_27
REMARK    9  A    between atoms: C_27  and  C_28
REMARK   10  A    between atoms: C_28  and  C_29
REMARK   11  A    between atoms: C_29  and  C_32
REMARK   12  A    between atoms: N_31  and  O_34
REMARK                            x       y       z     vdW  Elec       q    Type
REMARK                         _______ _______ _______ _____ _____    ______ ____
ROOT
ATOM      1  N   UNL     1      33.211 -12.526 -22.167  0.00  0.00    -0.298 N 
ATOM      2  N   UNL     1      33.110 -14.759 -25.650  0.00  0.00    -0.248 NA
ATOM      3  N   UNL     1      32.728 -12.697 -24.463  0.00  0.00    -0.230 NA
ATOM      4  C   UNL     1      34.507 -16.565 -22.162  0.00  0.00    +0.169 C 
ATOM      5  C   UNL     1      33.616 -14.627 -23.310  0.00  0.00    +0.048 C 
ATOM      6  C   UNL     1      34.088 -15.239 -22.136  0.00  0.00    +0.044 C 
ATOM      7  C   UNL     1      34.456 -17.278 -23.356  0.00  0.00    +0.156 C 
ATOM      8  C   UNL     1      33.560 -15.335 -24.521  0.00  0.00    +0.066 C 
ATOM      9  C   UNL     1      33.985 -16.661 -24.520  0.00  0.00    +0.112 C 
ATOM     10  C   UNL     1      33.183 -13.304 -23.351  0.00  0.00    +0.131 C 
ATOM     11  C   UNL     1      32.718 -13.472 -25.560  0.00  0.00    +0.252 C 
ATOM     12  H   UNL     1      33.926 -12.782 -21.540  0.00  0.00    +0.154 HD
ENDROOT
BRANCH   1  13
ATOM     13  C   UNL     1      32.417 -11.460 -21.715  0.00  0.00    +0.050 C 
ATOM     14  C   UNL     1      32.141 -10.388 -22.563  0.00  0.00    +0.023 C 
ATOM     15  C   UNL     1      31.906 -11.474 -20.418  0.00  0.00    +0.015 C 
ATOM     16  C   UNL     1      31.352  -9.328 -22.114  0.00  0.00    +0.044 C 
ATOM     17  C   UNL     1      31.118 -10.415 -19.968  0.00  0.00    +0.002 C 
ATOM     18  C   UNL     1      30.840  -9.342 -20.816  0.00  0.00    +0.008 C 
BRANCH  16  19
ATOM     19  C   UNL     1      31.068  -8.230 -22.983  0.00  0.00    -0.051 C 
ATOM     20  C   UNL     1      30.829  -7.308 -23.714  0.00  0.00    -0.009 C 
ENDBRANCH  16  19
ENDBRANCH   1  13
BRANCH   7  21
ATOM     21  O   UNL     1      34.862 -18.577 -23.406  0.00  0.00    -0.472 OA
ATOM     22  C   UNL     1      34.118 -19.457 -24.246  0.00  0.00    +0.252 C 
ENDBRANCH   7  21
BRANCH   4  23
ATOM     23  O   UNL     1      34.968 -17.156 -21.014  0.00  0.00    -0.473 OA
BRANCH  23  24
ATOM     24  C   UNL     1      36.093 -18.014 -21.142  0.00  0.00    +0.206 C 
BRANCH  24  25
ATOM     25  C   UNL     1      35.861 -19.292 -20.348  0.00  0.00    +0.047 C 
BRANCH  25  26
ATOM     26  C   UNL     1      34.397 -19.726 -20.393  0.00  0.00    +0.004 C 
BRANCH  26  27
ATOM     27  C   UNL     1      34.148 -20.934 -19.489  0.00  0.00    +0.001 C 
BRANCH  27  28
ATOM     28  C   UNL     1      35.445 -21.422 -18.842  0.00  0.00    +0.010 C 
BRANCH  28  29
ATOM     29  C   UNL     1      35.274 -21.624 -17.339  0.00  0.00    +0.087 C 
BRANCH  29  32
ATOM     30  O   UNL     1      37.266 -20.535 -16.563  0.00  0.00    -0.273 OA
ATOM     31  N   UNL     1      36.990 -22.789 -16.120  0.00  0.00    -0.197 N 
ATOM     32  C   UNL     1      36.611 -21.573 -16.632  0.00  0.00    +0.244 C 
ATOM     33  H   UNL     1      36.424 -23.590 -16.205  0.00  0.00    +0.182 HD
BRANCH  31  34
ATOM     34  O   UNL     1      38.231 -22.821 -15.471  0.00  0.00    -0.295 OA
ATOM     35  H   UNL     1      38.106 -22.638 -14.526  0.00  0.00    +0.241 HD
ENDBRANCH  31  34
ENDBRANCH  29  32
ENDBRANCH  28  29
ENDBRANCH  27  28
ENDBRANCH  26  27
ENDBRANCH  25  26
ENDBRANCH  24  25
ENDBRANCH  23  24
ENDBRANCH   4  23
TORSDOF 12
ENDMDL
MODEL 3
REMARK VINA RESULT:     -11.4      4.321     12.381
REMARK  Name = 24756910
REMARK  12 active torsions:
REMARK  status: ('A' for Active; 'I' for Inactive)
REMARK    1  A    between atoms: N_1  and  C_13
REMARK    2  A    between atoms: C_4  and  O_23
REMARK    3  A    between atoms: C_7  and  O_21
REMARK    4  A    between atoms: C_16  and  C_19
REMARK    5  A    between atoms: O_23  and  C_24
REMARK    6  A    between atoms: C_24  and  C_25
REMARK    7  A    between atoms: C_25  and  C_26
REMARK    8  A    between atoms: C_26  and  C_27
REMARK    9  A    between atoms: C_27  and  C_28
REMARK   10  A    between atoms: C_28  and  C_29
REMARK   11  A    between atoms: C_29  and  C_32
REMARK   12  A    between atoms: N_31  and  O_34
REMARK                            x       y       z     vdW  Elec       q    Type
REMARK                         _______ _______ _______ _____ _____    ______ ____
ROOT
ATOM      1  N   UNL     1      35.563 -23.020 -14.655  0.00  0.00    -0.298 N 
ATOM      2  N   UNL     1      31.500 -22.705 -15.378  0.00  0.00    -0.248 NA
ATOM      3  N   UNL     1      33.342 -23.163 -13.893  0.00  0.00    -0.230 NA
ATOM      4  C   UNL     1      34.148 -21.931 -18.503  0.00  0.00    +0.169 C 
ATOM      5  C   UNL     1      33.749 -22.548 -16.195  0.00  0.00    +0.048 C 
ATOM      6  C   UNL     1      34.639 -22.286 -17.251  0.00  0.00    +0.044 C 
ATOM      7  C   UNL     1      32.775 -21.837 -18.700  0.00  0.00    +0.156 C 
ATOM      8  C   UNL     1      32.360 -22.456 -16.381  0.00  0.00    +0.066 C 
ATOM      9  C   UNL     1      31.896 -22.099 -17.644  0.00  0.00    +0.112 C 
ATOM     10  C   UNL     1      34.175 -22.908 -14.919  0.00  0.00    +0.131 C 
ATOM     11  C   UNL     1      32.037 -23.045 -14.189  0.00  0.00    +0.252 C 
ATOM     12  H   UNL     1      36.121 -22.420 -15.201  0.00  0.00    +0.154 HD
ENDROOT
BRANCH   1  13
ATOM     13  C   UNL     1      36.296 -23.822 -13.766  0.00  0.00    +0.050 C 
ATOM     14  C   UNL     1      37.532 -24.341 -14.152  0.00  0.00    +0.023 C 
ATOM     15  C   UNL     1      35.789 -24.097 -12.496  0.00  0.00    +0.015 C 
ATOM     16  C   UNL     1      38.261 -25.137 -13.268  0.00  0.00    +0.044 C 
ATOM     17  C   UNL     1      36.518 -24.894 -11.613  0.00  0.00    +0.002 C 
ATOM     18  C   UNL     1      37.754 -25.413 -11.999  0.00  0.00    +0.008 C 
BRANCH  16  19
ATOM     19  C   UNL     1      39.527 -25.669 -13.664  0.00  0.00    -0.051 C 
ATOM     20  C   UNL     1      40.590 -26.117 -13.997  0.00  0.00    -0.009 C 
ENDBRANCH  16  19
ENDBRANCH   1  13
BRANCH   7  21
ATOM     21  O   UNL     1      32.272 -21.489 -19.918  0.00  0.00    -0.472 OA
ATOM     22  C   UNL     1      31.968 -20.111 -20.124  0.00  0.00    +0.252 C 
ENDBRANCH   7  21
BRANCH   4  23
ATOM     23  O   UNL     1      35.022 -21.675 -19.529  0.00  0.00    -0.473 OA
BRANCH  23  24
ATOM     24  C   UNL     1      35.614 -20.384 -19.558  0.00  0.00    +0.206 C 
BRANCH  24  25
ATOM     25  C   UNL     1      35.117 -19.616 -20.776  0.00  0.00    +0.047 C 
BRANCH  25  26
ATOM     26  C   UNL     1      35.893 -18.316 -20.978  0.00  0.00    +0.004 C 
BRANCH  26  27
ATOM     27  C   UNL     1      34.948 -17.123 -21.132  0.00  0.00    +0.001 C 
BRANCH  27  28
ATOM     28  C   UNL     1      34.578 -16.892 -22.597  0.00  0.00    +0.010 C 
BRANCH  28  29
ATOM     29  C   UNL     1      34.428 -15.404 -22.904  0.00  0.00    +0.087 C 
BRANCH  29  32
ATOM     30  O   UNL     1      34.176 -15.847 -25.249  0.00  0.00    -0.273 OA
ATOM     31  N   UNL     1      32.861 -14.207 -24.283  0.00  0.00    -0.197 N 
ATOM     32  C   UNL     1      33.815 -15.194 -24.272  0.00  0.00    +0.244 C 
ATOM     33  H   UNL     1      32.611 -13.715 -23.468  0.00  0.00    +0.182 HD
BRANCH  31  34
ATOM     34  O   UNL     1      32.267 -13.943 -25.524  0.00  0.00    -0.295 OA
ATOM     35  H   UNL     1      31.850 -14.751 -25.861  0.00  0.00    +0.241 HD
ENDBRANCH  31  34
ENDBRANCH  29  32
ENDBRANCH  28  29
ENDBRANCH  27  28
ENDBRANCH  26  27
ENDBRANCH  25  26
ENDBRANCH  24  25
ENDBRANCH  23  24
ENDBRANCH   4  23
TORSDOF 12
ENDMDL
MODEL 4
REMARK VINA RESULT:     -11.1      3.488      6.706
REMARK  Name = 24756910
REMARK  12 active torsions:
REMARK  status: ('A' for Active; 'I' for Inactive)
REMARK    1  A    between atoms: N_1  and  C_13
REMARK    2  A    between atoms: C_4  and  O_23
REMARK    3  A    between atoms: C_7  and  O_21
REMARK    4  A    between atoms: C_16  and  C_19
REMARK    5  A    between atoms: O_23  and  C_24
REMARK    6  A    between atoms: C_24  and  C_25
REMARK    7  A    between atoms: C_25  and  C_26
REMARK    8  A    between atoms: C_26  and  C_27
REMARK    9  A    between atoms: C_27  and  C_28
REMARK   10  A    between atoms: C_28  and  C_29
REMARK   11  A    between atoms: C_29  and  C_32
REMARK   12  A    between atoms: N_31  and  O_34
REMARK                            x       y       z     vdW  Elec       q    Type
REMARK                         _______ _______ _______ _____ _____    ______ ____
ROOT
ATOM      1  N   UNL     1      31.563  -7.326 -23.048  0.00  0.00    -0.298 N 
ATOM      2  N   UNL     1      31.451  -8.688 -19.141  0.00  0.00    -0.248 NA
ATOM      3  N   UNL     1      31.461  -6.884 -20.740  0.00  0.00    -0.230 NA
ATOM      4  C   UNL     1      31.651 -11.487 -22.224  0.00  0.00    +0.169 C 
ATOM      5  C   UNL     1      31.557  -9.182 -21.485  0.00  0.00    +0.048 C 
ATOM      6  C   UNL     1      31.623 -10.128 -22.522  0.00  0.00    +0.044 C 
ATOM      7  C   UNL     1      31.611 -11.899 -20.896  0.00  0.00    +0.156 C 
ATOM      8  C   UNL     1      31.515  -9.585 -20.141  0.00  0.00    +0.066 C 
ATOM      9  C   UNL     1      31.544 -10.950 -19.870  0.00  0.00    +0.112 C 
ATOM     10  C   UNL     1      31.525  -7.809 -21.716  0.00  0.00    +0.131 C 
ATOM     11  C   UNL     1      31.428  -7.387 -19.495  0.00  0.00    +0.252 C 
ATOM     12  H   UNL     1      31.154  -7.937 -23.704  0.00  0.00    +0.154 HD
ENDROOT
BRANCH   1  13
ATOM     13  C   UNL     1      32.070  -6.146 -23.614  0.00  0.00    +0.050 C 
ATOM     14  C   UNL     1      31.207  -5.096 -23.925  0.00  0.00    +0.023 C 
ATOM     15  C   UNL     1      33.437  -6.024 -23.864  0.00  0.00    +0.015 C 
ATOM     16  C   UNL     1      31.711  -3.922 -24.489  0.00  0.00    +0.044 C 
ATOM     17  C   UNL     1      33.941  -4.852 -24.427  0.00  0.00    +0.002 C 
ATOM     18  C   UNL     1      33.078  -3.801 -24.739  0.00  0.00    +0.008 C 
BRANCH  16  19
ATOM     19  C   UNL     1      30.827  -2.846 -24.808  0.00  0.00    -0.051 C 
ATOM     20  C   UNL     1      30.085  -1.941 -25.076  0.00  0.00    -0.009 C 
ENDBRANCH  16  19
ENDBRANCH   1  13
BRANCH   7  21
ATOM     21  O   UNL     1      31.636 -13.224 -20.580  0.00  0.00    -0.472 OA
ATOM     22  C   UNL     1      32.903 -13.787 -20.247  0.00  0.00    +0.252 C 
ENDBRANCH   7  21
BRANCH   4  23
ATOM     23  O   UNL     1      31.715 -12.405 -23.240  0.00  0.00    -0.473 OA
BRANCH  23  24
ATOM     24  C   UNL     1      32.936 -12.474 -23.965  0.00  0.00    +0.206 C 
BRANCH  24  25
ATOM     25  C   UNL     1      33.594 -13.829 -23.739  0.00  0.00    +0.047 C 
BRANCH  25  26
ATOM     26  C   UNL     1      33.181 -14.841 -24.805  0.00  0.00    +0.004 C 
BRANCH  26  27
ATOM     27  C   UNL     1      33.824 -16.206 -24.554  0.00  0.00    +0.001 C 
BRANCH  27  28
ATOM     28  C   UNL     1      34.628 -16.211 -23.254  0.00  0.00    +0.010 C 
BRANCH  28  29
ATOM     29  C   UNL     1      34.814 -17.630 -22.721  0.00  0.00    +0.087 C 
BRANCH  29  32
ATOM     30  O   UNL     1      34.949 -16.781 -20.481  0.00  0.00    -0.273 OA
ATOM     31  N   UNL     1      36.282 -18.579 -21.068  0.00  0.00    -0.197 N 
ATOM     32  C   UNL     1      35.339 -17.609 -21.302  0.00  0.00    +0.244 C 
ATOM     33  H   UNL     1      36.557 -19.217 -21.764  0.00  0.00    +0.182 HD
BRANCH  31  34
ATOM     34  O   UNL     1      36.828 -18.604 -19.778  0.00  0.00    -0.295 OA
ATOM     35  H   UNL     1      37.596 -18.013 -19.741  0.00  0.00    +0.241 HD
ENDBRANCH  31  34
ENDBRANCH  29  32
ENDBRANCH  28  29
ENDBRANCH  27  28
ENDBRANCH  26  27
ENDBRANCH  25  26
ENDBRANCH  24  25
ENDBRANCH  23  24
ENDBRANCH   4  23
TORSDOF 12
ENDMDL
MODEL 5
REMARK VINA RESULT:     -10.9      6.130      9.354
REMARK  Name = 24756910
REMARK  12 active torsions:
REMARK  status: ('A' for Active; 'I' for Inactive)
REMARK    1  A    between atoms: N_1  and  C_13
REMARK    2  A    between atoms: C_4  and  O_23
REMARK    3  A    between atoms: C_7  and  O_21
REMARK    4  A    between atoms: C_16  and  C_19
REMARK    5  A    between atoms: O_23  and  C_24
REMARK    6  A    between atoms: C_24  and  C_25
REMARK    7  A    between atoms: C_25  and  C_26
REMARK    8  A    between atoms: C_26  and  C_27
REMARK    9  A    between atoms: C_27  and  C_28
REMARK   10  A    between atoms: C_28  and  C_29
REMARK   11  A    between atoms: C_29  and  C_32
REMARK   12  A    between atoms: N_31  and  O_34
REMARK                            x       y       z     vdW  Elec       q    Type
REMARK                         _______ _______ _______ _____ _____    ______ ____
ROOT
ATOM      1  N   UNL     1      34.784 -21.082 -19.549  0.00  0.00    -0.298 N 
ATOM      2  N   UNL     1      31.257 -21.913 -17.549  0.00  0.00    -0.248 NA
ATOM      3  N   UNL     1      32.437 -20.976 -19.430  0.00  0.00    -0.230 NA
ATOM      4  C   UNL     1      34.859 -23.112 -15.825  0.00  0.00    +0.169 C 
ATOM      5  C   UNL     1      33.650 -22.041 -17.631  0.00  0.00    +0.048 C 
ATOM      6  C   UNL     1      34.863 -22.448 -17.048  0.00  0.00    +0.044 C 
ATOM      7  C   UNL     1      33.649 -23.370 -15.188  0.00  0.00    +0.156 C 
ATOM      8  C   UNL     1      32.423 -22.297 -16.999  0.00  0.00    +0.066 C 
ATOM      9  C   UNL     1      32.447 -22.963 -15.777  0.00  0.00    +0.112 C 
ATOM     10  C   UNL     1      33.586 -21.374 -18.852  0.00  0.00    +0.131 C 
ATOM     11  C   UNL     1      31.328 -21.273 -18.734  0.00  0.00    +0.252 C 
ATOM     12  H   UNL     1      35.505 -21.735 -19.392  0.00  0.00    +0.154 HD
ENDROOT
BRANCH   1  13
ATOM     13  C   UNL     1      35.144 -20.043 -20.422  0.00  0.00    +0.050 C 
ATOM     14  C   UNL     1      34.343 -19.751 -21.526  0.00  0.00    +0.023 C 
ATOM     15  C   UNL     1      36.301 -19.302 -20.184  0.00  0.00    +0.015 C 
ATOM     16  C   UNL     1      34.700 -18.718 -22.393  0.00  0.00    +0.044 C 
ATOM     17  C   UNL     1      36.658 -18.270 -21.050  0.00  0.00    +0.002 C 
ATOM     18  C   UNL     1      35.857 -17.977 -22.155  0.00  0.00    +0.008 C 
BRANCH  16  19
ATOM     19  C   UNL     1      33.880 -18.419 -23.524  0.00  0.00    -0.051 C 
ATOM     20  C   UNL     1      33.190 -18.169 -24.474  0.00  0.00    -0.009 C 
ENDBRANCH  16  19
ENDBRANCH   1  13
BRANCH   7  21
ATOM     21  O   UNL     1      33.621 -24.020 -13.991  0.00  0.00    -0.472 OA
ATOM     22  C   UNL     1      32.338 -24.287 -13.429  0.00  0.00    +0.252 C 
ENDBRANCH   7  21
BRANCH   4  23
ATOM     23  O   UNL     1      36.044 -23.507 -15.261  0.00  0.00    -0.473 OA
BRANCH  23  24
ATOM     24  C   UNL     1      37.139 -22.608 -15.377  0.00  0.00    +0.206 C 
BRANCH  24  25
ATOM     25  C   UNL     1      38.450 -23.377 -15.284  0.00  0.00    +0.047 C 
BRANCH  25  26
ATOM     26  C   UNL     1      38.222 -24.835 -14.890  0.00  0.00    +0.004 C 
BRANCH  26  27
ATOM     27  C   UNL     1      39.154 -25.255 -13.753  0.00  0.00    +0.001 C 
BRANCH  27  28
ATOM     28  C   UNL     1      38.455 -25.157 -12.396  0.00  0.00    +0.010 C 
BRANCH  28  29
ATOM     29  C   UNL     1      37.021 -25.674 -12.472  0.00  0.00    +0.087 C 
BRANCH  29  32
ATOM     30  O   UNL     1      35.611 -25.144 -10.605  0.00  0.00    -0.273 OA
ATOM     31  N   UNL     1      35.828 -23.591 -12.306  0.00  0.00    -0.197 N 
ATOM     32  C   UNL     1      36.085 -24.786 -11.681  0.00  0.00    +0.244 C 
ATOM     33  H   UNL     1      36.236 -23.356 -13.170  0.00  0.00    +0.182 HD
BRANCH  31  34
ATOM     34  O   UNL     1      34.950 -22.727 -11.639  0.00  0.00    -0.295 OA
ATOM     35  H   UNL     1      35.228 -21.809 -11.782  0.00  0.00    +0.241 HD
ENDBRANCH  31  34
ENDBRANCH  29  32
ENDBRANCH  28  29
ENDBRANCH  27  28
ENDBRANCH  26  27
ENDBRANCH  25  26
ENDBRANCH  24  25
ENDBRANCH  23  24
ENDBRANCH   4  23
TORSDOF 12
ENDMDL
MODEL 6
REMARK VINA RESULT:     -10.7      3.534      6.867
REMARK  Name = 24756910
REMARK  12 active torsions:
REMARK  status: ('A' for Active; 'I' for Inactive)
REMARK    1  A    between atoms: N_1  and  C_13
REMARK    2  A    between atoms: C_4  and  O_23
REMARK    3  A    between atoms: C_7  and  O_21
REMARK    4  A    between atoms: C_16  and  C_19
REMARK    5  A    between atoms: O_23  and  C_24
REMARK    6  A    between atoms: C_24  and  C_25
REMARK    7  A    between atoms: C_25  and  C_26
REMARK    8  A    between atoms: C_26  and  C_27
REMARK    9  A    between atoms: C_27  and  C_28
REMARK   10  A    between atoms: C_28  and  C_29
REMARK   11  A    between atoms: C_29  and  C_32
REMARK   12  A    between atoms: N_31  and  O_34
REMARK                            x       y       z     vdW  Elec       q    Type
REMARK                         _______ _______ _______ _____ _____    ______ ____
ROOT
ATOM      1  N   UNL     1      31.220  -7.291 -23.290  0.00  0.00    -0.298 N 
ATOM      2  N   UNL     1      31.481  -8.251 -19.272  0.00  0.00    -0.248 NA
ATOM      3  N   UNL     1      31.283  -6.620 -21.036  0.00  0.00    -0.230 NA
ATOM      4  C   UNL     1      31.558 -11.340 -22.071  0.00  0.00    +0.169 C 
ATOM      5  C   UNL     1      31.421  -8.977 -21.557  0.00  0.00    +0.048 C 
ATOM      6  C   UNL     1      31.446 -10.020 -22.498  0.00  0.00    +0.044 C 
ATOM      7  C   UNL     1      31.643 -11.616 -20.711  0.00  0.00    +0.156 C 
ATOM      8  C   UNL     1      31.505  -9.242 -20.181  0.00  0.00    +0.066 C 
ATOM      9  C   UNL     1      31.616 -10.571 -19.781  0.00  0.00    +0.112 C 
ATOM     10  C   UNL     1      31.310  -7.637 -21.918  0.00  0.00    +0.131 C 
ATOM     11  C   UNL     1      31.372  -6.995 -19.749  0.00  0.00    +0.252 C 
ATOM     12  H   UNL     1      30.787  -7.979 -23.845  0.00  0.00    +0.154 HD
ENDROOT
BRANCH   1  13
ATOM     13  C   UNL     1      31.627  -6.156 -24.010  0.00  0.00    +0.050 C 
ATOM     14  C   UNL     1      32.820  -6.181 -24.733  0.00  0.00    +0.023 C 
ATOM     15  C   UNL     1      30.838  -5.007 -24.003  0.00  0.00    +0.015 C 
ATOM     16  C   UNL     1      33.224  -5.053 -25.448  0.00  0.00    +0.044 C 
ATOM     17  C   UNL     1      31.242  -3.880 -24.718  0.00  0.00    +0.002 C 
ATOM     18  C   UNL     1      32.435  -3.903 -25.441  0.00  0.00    +0.008 C 
BRANCH  16  19
ATOM     19  C   UNL     1      34.446  -5.077 -26.189  0.00  0.00    -0.051 C 
ATOM     20  C   UNL     1      35.473  -5.099 -26.811  0.00  0.00    -0.009 C 
ENDBRANCH  16  19
ENDBRANCH   1  13
BRANCH   7  21
ATOM     21  O   UNL     1      31.752 -12.900 -20.270  0.00  0.00    -0.472 OA
ATOM     22  C   UNL     1      33.023 -13.530 -20.415  0.00  0.00    +0.252 C 
ENDBRANCH   7  21
BRANCH   4  23
ATOM     23  O   UNL     1      31.581 -12.354 -22.994  0.00  0.00    -0.473 OA
BRANCH  23  24
ATOM     24  C   UNL     1      32.686 -12.381 -23.888  0.00  0.00    +0.206 C 
BRANCH  24  25
ATOM     25  C   UNL     1      33.479 -13.666 -23.690  0.00  0.00    +0.047 C 
BRANCH  25  26
ATOM     26  C   UNL     1      33.357 -14.595 -24.896  0.00  0.00    +0.004 C 
BRANCH  26  27
ATOM     27  C   UNL     1      33.883 -15.995 -24.574  0.00  0.00    +0.001 C 
BRANCH  27  28
ATOM     28  C   UNL     1      34.270 -16.118 -23.100  0.00  0.00    +0.010 C 
BRANCH  28  29
ATOM     29  C   UNL     1      34.959 -17.450 -22.817  0.00  0.00    +0.087 C 
BRANCH  29  32
ATOM     30  O   UNL     1      34.927 -16.801 -20.507  0.00  0.00    -0.273 OA
ATOM     31  N   UNL     1      36.392 -18.464 -21.171  0.00  0.00    -0.197 N 
ATOM     32  C   UNL     1      35.407 -17.529 -21.373  0.00  0.00    +0.244 C 
ATOM     33  H   UNL     1      36.739 -19.022 -21.904  0.00  0.00    +0.182 HD
BRANCH  31  34
ATOM     34  O   UNL     1      36.870 -18.576 -19.859  0.00  0.00    -0.295 OA
ATOM     35  H   UNL     1      37.496 -17.857 -19.681  0.00  0.00    +0.241 HD
ENDBRANCH  31  34
ENDBRANCH  29  32
ENDBRANCH  28  29
ENDBRANCH  27  28
ENDBRANCH  26  27
ENDBRANCH  25  26
ENDBRANCH  24  25
ENDBRANCH  23  24
ENDBRANCH   4  23
TORSDOF 12
ENDMDL
MODEL 7
REMARK VINA RESULT:     -10.7      4.631     12.792
REMARK  Name = 24756910
REMARK  12 active torsions:
REMARK  status: ('A' for Active; 'I' for Inactive)
REMARK    1  A    between atoms: N_1  and  C_13
REMARK    2  A    between atoms: C_4  and  O_23
REMARK    3  A    between atoms: C_7  and  O_21
REMARK    4  A    between atoms: C_16  and  C_19
REMARK    5  A    between atoms: O_23  and  C_24
REMARK    6  A    between atoms: C_24  and  C_25
REMARK    7  A    between atoms: C_25  and  C_26
REMARK    8  A    between atoms: C_26  and  C_27
REMARK    9  A    between atoms: C_27  and  C_28
REMARK   10  A    between atoms: C_28  and  C_29
REMARK   11  A    between atoms: C_29  and  C_32
REMARK   12  A    between atoms: N_31  and  O_34
REMARK                            x       y       z     vdW  Elec       q    Type
REMARK                         _______ _______ _______ _____ _____    ______ ____
ROOT
ATOM      1  N   UNL     1      34.795 -23.812 -14.761  0.00  0.00    -0.298 N 
ATOM      2  N   UNL     1      31.033 -23.803 -13.035  0.00  0.00    -0.248 NA
ATOM      3  N   UNL     1      33.391 -24.292 -12.935  0.00  0.00    -0.230 NA
ATOM      4  C   UNL     1      31.458 -22.300 -16.900  0.00  0.00    +0.169 C 
ATOM      5  C   UNL     1      32.429 -23.298 -14.918  0.00  0.00    +0.048 C 
ATOM      6  C   UNL     1      32.569 -22.790 -16.221  0.00  0.00    +0.044 C 
ATOM      7  C   UNL     1      30.213 -22.317 -16.281  0.00  0.00    +0.156 C 
ATOM      8  C   UNL     1      31.178 -23.320 -14.281  0.00  0.00    +0.066 C 
ATOM      9  C   UNL     1      30.082 -22.824 -14.984  0.00  0.00    +0.112 C 
ATOM     10  C   UNL     1      33.500 -23.801 -14.184  0.00  0.00    +0.131 C 
ATOM     11  C   UNL     1      32.147 -24.264 -12.430  0.00  0.00    +0.252 C 
ATOM     12  H   UNL     1      34.949 -23.082 -15.404  0.00  0.00    +0.154 HD
ENDROOT
BRANCH   1  13
ATOM     13  C   UNL     1      35.900 -24.660 -14.592  0.00  0.00    +0.050 C 
ATOM     14  C   UNL     1      37.183 -24.122 -14.492  0.00  0.00    +0.023 C 
ATOM     15  C   UNL     1      35.716 -26.041 -14.524  0.00  0.00    +0.015 C 
ATOM     16  C   UNL     1      38.282 -24.965 -14.324  0.00  0.00    +0.044 C 
ATOM     17  C   UNL     1      36.814 -26.884 -14.357  0.00  0.00    +0.002 C 
ATOM     18  C   UNL     1      38.098 -26.346 -14.256  0.00  0.00    +0.008 C 
BRANCH  16  19
ATOM     19  C   UNL     1      39.597 -24.414 -14.221  0.00  0.00    -0.051 C 
ATOM     20  C   UNL     1      40.701 -23.951 -14.136  0.00  0.00    -0.009 C 
ENDBRANCH  16  19
ENDBRANCH   1  13
BRANCH   7  21
ATOM     21  O   UNL     1      29.111 -21.842 -16.926  0.00  0.00    -0.472 OA
ATOM     22  C   UNL     1      27.854 -22.013 -16.274  0.00  0.00    +0.252 C 
ENDBRANCH   7  21
BRANCH   4  23
ATOM     23  O   UNL     1      31.601 -21.805 -18.171  0.00  0.00    -0.473 OA
BRANCH  23  24
ATOM     24  C   UNL     1      32.800 -22.139 -18.857  0.00  0.00    +0.206 C 
BRANCH  24  25
ATOM     25  C   UNL     1      33.447 -20.876 -19.409  0.00  0.00    +0.047 C 
BRANCH  25  26
ATOM     26  C   UNL     1      34.956 -21.043 -19.578  0.00  0.00    +0.004 C 
BRANCH  26  27
ATOM     27  C   UNL     1      35.584 -19.804 -20.217  0.00  0.00    +0.001 C 
BRANCH  27  28
ATOM     28  C   UNL     1      34.587 -19.079 -21.121  0.00  0.00    +0.010 C 
BRANCH  28  29
ATOM     29  C   UNL     1      35.298 -18.130 -22.082  0.00  0.00    +0.087 C 
BRANCH  29  32
ATOM     30  O   UNL     1      34.631 -16.299 -20.682  0.00  0.00    -0.273 OA
ATOM     31  N   UNL     1      34.867 -15.929 -22.953  0.00  0.00    -0.197 N 
ATOM     32  C   UNL     1      34.903 -16.694 -21.814  0.00  0.00    +0.244 C 
ATOM     33  H   UNL     1      35.095 -16.298 -23.837  0.00  0.00    +0.182 HD
BRANCH  31  34
ATOM     34  O   UNL     1      34.486 -14.591 -22.781  0.00  0.00    -0.295 OA
ATOM     35  H   UNL     1      33.631 -14.440 -23.213  0.00  0.00    +0.241 HD
ENDBRANCH  31  34
ENDBRANCH  29  32
ENDBRANCH  28  29
ENDBRANCH  27  28
ENDBRANCH  26  27
ENDBRANCH  25  26
ENDBRANCH  24  25
ENDBRANCH  23  24
ENDBRANCH   4  23
TORSDOF 12
ENDMDL
MODEL 8
REMARK VINA RESULT:     -10.5      3.854      7.464
REMARK  Name = 24756910
REMARK  12 active torsions:
REMARK  status: ('A' for Active; 'I' for Inactive)
REMARK    1  A    between atoms: N_1  and  C_13
REMARK    2  A    between atoms: C_4  and  O_23
REMARK    3  A    between atoms: C_7  and  O_21
REMARK    4  A    between atoms: C_16  and  C_19
REMARK    5  A    between atoms: O_23  and  C_24
REMARK    6  A    between atoms: C_24  and  C_25
REMARK    7  A    between atoms: C_25  and  C_26
REMARK    8  A    between atoms: C_26  and  C_27
REMARK    9  A    between atoms: C_27  and  C_28
REMARK   10  A    between atoms: C_28  and  C_29
REMARK   11  A    between atoms: C_29  and  C_32
REMARK   12  A    between atoms: N_31  and  O_34
REMARK                            x       y       z     vdW  Elec       q    Type
REMARK                         _______ _______ _______ _____ _____    ______ ____
ROOT
ATOM      1  N   UNL     1      34.690 -19.046 -21.069  0.00  0.00    -0.298 N 
ATOM      2  N   UNL     1      31.768 -21.452 -19.395  0.00  0.00    -0.248 NA
ATOM      3  N   UNL     1      32.465 -19.810 -21.015  0.00  0.00    -0.230 NA
ATOM      4  C   UNL     1      35.623 -21.600 -17.813  0.00  0.00    +0.169 C 
ATOM      5  C   UNL     1      34.045 -20.700 -19.417  0.00  0.00    +0.048 C 
ATOM      6  C   UNL     1      35.344 -20.753 -18.882  0.00  0.00    +0.044 C 
ATOM      7  C   UNL     1      34.609 -22.391 -17.282  0.00  0.00    +0.156 C 
ATOM      8  C   UNL     1      33.014 -21.495 -18.890  0.00  0.00    +0.066 C 
ATOM      9  C   UNL     1      33.320 -22.333 -17.821  0.00  0.00    +0.112 C 
ATOM     10  C   UNL     1      33.701 -19.876 -20.485  0.00  0.00    +0.131 C 
ATOM     11  C   UNL     1      31.562 -20.612 -20.429  0.00  0.00    +0.252 C 
ATOM     12  H   UNL     1      35.601 -19.416 -21.017  0.00  0.00    +0.154 HD
ENDROOT
BRANCH   1  13
ATOM     13  C   UNL     1      34.622 -17.798 -21.709  0.00  0.00    +0.050 C 
ATOM     14  C   UNL     1      34.339 -16.650 -20.969  0.00  0.00    +0.023 C 
ATOM     15  C   UNL     1      34.839 -17.707 -23.083  0.00  0.00    +0.015 C 
ATOM     16  C   UNL     1      34.271 -15.410 -21.605  0.00  0.00    +0.044 C 
ATOM     17  C   UNL     1      34.772 -16.468 -23.719  0.00  0.00    +0.002 C 
ATOM     18  C   UNL     1      34.488 -15.319 -22.980  0.00  0.00    +0.008 C 
BRANCH  16  19
ATOM     19  C   UNL     1      33.981 -14.233 -20.848  0.00  0.00    -0.051 C 
ATOM     20  C   UNL     1      33.735 -13.245 -20.211  0.00  0.00    -0.009 C 
ENDBRANCH  16  19
ENDBRANCH   1  13
BRANCH   7  21
ATOM     21  O   UNL     1      34.859 -23.228 -16.237  0.00  0.00    -0.472 OA
ATOM     22  C   UNL     1      33.822 -23.385 -15.270  0.00  0.00    +0.252 C 
ENDBRANCH   7  21
BRANCH   4  23
ATOM     23  O   UNL     1      36.892 -21.647 -17.296  0.00  0.00    -0.473 OA
BRANCH  23  24
ATOM     24  C   UNL     1      37.131 -20.892 -16.116  0.00  0.00    +0.206 C 
BRANCH  24  25
ATOM     25  C   UNL     1      37.100 -21.809 -14.901  0.00  0.00    +0.047 C 
BRANCH  25  26
ATOM     26  C   UNL     1      37.889 -23.094 -15.144  0.00  0.00    +0.004 C 
BRANCH  26  27
ATOM     27  C   UNL     1      38.173 -23.828 -13.832  0.00  0.00    +0.001 C 
BRANCH  27  28
ATOM     28  C   UNL     1      36.877 -24.239 -13.133  0.00  0.00    +0.010 C 
BRANCH  28  29
ATOM     29  C   UNL     1      36.833 -25.745 -12.887  0.00  0.00    +0.087 C 
BRANCH  29  32
ATOM     30  O   UNL     1      38.070 -27.122 -14.413  0.00  0.00    -0.273 OA
ATOM     31  N   UNL     1      35.955 -26.411 -15.026  0.00  0.00    -0.197 N 
ATOM     32  C   UNL     1      37.031 -26.509 -14.179  0.00  0.00    +0.244 C 
ATOM     33  H   UNL     1      35.146 -25.905 -14.785  0.00  0.00    +0.182 HD
BRANCH  31  34
ATOM     34  O   UNL     1      36.079 -27.078 -16.252  0.00  0.00    -0.295 OA
ATOM     35  H   UNL     1      35.278 -27.598 -16.419  0.00  0.00    +0.241 HD
ENDBRANCH  31  34
ENDBRANCH  29  32
ENDBRANCH  28  29
ENDBRANCH  27  28
ENDBRANCH  26  27
ENDBRANCH  25  26
ENDBRANCH  24  25
ENDBRANCH  23  24
ENDBRANCH   4  23
TORSDOF 12
ENDMDL
MODEL 9
REMARK VINA RESULT:     -10.5      4.461      8.312
REMARK  Name = 24756910
REMARK  12 active torsions:
REMARK  status: ('A' for Active; 'I' for Inactive)
REMARK    1  A    between atoms: N_1  and  C_13
REMARK    2  A    between atoms: C_4  and  O_23
REMARK    3  A    between atoms: C_7  and  O_21
REMARK    4  A    between atoms: C_16  and  C_19
REMARK    5  A    between atoms: O_23  and  C_24
REMARK    6  A    between atoms: C_24  and  C_25
REMARK    7  A    between atoms: C_25  and  C_26
REMARK    8  A    between atoms: C_26  and  C_27
REMARK    9  A    between atoms: C_27  and  C_28
REMARK   10  A    between atoms: C_28  and  C_29
REMARK   11  A    between atoms: C_29  and  C_32
REMARK   12  A    between atoms: N_31  and  O_34
REMARK                            x       y       z     vdW  Elec       q    Type
REMARK                         _______ _______ _______ _____ _____    ______ ____
ROOT
ATOM      1  N   UNL     1      32.352  -6.468 -25.307  0.00  0.00    -0.298 N 
ATOM      2  N   UNL     1      31.407  -5.384 -21.426  0.00  0.00    -0.248 NA
ATOM      3  N   UNL     1      31.933  -4.798 -23.704  0.00  0.00    -0.230 NA
ATOM      4  C   UNL     1      31.719  -9.439 -22.346  0.00  0.00    +0.169 C 
ATOM      5  C   UNL     1      31.828  -7.117 -23.030  0.00  0.00    +0.048 C 
ATOM      6  C   UNL     1      31.932  -8.485 -23.337  0.00  0.00    +0.044 C 
ATOM      7  C   UNL     1      31.403  -9.028 -21.055  0.00  0.00    +0.156 C 
ATOM      8  C   UNL     1      31.509  -6.690 -21.731  0.00  0.00    +0.066 C 
ATOM      9  C   UNL     1      31.301  -7.665 -20.759  0.00  0.00    +0.112 C 
ATOM     10  C   UNL     1      32.027  -6.114 -23.974  0.00  0.00    +0.131 C 
ATOM     11  C   UNL     1      31.625  -4.510 -22.429  0.00  0.00    +0.252 C 
ATOM     12  H   UNL     1      31.976  -7.333 -25.592  0.00  0.00    +0.154 HD
ENDROOT
BRANCH   1  13
ATOM     13  C   UNL     1      33.106  -5.825 -26.302  0.00  0.00    +0.050 C 
ATOM     14  C   UNL     1      34.320  -5.222 -25.975  0.00  0.00    +0.023 C 
ATOM     15  C   UNL     1      32.641  -5.791 -27.616  0.00  0.00    +0.015 C 
ATOM     16  C   UNL     1      35.069  -4.582 -26.964  0.00  0.00    +0.044 C 
ATOM     17  C   UNL     1      33.389  -5.152 -28.604  0.00  0.00    +0.002 C 
ATOM     18  C   UNL     1      34.604  -4.548 -28.278  0.00  0.00    +0.008 C 
BRANCH  16  19
ATOM     19  C   UNL     1      36.314  -3.964 -26.630  0.00  0.00    -0.051 C 
ATOM     20  C   UNL     1      37.360  -3.445 -26.350  0.00  0.00    -0.009 C 
ENDBRANCH  16  19
ENDBRANCH   1  13
BRANCH   7  21
ATOM     21  O   UNL     1      31.190  -9.944 -20.069  0.00  0.00    -0.472 OA
ATOM     22  C   UNL     1      31.518  -9.552 -18.738  0.00  0.00    +0.252 C 
ENDBRANCH   7  21
BRANCH   4  23
ATOM     23  O   UNL     1      31.821 -10.771 -22.652  0.00  0.00    -0.473 OA
BRANCH  23  24
ATOM     24  C   UNL     1      33.063 -11.214 -23.181  0.00  0.00    +0.206 C 
BRANCH  24  25
ATOM     25  C   UNL     1      33.220 -12.710 -22.947  0.00  0.00    +0.047 C 
BRANCH  25  26
ATOM     26  C   UNL     1      32.731 -13.523 -24.145  0.00  0.00    +0.004 C 
BRANCH  26  27
ATOM     27  C   UNL     1      33.543 -14.809 -24.311  0.00  0.00    +0.001 C 
BRANCH  27  28
ATOM     28  C   UNL     1      34.211 -15.218 -22.999  0.00  0.00    +0.010 C 
BRANCH  28  29
ATOM     29  C   UNL     1      34.431 -16.728 -22.936  0.00  0.00    +0.087 C 
BRANCH  29  32
ATOM     30  O   UNL     1      34.899 -16.719 -20.582  0.00  0.00    -0.273 OA
ATOM     31  N   UNL     1      36.316 -17.887 -21.990  0.00  0.00    -0.197 N 
ATOM     32  C   UNL     1      35.223 -17.107 -21.703  0.00  0.00    +0.244 C 
ATOM     33  H   UNL     1      36.528 -18.168 -22.909  0.00  0.00    +0.182 HD
BRANCH  31  34
ATOM     34  O   UNL     1      37.108 -18.257 -20.896  0.00  0.00    -0.295 OA
ATOM     35  H   UNL     1      37.815 -18.850 -21.194  0.00  0.00    +0.241 HD
ENDBRANCH  31  34
ENDBRANCH  29  32
ENDBRANCH  28  29
ENDBRANCH  27  28
ENDBRANCH  26  27
ENDBRANCH  25  26
ENDBRANCH  24  25
ENDBRANCH  23  24
ENDBRANCH   4  23
TORSDOF 12
ENDMDL
