MODEL 1
REMARK VINA RESULT:     -11.2      0.000      0.000
REMARK  Name = 15981237
REMARK  5 active torsions:
REMARK  status: ('A' for Active; 'I' for Inactive)
REMARK    1  A    between atoms: C_3  and  N_11
REMARK    2  A    between atoms: C_4  and  O_20
REMARK    3  A    between atoms: C_15  and  C_19
REMARK    4  A    between atoms: O_20  and  C_27
REMARK    5  A    between atoms: C_24  and  C_29
REMARK                            x       y       z     vdW  Elec       q    Type
REMARK                         _______ _______ _______ _____ _____    ______ ____
ROOT
ATOM      1 CL   UNL     1      33.426 -15.511 -25.504  0.00  0.00    -0.079 Cl
ATOM      2 CL   UNL     1      34.139 -12.901 -20.786  0.00  0.00    -0.079 Cl
ATOM      3  C   UNL     1      34.530 -16.727 -21.862  0.00  0.00    +0.089 C 
ATOM      4  C   UNL     1      33.824 -14.346 -23.073  0.00  0.00    +0.168 C 
ATOM      5  C   UNL     1      34.193 -16.706 -23.216  0.00  0.00    +0.034 C 
ATOM      6  C   UNL     1      34.510 -15.547 -21.120  0.00  0.00    +0.034 C 
ATOM      7  C   UNL     1      33.836 -15.504 -23.827  0.00  0.00    +0.095 C 
ATOM      8  C   UNL     1      34.154 -14.344 -21.731  0.00  0.00    +0.095 C 
ENDROOT
BRANCH   3  11
ATOM      9  O   UNL     1      37.235 -17.869 -21.482  0.00  0.00    -0.245 OA
ATOM     10  O   UNL     1      35.404 -21.449 -19.288  0.00  0.00    -0.265 OA
ATOM     11  N   UNL     1      34.898 -17.972 -21.229  0.00  0.00    -0.179 N 
ATOM     12  N   UNL     1      33.816 -18.703 -20.806  0.00  0.00    -0.146 NA
ATOM     13  N   UNL     1      36.353 -19.624 -20.369  0.00  0.00    -0.271 N 
ATOM     14  C   UNL     1      36.218 -18.424 -21.059  0.00  0.00    +0.350 A 
ATOM     15  C   UNL     1      33.996 -19.820 -20.192  0.00  0.00    +0.225 A 
ATOM     16  C   UNL     1      35.325 -20.393 -19.895  0.00  0.00    +0.290 A 
ATOM     17  H   UNL     1      37.269 -19.949 -20.207  0.00  0.00    +0.174 HD
BRANCH  15  19
ATOM     18  N   UNL     1      31.732 -20.918 -19.550  0.00  0.00    -0.189 NA
ATOM     19  C   UNL     1      32.744 -20.428 -19.838  0.00  0.00    +0.127 C 
ENDBRANCH  15  19
ENDBRANCH   3  11
BRANCH   4  20
ATOM     20  O   UNL     1      33.469 -13.147 -23.684  0.00  0.00    -0.433 OA
BRANCH  20  27
ATOM     21  O   UNL     1      30.163 -10.252 -20.768  0.00  0.00    -0.269 OA
ATOM     22  N   UNL     1      30.947 -12.306 -21.412  0.00  0.00    -0.200 N 
ATOM     23  N   UNL     1      31.773 -13.100 -22.136  0.00  0.00    -0.141 NA
ATOM     24  C   UNL     1      31.914 -10.272 -22.366  0.00  0.00    +0.037 C 
ATOM     25  C   UNL     1      32.735 -11.037 -23.091  0.00  0.00    +0.060 C 
ATOM     26  C   UNL     1      30.934 -10.928 -21.448  0.00  0.00    +0.261 C 
ATOM     27  C   UNL     1      32.592 -12.477 -22.908  0.00  0.00    +0.244 C 
ATOM     28  H   UNL     1      30.306 -12.749 -20.809  0.00  0.00    +0.178 HD
BRANCH  24  29
ATOM     29  C   UNL     1      31.921  -8.777 -22.427  0.00  0.00    +0.027 C 
ATOM     30  C   UNL     1      33.206  -8.279 -23.084  0.00  0.00    +0.005 C 
ATOM     31  C   UNL     1      30.693  -8.257 -23.172  0.00  0.00    +0.005 C 
ENDBRANCH  24  29
ENDBRANCH  20  27
ENDBRANCH   4  20
TORSDOF 5
ENDMDL
MODEL 2
REMARK VINA RESULT:     -10.9      6.677     12.227
REMARK  Name = 15981237
REMARK  5 active torsions:
REMARK  status: ('A' for Active; 'I' for Inactive)
REMARK    1  A    between atoms: C_3  and  N_11
REMARK    2  A    between atoms: C_4  and  O_20
REMARK    3  A    between atoms: C_15  and  C_19
REMARK    4  A    between atoms: O_20  and  C_27
REMARK    5  A    between atoms: C_24  and  C_29
REMARK                            x       y       z     vdW  Elec       q    Type
REMARK                         _______ _______ _______ _____ _____    ______ ____
ROOT
ATOM      1 CL   UNL     1      31.715 -23.537 -15.773  0.00  0.00    -0.079 Cl
ATOM      2 CL   UNL     1      36.882 -21.881 -15.393  0.00  0.00    -0.079 Cl
ATOM      3  C   UNL     1      34.053 -21.351 -18.163  0.00  0.00    +0.089 C 
ATOM      4  C   UNL     1      34.285 -22.634 -15.727  0.00  0.00    +0.168 C 
ATOM      5  C   UNL     1      32.964 -22.043 -17.633  0.00  0.00    +0.034 C 
ATOM      6  C   UNL     1      35.259 -21.307 -17.465  0.00  0.00    +0.034 C 
ATOM      7  C   UNL     1      33.081 -22.691 -16.403  0.00  0.00    +0.095 C 
ATOM      8  C   UNL     1      35.376 -21.954 -16.234  0.00  0.00    +0.095 C 
ENDROOT
BRANCH   3  11
ATOM      9  O   UNL     1      31.761 -21.361 -20.036  0.00  0.00    -0.245 OA
ATOM     10  O   UNL     1      34.048 -18.547 -22.834  0.00  0.00    -0.265 OA
ATOM     11  N   UNL     1      33.932 -20.682 -19.437  0.00  0.00    -0.179 N 
ATOM     12  N   UNL     1      35.068 -20.003 -19.801  0.00  0.00    -0.146 NA
ATOM     13  N   UNL     1      32.859 -19.948 -21.412  0.00  0.00    -0.271 N 
ATOM     14  C   UNL     1      32.786 -20.712 -20.251  0.00  0.00    +0.350 A 
ATOM     15  C   UNL     1      35.091 -19.330 -20.898  0.00  0.00    +0.225 A 
ATOM     16  C   UNL     1      33.945 -19.226 -21.825  0.00  0.00    +0.290 A 
ATOM     17  H   UNL     1      32.059 -19.925 -21.985  0.00  0.00    +0.174 HD
BRANCH  15  19
ATOM     18  N   UNL     1      37.396 -18.189 -21.257  0.00  0.00    -0.189 NA
ATOM     19  C   UNL     1      36.366 -18.700 -21.096  0.00  0.00    +0.127 C 
ENDBRANCH  15  19
ENDBRANCH   3  11
BRANCH   4  20
ATOM     20  O   UNL     1      34.401 -23.279 -14.500  0.00  0.00    -0.433 OA
BRANCH  20  27
ATOM     21  O   UNL     1      37.837 -27.272 -14.735  0.00  0.00    -0.269 OA
ATOM     22  N   UNL     1      35.858 -26.329 -15.397  0.00  0.00    -0.200 N 
ATOM     23  N   UNL     1      34.939 -25.332 -15.376  0.00  0.00    -0.141 NA
ATOM     24  C   UNL     1      37.306 -25.154 -13.816  0.00  0.00    +0.037 C 
ATOM     25  C   UNL     1      36.413 -24.161 -13.779  0.00  0.00    +0.060 C 
ATOM     26  C   UNL     1      37.035 -26.341 -14.680  0.00  0.00    +0.261 C 
ATOM     27  C   UNL     1      35.229 -24.339 -14.613  0.00  0.00    +0.244 C 
ATOM     28  H   UNL     1      35.669 -27.107 -15.971  0.00  0.00    +0.178 HD
BRANCH  24  29
ATOM     29  C   UNL     1      38.576 -25.140 -13.026  0.00  0.00    +0.027 C 
ATOM     30  C   UNL     1      39.764 -24.833 -13.934  0.00  0.00    +0.005 C 
ATOM     31  C   UNL     1      38.495 -24.132 -11.880  0.00  0.00    +0.005 C 
ENDBRANCH  24  29
ENDBRANCH  20  27
ENDBRANCH   4  20
TORSDOF 5
ENDMDL
MODEL 3
REMARK VINA RESULT:     -10.8      3.434      5.749
REMARK  Name = 15981237
REMARK  5 active torsions:
REMARK  status: ('A' for Active; 'I' for Inactive)
REMARK    1  A    between atoms: C_3  and  N_11
REMARK    2  A    between atoms: C_4  and  O_20
REMARK    3  A    between atoms: C_15  and  C_19
REMARK    4  A    between atoms: O_20  and  C_27
REMARK    5  A    between atoms: C_24  and  C_29
REMARK                            x       y       z     vdW  Elec       q    Type
REMARK                         _______ _______ _______ _____ _____    ______ ____
ROOT
ATOM      1 CL   UNL     1      30.147 -10.296 -21.021  0.00  0.00    -0.079 Cl
ATOM      2 CL   UNL     1      34.552  -8.603 -23.725  0.00  0.00    -0.079 Cl
ATOM      3  C   UNL     1      32.913 -12.205 -23.181  0.00  0.00    +0.089 C 
ATOM      4  C   UNL     1      32.381  -9.603 -22.418  0.00  0.00    +0.168 C 
ATOM      5  C   UNL     1      31.800 -11.924 -22.388  0.00  0.00    +0.034 C 
ATOM      6  C   UNL     1      33.757 -11.173 -23.589  0.00  0.00    +0.034 C 
ATOM      7  C   UNL     1      31.532 -10.610 -22.002  0.00  0.00    +0.095 C 
ATOM      8  C   UNL     1      33.489  -9.858 -23.204  0.00  0.00    +0.095 C 
ENDROOT
BRANCH   3  11
ATOM      9  O   UNL     1      32.464 -13.480 -25.815  0.00  0.00    -0.245 OA
ATOM     10  O   UNL     1      34.246 -17.384 -24.217  0.00  0.00    -0.265 OA
ATOM     11  N   UNL     1      33.191 -13.564 -23.579  0.00  0.00    -0.179 N 
ATOM     12  N   UNL     1      33.684 -14.336 -22.557  0.00  0.00    -0.146 NA
ATOM     13  N   UNL     1      33.370 -15.402 -25.055  0.00  0.00    -0.271 N 
ATOM     14  C   UNL     1      32.978 -14.081 -24.869  0.00  0.00    +0.350 A 
ATOM     15  C   UNL     1      34.010 -15.562 -22.776  0.00  0.00    +0.225 A 
ATOM     16  C   UNL     1      33.893 -16.223 -24.093  0.00  0.00    +0.290 A 
ATOM     17  H   UNL     1      33.262 -15.780 -25.958  0.00  0.00    +0.174 HD
BRANCH  15  19
ATOM     18  N   UNL     1      34.893 -16.705 -20.618  0.00  0.00    -0.189 NA
ATOM     19  C   UNL     1      34.499 -16.193 -21.583  0.00  0.00    +0.127 C 
ENDBRANCH  15  19
ENDBRANCH   3  11
BRANCH   4  20
ATOM     20  O   UNL     1      32.113  -8.293 -22.034  0.00  0.00    -0.433 OA
BRANCH  20  27
ATOM     21  O   UNL     1      31.499  -5.097 -26.184  0.00  0.00    -0.269 OA
ATOM     22  N   UNL     1      30.914  -7.003 -25.055  0.00  0.00    -0.200 N 
ATOM     23  N   UNL     1      31.028  -7.860 -24.012  0.00  0.00    -0.141 NA
ATOM     24  C   UNL     1      32.633  -5.520 -24.147  0.00  0.00    +0.037 C 
ATOM     25  C   UNL     1      32.763  -6.352 -23.110  0.00  0.00    +0.060 C 
ATOM     26  C   UNL     1      31.642  -5.843 -25.216  0.00  0.00    +0.261 C 
ATOM     27  C   UNL     1      31.898  -7.527 -23.125  0.00  0.00    +0.244 C 
ATOM     28  H   UNL     1      30.256  -7.225 -25.754  0.00  0.00    +0.178 HD
BRANCH  24  29
ATOM     29  C   UNL     1      33.438  -4.268 -24.296  0.00  0.00    +0.027 C 
ATOM     30  C   UNL     1      34.493  -4.441 -25.385  0.00  0.00    +0.005 C 
ATOM     31  C   UNL     1      32.535  -3.073 -24.600  0.00  0.00    +0.005 C 
ENDBRANCH  24  29
ENDBRANCH  20  27
ENDBRANCH   4  20
TORSDOF 5
ENDMDL
MODEL 4
REMARK VINA RESULT:     -10.8      3.504      5.800
REMARK  Name = 15981237
REMARK  5 active torsions:
REMARK  status: ('A' for Active; 'I' for Inactive)
REMARK    1  A    between atoms: C_3  and  N_11
REMARK    2  A    between atoms: C_4  and  O_20
REMARK    3  A    between atoms: C_15  and  C_19
REMARK    4  A    between atoms: O_20  and  C_27
REMARK    5  A    between atoms: C_24  and  C_29
REMARK                            x       y       z     vdW  Elec       q    Type
REMARK                         _______ _______ _______ _____ _____    ______ ____
ROOT
ATOM      1 CL   UNL     1      34.599  -8.552 -23.765  0.00  0.00    -0.079 Cl
ATOM      2 CL   UNL     1      30.130 -10.132 -21.099  0.00  0.00    -0.079 Cl
ATOM      3  C   UNL     1      32.880 -12.115 -23.210  0.00  0.00    +0.089 C 
ATOM      4  C   UNL     1      32.394  -9.496 -22.476  0.00  0.00    +0.168 C 
ATOM      5  C   UNL     1      33.750 -11.103 -23.617  0.00  0.00    +0.034 C 
ATOM      6  C   UNL     1      31.765 -11.805 -22.433  0.00  0.00    +0.034 C 
ATOM      7  C   UNL     1      33.504  -9.781 -23.247  0.00  0.00    +0.095 C 
ATOM      8  C   UNL     1      31.519 -10.483 -22.061  0.00  0.00    +0.095 C 
ENDROOT
BRANCH   3  11
ATOM      9  O   UNL     1      32.369 -13.418 -25.818  0.00  0.00    -0.245 OA
ATOM     10  O   UNL     1      34.134 -17.323 -24.200  0.00  0.00    -0.265 OA
ATOM     11  N   UNL     1      33.135 -13.483 -23.595  0.00  0.00    -0.179 N 
ATOM     12  N   UNL     1      33.637 -14.247 -22.571  0.00  0.00    -0.146 NA
ATOM     13  N   UNL     1      33.266 -15.342 -25.049  0.00  0.00    -0.271 N 
ATOM     14  C   UNL     1      32.893 -14.014 -24.874  0.00  0.00    +0.350 A 
ATOM     15  C   UNL     1      33.945 -15.480 -22.780  0.00  0.00    +0.225 A 
ATOM     16  C   UNL     1      33.797 -16.156 -24.086  0.00  0.00    +0.290 A 
ATOM     17  H   UNL     1      33.137 -15.730 -25.945  0.00  0.00    +0.174 HD
BRANCH  15  19
ATOM     18  N   UNL     1      34.856 -16.603 -20.624  0.00  0.00    -0.189 NA
ATOM     19  C   UNL     1      34.448 -16.101 -21.588  0.00  0.00    +0.127 C 
ENDBRANCH  15  19
ENDBRANCH   3  11
BRANCH   4  20
ATOM     20  O   UNL     1      32.149  -8.177 -22.105  0.00  0.00    -0.433 OA
BRANCH  20  27
ATOM     21  O   UNL     1      31.546  -5.018 -26.285  0.00  0.00    -0.269 OA
ATOM     22  N   UNL     1      30.963  -6.917 -25.144  0.00  0.00    -0.200 N 
ATOM     23  N   UNL     1      31.074  -7.766 -24.093  0.00  0.00    -0.141 NA
ATOM     24  C   UNL     1      32.669  -5.419 -24.237  0.00  0.00    +0.037 C 
ATOM     25  C   UNL     1      32.797  -6.243 -23.193  0.00  0.00    +0.060 C 
ATOM     26  C   UNL     1      31.686  -5.755 -25.310  0.00  0.00    +0.261 C 
ATOM     27  C   UNL     1      31.938  -7.422 -23.204  0.00  0.00    +0.244 C 
ATOM     28  H   UNL     1      30.311  -7.149 -25.845  0.00  0.00    +0.178 HD
BRANCH  24  29
ATOM     29  C   UNL     1      33.470  -4.165 -24.392  0.00  0.00    +0.027 C 
ATOM     30  C   UNL     1      34.548  -4.350 -25.457  0.00  0.00    +0.005 C 
ATOM     31  C   UNL     1      32.566  -2.981 -24.734  0.00  0.00    +0.005 C 
ENDBRANCH  24  29
ENDBRANCH  20  27
ENDBRANCH   4  20
TORSDOF 5
ENDMDL
MODEL 5
REMARK VINA RESULT:     -10.8      3.095      4.898
REMARK  Name = 15981237
REMARK  5 active torsions:
REMARK  status: ('A' for Active; 'I' for Inactive)
REMARK    1  A    between atoms: C_3  and  N_11
REMARK    2  A    between atoms: C_4  and  O_20
REMARK    3  A    between atoms: C_15  and  C_19
REMARK    4  A    between atoms: O_20  and  C_27
REMARK    5  A    between atoms: C_24  and  C_29
REMARK                            x       y       z     vdW  Elec       q    Type
REMARK                         _______ _______ _______ _____ _____    ______ ____
ROOT
ATOM      1 CL   UNL     1      37.534 -17.805 -21.780  0.00  0.00    -0.079 Cl
ATOM      2 CL   UNL     1      32.539 -18.792 -23.691  0.00  0.00    -0.079 Cl
ATOM      3  C   UNL     1      34.488 -20.004 -20.422  0.00  0.00    +0.089 C 
ATOM      4  C   UNL     1      35.006 -18.394 -22.607  0.00  0.00    +0.168 C 
ATOM      5  C   UNL     1      35.728 -19.378 -20.549  0.00  0.00    +0.034 C 
ATOM      6  C   UNL     1      33.510 -19.817 -21.398  0.00  0.00    +0.034 C 
ATOM      7  C   UNL     1      35.990 -18.565 -21.652  0.00  0.00    +0.095 C 
ATOM      8  C   UNL     1      33.771 -19.004 -22.501  0.00  0.00    +0.095 C 
ENDROOT
BRANCH   3  11
ATOM      9  O   UNL     1      31.930 -21.268 -19.632  0.00  0.00    -0.245 OA
ATOM     10  O   UNL     1      34.012 -23.213 -16.045  0.00  0.00    -0.265 OA
ATOM     11  N   UNL     1      34.218 -20.846 -19.281  0.00  0.00    -0.179 N 
ATOM     12  N   UNL     1      35.308 -21.015 -18.464  0.00  0.00    -0.146 NA
ATOM     13  N   UNL     1      32.947 -22.262 -17.878  0.00  0.00    -0.271 N 
ATOM     14  C   UNL     1      32.974 -21.437 -18.998  0.00  0.00    +0.350 A 
ATOM     15  C   UNL     1      35.223 -21.771 -17.426  0.00  0.00    +0.225 A 
ATOM     16  C   UNL     1      33.998 -22.499 -17.035  0.00  0.00    +0.290 A 
ATOM     17  H   UNL     1      32.096 -22.715 -17.675  0.00  0.00    +0.174 HD
BRANCH  15  19
ATOM     18  N   UNL     1      37.471 -21.846 -16.129  0.00  0.00    -0.189 NA
ATOM     19  C   UNL     1      36.466 -21.813 -16.708  0.00  0.00    +0.127 C 
ENDBRANCH  15  19
ENDBRANCH   3  11
BRANCH   4  20
ATOM     20  O   UNL     1      35.267 -17.582 -23.707  0.00  0.00    -0.433 OA
BRANCH  20  27
ATOM     21  O   UNL     1      32.314 -13.240 -23.225  0.00  0.00    -0.269 OA
ATOM     22  N   UNL     1      33.072 -14.980 -24.507  0.00  0.00    -0.200 N 
ATOM     23  N   UNL     1      33.812 -16.102 -24.688  0.00  0.00    -0.141 NA
ATOM     24  C   UNL     1      33.814 -14.753 -22.188  0.00  0.00    +0.037 C 
ATOM     25  C   UNL     1      34.552 -15.856 -22.346  0.00  0.00    +0.060 C 
ATOM     26  C   UNL     1      33.002 -14.253 -23.337  0.00  0.00    +0.261 C 
ATOM     27  C   UNL     1      34.489 -16.481 -23.662  0.00  0.00    +0.244 C 
ATOM     28  H   UNL     1      32.540 -14.660 -25.272  0.00  0.00    +0.178 HD
BRANCH  24  29
ATOM     29  C   UNL     1      33.758 -13.983 -20.907  0.00  0.00    +0.027 C 
ATOM     30  C   UNL     1      34.061 -12.508 -21.159  0.00  0.00    +0.005 C 
ATOM     31  C   UNL     1      32.398 -14.149 -20.230  0.00  0.00    +0.005 C 
ENDBRANCH  24  29
ENDBRANCH  20  27
ENDBRANCH   4  20
TORSDOF 5
ENDMDL
MODEL 6
REMARK VINA RESULT:     -10.6      3.559      6.026
REMARK  Name = 15981237
REMARK  5 active torsions:
REMARK  status: ('A' for Active; 'I' for Inactive)
REMARK    1  A    between atoms: C_3  and  N_11
REMARK    2  A    between atoms: C_4  and  O_20
REMARK    3  A    between atoms: C_15  and  C_19
REMARK    4  A    between atoms: O_20  and  C_27
REMARK    5  A    between atoms: C_24  and  C_29
REMARK                            x       y       z     vdW  Elec       q    Type
REMARK                         _______ _______ _______ _____ _____    ______ ____
ROOT
ATOM      1 CL   UNL     1      31.609 -19.801 -21.342  0.00  0.00    -0.079 Cl
ATOM      2 CL   UNL     1      37.000 -19.263 -20.863  0.00  0.00    -0.079 Cl
ATOM      3  C   UNL     1      34.259 -21.202 -18.700  0.00  0.00    +0.089 C 
ATOM      4  C   UNL     1      34.302 -19.625 -20.969  0.00  0.00    +0.168 C 
ATOM      5  C   UNL     1      33.072 -20.923 -19.379  0.00  0.00    +0.034 C 
ATOM      6  C   UNL     1      35.467 -20.684 -19.166  0.00  0.00    +0.034 C 
ATOM      7  C   UNL     1      33.094 -20.127 -20.525  0.00  0.00    +0.095 C 
ATOM      8  C   UNL     1      35.489 -19.888 -20.312  0.00  0.00    +0.095 C 
ENDROOT
BRANCH   3  11
ATOM      9  O   UNL     1      31.938 -22.524 -17.424  0.00  0.00    -0.245 OA
ATOM     10  O   UNL     1      34.717 -24.323 -14.259  0.00  0.00    -0.265 OA
ATOM     11  N   UNL     1      34.235 -22.025 -17.515  0.00  0.00    -0.179 N 
ATOM     12  N   UNL     1      35.464 -22.143 -16.914  0.00  0.00    -0.146 NA
ATOM     13  N   UNL     1      33.297 -23.446 -15.875  0.00  0.00    -0.271 N 
ATOM     14  C   UNL     1      33.087 -22.647 -16.994  0.00  0.00    +0.350 A 
ATOM     15  C   UNL     1      35.600 -22.878 -15.866  0.00  0.00    +0.225 A 
ATOM     16  C   UNL     1      34.495 -23.633 -15.240  0.00  0.00    +0.290 A 
ATOM     17  H   UNL     1      32.515 -23.920 -15.508  0.00  0.00    +0.174 HD
BRANCH  15  19
ATOM     18  N   UNL     1      38.051 -22.858 -15.011  0.00  0.00    -0.189 NA
ATOM     19  C   UNL     1      36.956 -22.866 -15.393  0.00  0.00    +0.127 C 
ENDBRANCH  15  19
ENDBRANCH   3  11
BRANCH   4  20
ATOM     20  O   UNL     1      34.324 -18.831 -22.112  0.00  0.00    -0.433 OA
BRANCH  20  27
ATOM     21  O   UNL     1      34.087 -13.665 -21.082  0.00  0.00    -0.269 OA
ATOM     22  N   UNL     1      34.349 -15.816 -20.340  0.00  0.00    -0.200 N 
ATOM     23  N   UNL     1      34.419 -17.154 -20.546  0.00  0.00    -0.141 NA
ATOM     24  C   UNL     1      33.985 -15.376 -22.718  0.00  0.00    +0.037 C 
ATOM     25  C   UNL     1      34.049 -16.691 -22.943  0.00  0.00    +0.060 C 
ATOM     26  C   UNL     1      34.142 -14.870 -21.322  0.00  0.00    +0.261 C 
ATOM     27  C   UNL     1      34.275 -17.527 -21.768  0.00  0.00    +0.244 C 
ATOM     28  H   UNL     1      34.455 -15.494 -19.416  0.00  0.00    +0.178 HD
BRANCH  24  29
ATOM     29  C   UNL     1      33.758 -14.372 -23.803  0.00  0.00    +0.027 C 
ATOM     30  C   UNL     1      33.411 -15.074 -25.114  0.00  0.00    +0.005 C 
ATOM     31  C   UNL     1      32.662 -13.382 -23.410  0.00  0.00    +0.005 C 
ENDBRANCH  24  29
ENDBRANCH  20  27
ENDBRANCH   4  20
TORSDOF 5
ENDMDL
MODEL 7
REMARK VINA RESULT:     -10.0      3.530      5.800
REMARK  Name = 15981237
REMARK  5 active torsions:
REMARK  status: ('A' for Active; 'I' for Inactive)
REMARK    1  A    between atoms: C_3  and  N_11
REMARK    2  A    between atoms: C_4  and  O_20
REMARK    3  A    between atoms: C_15  and  C_19
REMARK    4  A    between atoms: O_20  and  C_27
REMARK    5  A    between atoms: C_24  and  C_29
REMARK                            x       y       z     vdW  Elec       q    Type
REMARK                         _______ _______ _______ _____ _____    ______ ____
ROOT
ATOM      1 CL   UNL     1      31.696 -19.996 -21.068  0.00  0.00    -0.079 Cl
ATOM      2 CL   UNL     1      37.069 -19.160 -20.935  0.00  0.00    -0.079 Cl
ATOM      3  C   UNL     1      34.564 -21.137 -18.532  0.00  0.00    +0.089 C 
ATOM      4  C   UNL     1      34.392 -19.664 -20.864  0.00  0.00    +0.168 C 
ATOM      5  C   UNL     1      33.327 -20.951 -19.150  0.00  0.00    +0.034 C 
ATOM      6  C   UNL     1      35.714 -20.580 -19.091  0.00  0.00    +0.034 C 
ATOM      7  C   UNL     1      33.240 -20.207 -20.328  0.00  0.00    +0.095 C 
ATOM      8  C   UNL     1      35.628 -19.836 -20.268  0.00  0.00    +0.095 C 
ENDROOT
BRANCH   3  11
ATOM      9  O   UNL     1      36.980 -21.841 -16.973  0.00  0.00    -0.245 OA
ATOM     10  O   UNL     1      34.355 -23.993 -13.897  0.00  0.00    -0.265 OA
ATOM     11  N   UNL     1      34.653 -21.906 -17.314  0.00  0.00    -0.179 N 
ATOM     12  N   UNL     1      33.440 -22.388 -16.889  0.00  0.00    -0.146 NA
ATOM     13  N   UNL     1      35.700 -22.877 -15.429  0.00  0.00    -0.271 N 
ATOM     14  C   UNL     1      35.845 -22.165 -16.616  0.00  0.00    +0.350 A 
ATOM     15  C   UNL     1      33.363 -23.062 -15.795  0.00  0.00    +0.225 A 
ATOM     16  C   UNL     1      34.522 -23.364 -14.930  0.00  0.00    +0.290 A 
ATOM     17  H   UNL     1      36.515 -23.045 -14.903  0.00  0.00    +0.174 HD
BRANCH  15  19
ATOM     18  N   UNL     1      30.922 -23.807 -15.319  0.00  0.00    -0.189 NA
ATOM     19  C   UNL     1      32.013 -23.474 -15.531  0.00  0.00    +0.127 C 
ENDBRANCH  15  19
ENDBRANCH   3  11
BRANCH   4  20
ATOM     20  O   UNL     1      34.305 -18.923 -22.038  0.00  0.00    -0.433 OA
BRANCH  20  27
ATOM     21  O   UNL     1      34.116 -13.716 -21.227  0.00  0.00    -0.269 OA
ATOM     22  N   UNL     1      34.338 -15.837 -20.393  0.00  0.00    -0.200 N 
ATOM     23  N   UNL     1      34.395 -17.184 -20.542  0.00  0.00    -0.141 NA
ATOM     24  C   UNL     1      34.020 -15.492 -22.793  0.00  0.00    +0.037 C 
ATOM     25  C   UNL     1      34.072 -16.816 -22.962  0.00  0.00    +0.060 C 
ATOM     26  C   UNL     1      34.161 -14.931 -21.416  0.00  0.00    +0.261 C 
ATOM     27  C   UNL     1      34.267 -17.605 -21.750  0.00  0.00    +0.244 C 
ATOM     28  H   UNL     1      34.433 -15.478 -19.481  0.00  0.00    +0.178 HD
BRANCH  24  29
ATOM     29  C   UNL     1      33.825 -14.531 -23.923  0.00  0.00    +0.027 C 
ATOM     30  C   UNL     1      33.444 -15.280 -25.197  0.00  0.00    +0.005 C 
ATOM     31  C   UNL     1      32.769 -13.484 -23.571  0.00  0.00    +0.005 C 
ENDBRANCH  24  29
ENDBRANCH  20  27
ENDBRANCH   4  20
TORSDOF 5
ENDMDL
MODEL 8
REMARK VINA RESULT:      -9.9      3.885      6.913
REMARK  Name = 15981237
REMARK  5 active torsions:
REMARK  status: ('A' for Active; 'I' for Inactive)
REMARK    1  A    between atoms: C_3  and  N_11
REMARK    2  A    between atoms: C_4  and  O_20
REMARK    3  A    between atoms: C_15  and  C_19
REMARK    4  A    between atoms: O_20  and  C_27
REMARK    5  A    between atoms: C_24  and  C_29
REMARK                            x       y       z     vdW  Elec       q    Type
REMARK                         _______ _______ _______ _____ _____    ______ ____
ROOT
ATOM      1 CL   UNL     1      31.681 -19.780 -21.534  0.00  0.00    -0.079 Cl
ATOM      2 CL   UNL     1      36.558 -21.222 -19.605  0.00  0.00    -0.079 Cl
ATOM      3  C   UNL     1      32.841 -21.680 -18.217  0.00  0.00    +0.089 C 
ATOM      4  C   UNL     1      34.048 -20.567 -20.439  0.00  0.00    +0.168 C 
ATOM      5  C   UNL     1      32.062 -21.078 -19.206  0.00  0.00    +0.034 C 
ATOM      6  C   UNL     1      34.228 -21.719 -18.349  0.00  0.00    +0.034 C 
ATOM      7  C   UNL     1      32.672 -20.516 -20.328  0.00  0.00    +0.095 C 
ATOM      8  C   UNL     1      34.839 -21.157 -19.471  0.00  0.00    +0.095 C 
ENDROOT
BRANCH   3  11
ATOM      9  O   UNL     1      34.075 -23.299 -16.067  0.00  0.00    -0.245 OA
ATOM     10  O   UNL     1      30.021 -23.561 -13.952  0.00  0.00    -0.265 OA
ATOM     11  N   UNL     1      32.209 -22.260 -17.055  0.00  0.00    -0.179 N 
ATOM     12  N   UNL     1      30.855 -22.043 -17.012  0.00  0.00    -0.146 NA
ATOM     13  N   UNL     1      32.092 -23.411 -14.993  0.00  0.00    -0.271 N 
ATOM     14  C   UNL     1      32.881 -22.990 -16.059  0.00  0.00    +0.350 A 
ATOM     15  C   UNL     1      30.166 -22.474 -16.013  0.00  0.00    +0.225 A 
ATOM     16  C   UNL     1      30.745 -23.208 -14.868  0.00  0.00    +0.290 A 
ATOM     17  H   UNL     1      32.544 -23.897 -14.265  0.00  0.00    +0.174 HD
BRANCH  15  19
ATOM     18  N   UNL     1      27.652 -21.884 -16.275  0.00  0.00    -0.189 NA
ATOM     19  C   UNL     1      28.775 -22.148 -16.159  0.00  0.00    +0.127 C 
ENDBRANCH  15  19
ENDBRANCH   3  11
BRANCH   4  20
ATOM     20  O   UNL     1      34.656 -20.007 -21.558  0.00  0.00    -0.433 OA
BRANCH  20  27
ATOM     21  O   UNL     1      34.387 -14.740 -21.603  0.00  0.00    -0.269 OA
ATOM     22  N   UNL     1      34.677 -16.693 -20.441  0.00  0.00    -0.200 N 
ATOM     23  N   UNL     1      34.757 -18.044 -20.370  0.00  0.00    -0.141 NA
ATOM     24  C   UNL     1      34.278 -16.750 -22.853  0.00  0.00    +0.037 C 
ATOM     25  C   UNL     1      34.351 -18.084 -22.805  0.00  0.00    +0.060 C 
ATOM     26  C   UNL     1      34.450 -15.969 -21.592  0.00  0.00    +0.261 C 
ATOM     27  C   UNL     1      34.600 -18.660 -21.488  0.00  0.00    +0.244 C 
ATOM     28  H   UNL     1      34.793 -16.188 -19.604  0.00  0.00    +0.178 HD
BRANCH  24  29
ATOM     29  C   UNL     1      34.028 -15.991 -24.117  0.00  0.00    +0.027 C 
ATOM     30  C   UNL     1      33.221 -16.839 -25.097  0.00  0.00    +0.005 C 
ATOM     31  C   UNL     1      33.315 -14.670 -23.828  0.00  0.00    +0.005 C 
ENDBRANCH  24  29
ENDBRANCH  20  27
ENDBRANCH   4  20
TORSDOF 5
ENDMDL
MODEL 9
REMARK VINA RESULT:      -9.7      2.219      3.405
REMARK  Name = 15981237
REMARK  5 active torsions:
REMARK  status: ('A' for Active; 'I' for Inactive)
REMARK    1  A    between atoms: C_3  and  N_11
REMARK    2  A    between atoms: C_4  and  O_20
REMARK    3  A    between atoms: C_15  and  C_19
REMARK    4  A    between atoms: O_20  and  C_27
REMARK    5  A    between atoms: C_24  and  C_29
REMARK                            x       y       z     vdW  Elec       q    Type
REMARK                         _______ _______ _______ _____ _____    ______ ____
ROOT
ATOM      1 CL   UNL     1      34.151 -12.006 -21.191  0.00  0.00    -0.079 Cl
ATOM      2 CL   UNL     1      32.191 -12.517 -26.239  0.00  0.00    -0.079 Cl
ATOM      3  C   UNL     1      33.640 -15.147 -23.606  0.00  0.00    +0.089 C 
ATOM      4  C   UNL     1      33.197 -12.422 -23.709  0.00  0.00    +0.168 C 
ATOM      5  C   UNL     1      33.964 -14.346 -22.511  0.00  0.00    +0.034 C 
ATOM      6  C   UNL     1      33.094 -14.573 -24.753  0.00  0.00    +0.034 C 
ATOM      7  C   UNL     1      33.741 -12.970 -22.563  0.00  0.00    +0.095 C 
ATOM      8  C   UNL     1      32.869 -13.197 -24.805  0.00  0.00    +0.095 C 
ENDROOT
BRANCH   3  11
ATOM      9  O   UNL     1      32.506 -17.264 -25.337  0.00  0.00    -0.245 OA
ATOM     10  O   UNL     1      34.932 -20.412 -23.059  0.00  0.00    -0.265 OA
ATOM     11  N   UNL     1      33.873 -16.571 -23.552  0.00  0.00    -0.179 N 
ATOM     12  N   UNL     1      34.698 -16.945 -22.521  0.00  0.00    -0.146 NA
ATOM     13  N   UNL     1      33.719 -18.825 -24.248  0.00  0.00    -0.271 N 
ATOM     14  C   UNL     1      33.317 -17.508 -24.441  0.00  0.00    +0.350 A 
ATOM     15  C   UNL     1      35.022 -18.182 -22.372  0.00  0.00    +0.225 A 
ATOM     16  C   UNL     1      34.558 -19.268 -23.261  0.00  0.00    +0.290 A 
ATOM     17  H   UNL     1      33.370 -19.498 -24.876  0.00  0.00    +0.174 HD
BRANCH  15  19
ATOM     18  N   UNL     1      36.582 -18.510 -20.324  0.00  0.00    -0.189 NA
ATOM     19  C   UNL     1      35.885 -18.363 -21.239  0.00  0.00    +0.127 C 
ENDBRANCH  15  19
ENDBRANCH   3  11
BRANCH   4  20
ATOM     20  O   UNL     1      32.974 -11.050 -23.760  0.00  0.00    -0.433 OA
BRANCH  20  27
ATOM     21  O   UNL     1      29.926  -9.286 -19.835  0.00  0.00    -0.269 OA
ATOM     22  N   UNL     1      30.670 -11.023 -21.129  0.00  0.00    -0.200 N 
ATOM     23  N   UNL     1      31.433 -11.532 -22.127  0.00  0.00    -0.141 NA
ATOM     24  C   UNL     1      31.516  -8.760 -21.512  0.00  0.00    +0.037 C 
ATOM     25  C   UNL     1      32.274  -9.241 -22.501  0.00  0.00    +0.060 C 
ATOM     26  C   UNL     1      30.637  -9.697 -20.750  0.00  0.00    +0.261 C 
ATOM     27  C   UNL     1      32.167 -10.676 -22.745  0.00  0.00    +0.244 C 
ATOM     28  H   UNL     1      30.095 -11.650 -20.633  0.00  0.00    +0.178 HD
BRANCH  24  29
ATOM     29  C   UNL     1      31.499  -7.316 -21.123  0.00  0.00    +0.027 C 
ATOM     30  C   UNL     1      32.924  -6.779 -21.010  0.00  0.00    +0.005 C 
ATOM     31  C   UNL     1      30.687  -6.492 -22.121  0.00  0.00    +0.005 C 
ENDBRANCH  24  29
ENDBRANCH  20  27
ENDBRANCH   4  20
TORSDOF 5
ENDMDL
