MODEL 1
REMARK VINA RESULT:     -12.7      0.000      0.000
REMARK  Name = 11691242
REMARK  5 active torsions:
REMARK  status: ('A' for Active; 'I' for Inactive)
REMARK    1  A    between atoms: N_1  and  C_25
REMARK    2  A    between atoms: C_5  and  N_11
REMARK    3  A    between atoms: N_12  and  C_17
REMARK    4  A    between atoms: C_18  and  O_23
REMARK    5  A    between atoms: C_25  and  C_28
REMARK                            x       y       z     vdW  Elec       q    Type
REMARK                         _______ _______ _______ _____ _____    ______ ____
ROOT
ATOM      1  N   UNL     1      34.771 -16.542 -21.980  0.00  0.00    -0.282 N 
ATOM      2  C   UNL     1      34.205 -15.791 -22.985  0.00  0.00    +0.053 C 
ATOM      3  C   UNL     1      33.567 -14.707 -22.377  0.00  0.00    +0.028 C 
ATOM      4  C   UNL     1      34.515 -15.972 -20.762  0.00  0.00    +0.066 C 
ATOM      5  C   UNL     1      32.898 -13.770 -23.190  0.00  0.00    +0.053 C 
ATOM      6  C   UNL     1      33.770 -14.835 -20.974  0.00  0.00    +0.019 C 
ATOM      7  C   UNL     1      34.207 -15.985 -24.370  0.00  0.00    +0.015 C 
ATOM      8  C   UNL     1      32.892 -13.952 -24.578  0.00  0.00    +0.015 C 
ATOM      9  C   UNL     1      33.537 -15.043 -25.157  0.00  0.00    +0.003 C 
ENDROOT
BRANCH   5  11
ATOM     10  O   UNL     1      33.393 -10.848 -23.558  0.00  0.00    -0.252 OA
ATOM     11  N   UNL     1      32.245 -12.669 -22.635  0.00  0.00    -0.268 N 
ATOM     12  N   UNL     1      31.611 -10.519 -22.081  0.00  0.00    -0.266 N 
ATOM     13  C   UNL     1      32.508 -11.292 -22.834  0.00  0.00    +0.308 C 
ATOM     14  H   UNL     1      31.501 -12.877 -22.023  0.00  0.00    +0.156 HD
ATOM     15  H   UNL     1      30.953 -11.019 -21.545  0.00  0.00    +0.157 HD
BRANCH  12  17
ATOM     16 BR   UNL     1      30.941  -5.985 -24.663  0.00  0.00    -0.049 Br
ATOM     17  C   UNL     1      31.534  -9.108 -21.998  0.00  0.00    +0.086 C 
ATOM     18  C   UNL     1      31.679  -8.477 -20.772  0.00  0.00    +0.152 C 
ATOM     19  C   UNL     1      31.313  -8.384 -23.158  0.00  0.00    +0.024 C 
ATOM     20  C   UNL     1      31.601  -7.087 -20.706  0.00  0.00    +0.039 C 
ATOM     21  C   UNL     1      31.235  -6.992 -23.092  0.00  0.00    +0.036 C 
ATOM     22  C   UNL     1      31.379  -6.344 -21.865  0.00  0.00    +0.010 C 
BRANCH  18  23
ATOM     23  O   UNL     1      31.898  -9.186 -19.628  0.00  0.00    -0.470 OA
ATOM     24  C   UNL     1      30.771  -9.419 -18.785  0.00  0.00    +0.253 C 
ENDBRANCH  18  23
ENDBRANCH  12  17
ENDBRANCH   5  11
BRANCH   1  25
ATOM     25  C   UNL     1      35.528 -17.761 -22.167  0.00  0.00    +0.122 C 
BRANCH  25  28
ATOM     26  N   UNL     1      34.275 -20.818 -19.437  0.00  0.00    -0.230 NA
ATOM     27  N   UNL     1      32.016 -20.473 -20.110  0.00  0.00    -0.343 N 
ATOM     28  C   UNL     1      35.087 -18.834 -21.208  0.00  0.00    +0.002 C 
ATOM     29  C   UNL     1      33.745 -19.153 -21.107  0.00  0.00    +0.031 C 
ATOM     30  C   UNL     1      36.030 -19.491 -20.438  0.00  0.00    +0.018 C 
ATOM     31  C   UNL     1      33.392 -20.148 -20.211  0.00  0.00    +0.125 C 
ATOM     32  C   UNL     1      35.575 -20.471 -19.571  0.00  0.00    +0.100 C 
ATOM     33  H   UNL     1      31.721 -21.175 -19.487  0.00  0.00    +0.144 HD
ATOM     34  H   UNL     1      31.356 -19.998 -20.666  0.00  0.00    +0.144 HD
ENDBRANCH  25  28
ENDBRANCH   1  25
TORSDOF 5
ENDMDL
MODEL 2
REMARK VINA RESULT:     -12.5      6.660     11.833
REMARK  Name = 11691242
REMARK  5 active torsions:
REMARK  status: ('A' for Active; 'I' for Inactive)
REMARK    1  A    between atoms: N_1  and  C_25
REMARK    2  A    between atoms: C_5  and  N_11
REMARK    3  A    between atoms: N_12  and  C_17
REMARK    4  A    between atoms: C_18  and  O_23
REMARK    5  A    between atoms: C_25  and  C_28
REMARK                            x       y       z     vdW  Elec       q    Type
REMARK                         _______ _______ _______ _____ _____    ______ ____
ROOT
ATOM      1  N   UNL     1      35.154 -18.281 -22.367  0.00  0.00    -0.282 N 
ATOM      2  C   UNL     1      34.475 -19.088 -21.483  0.00  0.00    +0.053 C 
ATOM      3  C   UNL     1      35.375 -19.439 -20.473  0.00  0.00    +0.028 C 
ATOM      4  C   UNL     1      36.448 -18.111 -21.955  0.00  0.00    +0.066 C 
ATOM      5  C   UNL     1      34.931 -20.272 -19.428  0.00  0.00    +0.053 C 
ATOM      6  C   UNL     1      36.617 -18.816 -20.786  0.00  0.00    +0.019 C 
ATOM      7  C   UNL     1      33.148 -19.529 -21.497  0.00  0.00    +0.015 C 
ATOM      8  C   UNL     1      33.605 -20.722 -19.429  0.00  0.00    +0.015 C 
ATOM      9  C   UNL     1      32.729 -20.355 -20.448  0.00  0.00    +0.003 C 
ENDROOT
BRANCH   5  11
ATOM     10  O   UNL     1      34.693 -22.496 -17.447  0.00  0.00    -0.252 OA
ATOM     11  N   UNL     1      35.789 -20.654 -18.395  0.00  0.00    -0.268 N 
ATOM     12  N   UNL     1      36.740 -21.748 -16.597  0.00  0.00    -0.266 N 
ATOM     13  C   UNL     1      35.643 -21.718 -17.473  0.00  0.00    +0.308 C 
ATOM     14  H   UNL     1      36.604 -20.111 -18.294  0.00  0.00    +0.156 HD
ATOM     15  H   UNL     1      37.426 -21.057 -16.741  0.00  0.00    +0.157 HD
BRANCH  12  17
ATOM     16 BR   UNL     1      40.027 -25.250 -14.453  0.00  0.00    -0.049 Br
ATOM     17  C   UNL     1      36.981 -22.650 -15.534  0.00  0.00    +0.086 C 
ATOM     18  C   UNL     1      36.039 -22.803 -14.528  0.00  0.00    +0.152 C 
ATOM     19  C   UNL     1      38.167 -23.366 -15.524  0.00  0.00    +0.024 C 
ATOM     20  C   UNL     1      36.290 -23.694 -13.487  0.00  0.00    +0.039 C 
ATOM     21  C   UNL     1      38.418 -24.259 -14.482  0.00  0.00    +0.036 C 
ATOM     22  C   UNL     1      37.480 -24.423 -13.463  0.00  0.00    +0.010 C 
BRANCH  18  23
ATOM     23  O   UNL     1      34.870 -22.101 -14.534  0.00  0.00    -0.470 OA
ATOM     24  C   UNL     1      33.667 -22.845 -14.347  0.00  0.00    +0.253 C 
ENDBRANCH  18  23
ENDBRANCH  12  17
ENDBRANCH   5  11
BRANCH   1  25
ATOM     25  C   UNL     1      34.597 -17.693 -23.567  0.00  0.00    +0.122 C 
BRANCH  25  28
ATOM     26  N   UNL     1      33.394 -13.634 -22.906  0.00  0.00    -0.230 NA
ATOM     27  N   UNL     1      32.583 -13.525 -25.144  0.00  0.00    -0.343 N 
ATOM     28  C   UNL     1      34.175 -16.268 -23.336  0.00  0.00    +0.002 C 
ATOM     29  C   UNL     1      33.572 -15.557 -24.358  0.00  0.00    +0.031 C 
ATOM     30  C   UNL     1      34.394 -15.683 -22.102  0.00  0.00    +0.018 C 
ATOM     31  C   UNL     1      33.201 -14.249 -24.094  0.00  0.00    +0.125 C 
ATOM     32  C   UNL     1      33.986 -14.368 -21.938  0.00  0.00    +0.100 C 
ATOM     33  H   UNL     1      32.303 -12.592 -24.999  0.00  0.00    +0.144 HD
ATOM     34  H   UNL     1      32.433 -13.955 -26.017  0.00  0.00    +0.144 HD
ENDBRANCH  25  28
ENDBRANCH   1  25
TORSDOF 5
ENDMDL
MODEL 3
REMARK VINA RESULT:     -12.1      5.715      9.690
REMARK  Name = 11691242
REMARK  5 active torsions:
REMARK  status: ('A' for Active; 'I' for Inactive)
REMARK    1  A    between atoms: N_1  and  C_25
REMARK    2  A    between atoms: C_5  and  N_11
REMARK    3  A    between atoms: N_12  and  C_17
REMARK    4  A    between atoms: C_18  and  O_23
REMARK    5  A    between atoms: C_25  and  C_28
REMARK                            x       y       z     vdW  Elec       q    Type
REMARK                         _______ _______ _______ _____ _____    ______ ____
ROOT
ATOM      1  N   UNL     1      35.987 -22.375 -15.284  0.00  0.00    -0.282 N 
ATOM      2  C   UNL     1      35.043 -22.387 -16.286  0.00  0.00    +0.053 C 
ATOM      3  C   UNL     1      35.478 -21.497 -17.271  0.00  0.00    +0.028 C 
ATOM      4  C   UNL     1      37.000 -21.511 -15.600  0.00  0.00    +0.066 C 
ATOM      5  C   UNL     1      34.685 -21.317 -18.422  0.00  0.00    +0.053 C 
ATOM      6  C   UNL     1      36.715 -20.951 -16.824  0.00  0.00    +0.019 C 
ATOM      7  C   UNL     1      33.850 -23.109 -16.395  0.00  0.00    +0.015 C 
ATOM      8  C   UNL     1      33.488 -22.033 -18.545  0.00  0.00    +0.015 C 
ATOM      9  C   UNL     1      33.079 -22.915 -17.546  0.00  0.00    +0.003 C 
ENDROOT
BRANCH   5  11
ATOM     10  O   UNL     1      33.033 -19.589 -20.212  0.00  0.00    -0.252 OA
ATOM     11  N   UNL     1      35.073 -20.441 -19.436  0.00  0.00    -0.268 N 
ATOM     12  N   UNL     1      35.059 -18.901 -21.157  0.00  0.00    -0.266 N 
ATOM     13  C   UNL     1      34.258 -19.634 -20.267  0.00  0.00    +0.308 C 
ATOM     14  H   UNL     1      36.043 -20.373 -19.595  0.00  0.00    +0.156 HD
ATOM     15  H   UNL     1      36.030 -19.043 -21.082  0.00  0.00    +0.157 HD
BRANCH  12  17
ATOM     16 BR   UNL     1      33.966 -13.894 -22.341  0.00  0.00    -0.049 Br
ATOM     17  C   UNL     1      34.641 -17.982 -22.149  0.00  0.00    +0.086 C 
ATOM     18  C   UNL     1      34.348 -18.429 -23.428  0.00  0.00    +0.152 C 
ATOM     19  C   UNL     1      34.535 -16.642 -21.813  0.00  0.00    +0.024 C 
ATOM     20  C   UNL     1      33.938 -17.513 -24.395  0.00  0.00    +0.039 C 
ATOM     21  C   UNL     1      34.124 -15.725 -22.781  0.00  0.00    +0.036 C 
ATOM     22  C   UNL     1      33.826 -16.160 -24.072  0.00  0.00    +0.010 C 
BRANCH  18  23
ATOM     23  O   UNL     1      34.450 -19.747 -23.763  0.00  0.00    -0.470 OA
ATOM     24  C   UNL     1      34.090 -20.106 -25.096  0.00  0.00    +0.253 C 
ENDBRANCH  18  23
ENDBRANCH  12  17
ENDBRANCH   5  11
BRANCH   1  25
ATOM     25  C   UNL     1      35.929 -23.153 -14.065  0.00  0.00    +0.122 C 
BRANCH  25  28
ATOM     26  N   UNL     1      38.097 -26.830 -14.448  0.00  0.00    -0.230 NA
ATOM     27  N   UNL     1      40.082 -25.716 -13.747  0.00  0.00    -0.343 N 
ATOM     28  C   UNL     1      36.690 -24.443 -14.200  0.00  0.00    +0.002 C 
ATOM     29  C   UNL     1      38.042 -24.475 -13.909  0.00  0.00    +0.031 C 
ATOM     30  C   UNL     1      36.030 -25.586 -14.614  0.00  0.00    +0.018 C 
ATOM     31  C   UNL     1      38.698 -25.687 -14.047  0.00  0.00    +0.125 C 
ATOM     32  C   UNL     1      36.775 -26.750 -14.721  0.00  0.00    +0.100 C 
ATOM     33  H   UNL     1      40.586 -26.556 -13.831  0.00  0.00    +0.144 HD
ATOM     34  H   UNL     1      40.539 -24.894 -13.453  0.00  0.00    +0.144 HD
ENDBRANCH  25  28
ENDBRANCH   1  25
TORSDOF 5
ENDMDL
MODEL 4
REMARK VINA RESULT:     -11.9      6.737     12.282
REMARK  Name = 11691242
REMARK  5 active torsions:
REMARK  status: ('A' for Active; 'I' for Inactive)
REMARK    1  A    between atoms: N_1  and  C_25
REMARK    2  A    between atoms: C_5  and  N_11
REMARK    3  A    between atoms: N_12  and  C_17
REMARK    4  A    between atoms: C_18  and  O_23
REMARK    5  A    between atoms: C_25  and  C_28
REMARK                            x       y       z     vdW  Elec       q    Type
REMARK                         _______ _______ _______ _____ _____    ______ ____
ROOT
ATOM      1  N   UNL     1      35.212 -18.530 -21.583  0.00  0.00    -0.282 N 
ATOM      2  C   UNL     1      34.500 -19.427 -20.821  0.00  0.00    +0.053 C 
ATOM      3  C   UNL     1      35.383 -19.957 -19.877  0.00  0.00    +0.028 C 
ATOM      4  C   UNL     1      36.511 -18.474 -21.157  0.00  0.00    +0.066 C 
ATOM      5  C   UNL     1      34.904 -20.913 -18.960  0.00  0.00    +0.053 C 
ATOM      6  C   UNL     1      36.649 -19.347 -20.102  0.00  0.00    +0.019 C 
ATOM      7  C   UNL     1      33.155 -19.807 -20.892  0.00  0.00    +0.015 C 
ATOM      8  C   UNL     1      33.561 -21.303 -19.020  0.00  0.00    +0.015 C 
ATOM      9  C   UNL     1      32.701 -20.757 -19.971  0.00  0.00    +0.003 C 
ENDROOT
BRANCH   5  11
ATOM     10  O   UNL     1      34.248 -22.223 -16.357  0.00  0.00    -0.252 OA
ATOM     11  N   UNL     1      35.744 -21.475 -17.998  0.00  0.00    -0.268 N 
ATOM     12  N   UNL     1      36.554 -22.520 -16.104  0.00  0.00    -0.266 N 
ATOM     13  C   UNL     1      35.395 -22.090 -16.771  0.00  0.00    +0.308 C 
ATOM     14  H   UNL     1      36.708 -21.439 -18.198  0.00  0.00    +0.156 HD
ATOM     15  H   UNL     1      37.407 -22.342 -16.562  0.00  0.00    +0.157 HD
BRANCH  12  17
ATOM     16 BR   UNL     1      34.137 -23.792 -11.609  0.00  0.00    -0.049 Br
ATOM     17  C   UNL     1      36.646 -23.178 -14.855  0.00  0.00    +0.086 C 
ATOM     18  C   UNL     1      37.820 -23.821 -14.496  0.00  0.00    +0.152 C 
ATOM     19  C   UNL     1      35.546 -23.163 -14.011  0.00  0.00    +0.024 C 
ATOM     20  C   UNL     1      37.896 -24.465 -13.262  0.00  0.00    +0.039 C 
ATOM     21  C   UNL     1      35.623 -23.807 -12.776  0.00  0.00    +0.036 C 
ATOM     22  C   UNL     1      36.797 -24.459 -12.402  0.00  0.00    +0.010 C 
BRANCH  18  23
ATOM     23  O   UNL     1      38.904 -23.838 -15.321  0.00  0.00    -0.470 OA
ATOM     24  C   UNL     1      39.958 -24.741 -14.990  0.00  0.00    +0.253 C 
ENDBRANCH  18  23
ENDBRANCH  12  17
ENDBRANCH   5  11
BRANCH   1  25
ATOM     25  C   UNL     1      34.680 -17.752 -22.682  0.00  0.00    +0.122 C 
BRANCH  25  28
ATOM     26  N   UNL     1      33.758 -13.748 -21.466  0.00  0.00    -0.230 NA
ATOM     27  N   UNL     1      33.608 -13.103 -23.754  0.00  0.00    -0.343 N 
ATOM     28  C   UNL     1      34.357 -16.346 -22.256  0.00  0.00    +0.002 C 
ATOM     29  C   UNL     1      34.133 -15.374 -23.214  0.00  0.00    +0.031 C 
ATOM     30  C   UNL     1      34.287 -16.040 -20.909  0.00  0.00    +0.018 C 
ATOM     31  C   UNL     1      33.838 -14.096 -22.770  0.00  0.00    +0.125 C 
ATOM     32  C   UNL     1      33.985 -14.732 -20.567  0.00  0.00    +0.100 C 
ATOM     33  H   UNL     1      33.395 -12.181 -23.483  0.00  0.00    +0.144 HD
ATOM     34  H   UNL     1      33.660 -13.335 -24.710  0.00  0.00    +0.144 HD
ENDBRANCH  25  28
ENDBRANCH   1  25
TORSDOF 5
ENDMDL
MODEL 5
REMARK VINA RESULT:     -11.3      6.286      9.800
REMARK  Name = 11691242
REMARK  5 active torsions:
REMARK  status: ('A' for Active; 'I' for Inactive)
REMARK    1  A    between atoms: N_1  and  C_25
REMARK    2  A    between atoms: C_5  and  N_11
REMARK    3  A    between atoms: N_12  and  C_17
REMARK    4  A    between atoms: C_18  and  O_23
REMARK    5  A    between atoms: C_25  and  C_28
REMARK                            x       y       z     vdW  Elec       q    Type
REMARK                         _______ _______ _______ _____ _____    ______ ____
ROOT
ATOM      1  N   UNL     1      36.052 -22.246 -15.475  0.00  0.00    -0.282 N 
ATOM      2  C   UNL     1      34.981 -22.380 -16.330  0.00  0.00    +0.053 C 
ATOM      3  C   UNL     1      35.325 -21.739 -17.523  0.00  0.00    +0.028 C 
ATOM      4  C   UNL     1      37.057 -21.543 -16.083  0.00  0.00    +0.066 C 
ATOM      5  C   UNL     1      34.394 -21.728 -18.580  0.00  0.00    +0.053 C 
ATOM      6  C   UNL     1      36.637 -21.214 -17.351  0.00  0.00    +0.019 C 
ATOM      7  C   UNL     1      33.749 -23.014 -16.142  0.00  0.00    +0.015 C 
ATOM      8  C   UNL     1      33.156 -22.358 -18.406  0.00  0.00    +0.015 C 
ATOM      9  C   UNL     1      32.840 -22.991 -17.205  0.00  0.00    +0.003 C 
ENDROOT
BRANCH   5  11
ATOM     10  O   UNL     1      32.975 -19.513 -19.995  0.00  0.00    -0.252 OA
ATOM     11  N   UNL     1      34.686 -21.101 -19.792  0.00  0.00    -0.268 N 
ATOM     12  N   UNL     1      34.624 -19.719 -21.641  0.00  0.00    -0.266 N 
ATOM     13  C   UNL     1      33.987 -20.050 -20.434  0.00  0.00    +0.308 C 
ATOM     14  H   UNL     1      35.483 -21.434 -20.264  0.00  0.00    +0.156 HD
ATOM     15  H   UNL     1      35.429 -20.239 -21.861  0.00  0.00    +0.157 HD
BRANCH  12  17
ATOM     16 BR   UNL     1      31.468 -18.407 -25.639  0.00  0.00    -0.049 Br
ATOM     17  C   UNL     1      34.250 -18.727 -22.579  0.00  0.00    +0.086 C 
ATOM     18  C   UNL     1      34.900 -17.503 -22.590  0.00  0.00    +0.152 C 
ATOM     19  C   UNL     1      33.230 -19.009 -23.474  0.00  0.00    +0.024 C 
ATOM     20  C   UNL     1      34.521 -16.536 -23.520  0.00  0.00    +0.039 C 
ATOM     21  C   UNL     1      32.851 -18.041 -24.405  0.00  0.00    +0.036 C 
ATOM     22  C   UNL     1      33.496 -16.805 -24.427  0.00  0.00    +0.010 C 
BRANCH  18  23
ATOM     23  O   UNL     1      35.904 -17.222 -21.712  0.00  0.00    -0.470 OA
ATOM     24  C   UNL     1      37.076 -18.032 -21.787  0.00  0.00    +0.253 C 
ENDBRANCH  18  23
ENDBRANCH  12  17
ENDBRANCH   5  11
BRANCH   1  25
ATOM     25  C   UNL     1      36.119 -22.762 -14.125  0.00  0.00    +0.122 C 
BRANCH  25  28
ATOM     26  N   UNL     1      38.166 -26.524 -13.983  0.00  0.00    -0.230 NA
ATOM     27  N   UNL     1      40.151 -25.457 -14.757  0.00  0.00    -0.343 N 
ATOM     28  C   UNL     1      36.838 -24.082 -14.076  0.00  0.00    +0.002 C 
ATOM     29  C   UNL     1      38.170 -24.151 -14.444  0.00  0.00    +0.031 C 
ATOM     30  C   UNL     1      36.160 -25.214 -13.662  0.00  0.00    +0.018 C 
ATOM     31  C   UNL     1      38.787 -25.390 -14.380  0.00  0.00    +0.125 C 
ATOM     32  C   UNL     1      36.866 -26.406 -13.634  0.00  0.00    +0.100 C 
ATOM     33  H   UNL     1      40.628 -26.317 -14.727  0.00  0.00    +0.144 HD
ATOM     34  H   UNL     1      40.621 -24.642 -15.049  0.00  0.00    +0.144 HD
ENDBRANCH  25  28
ENDBRANCH   1  25
TORSDOF 5
ENDMDL
MODEL 6
REMARK VINA RESULT:     -10.9      1.240      1.721
REMARK  Name = 11691242
REMARK  5 active torsions:
REMARK  status: ('A' for Active; 'I' for Inactive)
REMARK    1  A    between atoms: N_1  and  C_25
REMARK    2  A    between atoms: C_5  and  N_11
REMARK    3  A    between atoms: N_12  and  C_17
REMARK    4  A    between atoms: C_18  and  O_23
REMARK    5  A    between atoms: C_25  and  C_28
REMARK                            x       y       z     vdW  Elec       q    Type
REMARK                         _______ _______ _______ _____ _____    ______ ____
ROOT
ATOM      1  N   UNL     1      34.582 -17.278 -22.063  0.00  0.00    -0.282 N 
ATOM      2  C   UNL     1      34.153 -16.396 -23.029  0.00  0.00    +0.053 C 
ATOM      3  C   UNL     1      33.988 -15.155 -22.408  0.00  0.00    +0.028 C 
ATOM      4  C   UNL     1      34.694 -16.640 -20.857  0.00  0.00    +0.066 C 
ATOM      5  C   UNL     1      33.550 -14.062 -23.181  0.00  0.00    +0.053 C 
ATOM      6  C   UNL     1      34.333 -15.325 -21.037  0.00  0.00    +0.019 C 
ATOM      7  C   UNL     1      33.900 -16.597 -24.390  0.00  0.00    +0.015 C 
ATOM      8  C   UNL     1      33.293 -14.249 -24.544  0.00  0.00    +0.015 C 
ATOM      9  C   UNL     1      33.466 -15.498 -25.138  0.00  0.00    +0.003 C 
ENDROOT
BRANCH   5  11
ATOM     10  O   UNL     1      32.674 -11.492 -24.425  0.00  0.00    -0.252 OA
ATOM     11  N   UNL     1      33.369 -12.801 -22.611  0.00  0.00    -0.268 N 
ATOM     12  N   UNL     1      32.901 -10.562 -22.291  0.00  0.00    -0.266 N 
ATOM     13  C   UNL     1      32.951 -11.601 -23.235  0.00  0.00    +0.308 C 
ATOM     14  H   UNL     1      33.556 -12.737 -21.646  0.00  0.00    +0.156 HD
ATOM     15  H   UNL     1      33.153 -10.803 -21.371  0.00  0.00    +0.157 HD
BRANCH  12  17
ATOM     16 BR   UNL     1      33.882  -6.082 -24.867  0.00  0.00    -0.049 Br
ATOM     17  C   UNL     1      32.535  -9.212 -22.502  0.00  0.00    +0.086 C 
ATOM     18  C   UNL     1      31.471  -8.666 -21.800  0.00  0.00    +0.152 C 
ATOM     19  C   UNL     1      33.256  -8.460 -23.415  0.00  0.00    +0.024 C 
ATOM     20  C   UNL     1      31.120  -7.334 -22.018  0.00  0.00    +0.039 C 
ATOM     21  C   UNL     1      32.906  -7.127 -23.632  0.00  0.00    +0.036 C 
ATOM     22  C   UNL     1      31.838  -6.564 -22.934  0.00  0.00    +0.010 C 
BRANCH  18  23
ATOM     23  O   UNL     1      30.759  -9.401 -20.900  0.00  0.00    -0.470 OA
ATOM     24  C   UNL     1      30.004 -10.498 -21.412  0.00  0.00    +0.253 C 
ENDBRANCH  18  23
ENDBRANCH  12  17
ENDBRANCH   5  11
BRANCH   1  25
ATOM     25  C   UNL     1      34.873 -18.680 -22.275  0.00  0.00    +0.122 C 
BRANCH  25  28
ATOM     26  N   UNL     1      33.520 -21.071 -18.986  0.00  0.00    -0.230 NA
ATOM     27  N   UNL     1      35.784 -21.467 -18.361  0.00  0.00    -0.343 N 
ATOM     28  C   UNL     1      34.399 -19.520 -21.121  0.00  0.00    +0.002 C 
ATOM     29  C   UNL     1      35.323 -20.106 -20.275  0.00  0.00    +0.031 C 
ATOM     30  C   UNL     1      33.042 -19.696 -20.917  0.00  0.00    +0.018 C 
ATOM     31  C   UNL     1      34.835 -20.869 -19.226  0.00  0.00    +0.125 C 
ATOM     32  C   UNL     1      32.655 -20.477 -19.840  0.00  0.00    +0.100 C 
ATOM     33  H   UNL     1      35.481 -22.017 -17.603  0.00  0.00    +0.144 HD
ATOM     34  H   UNL     1      36.747 -21.331 -18.518  0.00  0.00    +0.144 HD
ENDBRANCH  25  28
ENDBRANCH   1  25
TORSDOF 5
ENDMDL
MODEL 7
REMARK VINA RESULT:     -10.7      1.527      2.142
REMARK  Name = 11691242
REMARK  5 active torsions:
REMARK  status: ('A' for Active; 'I' for Inactive)
REMARK    1  A    between atoms: N_1  and  C_25
REMARK    2  A    between atoms: C_5  and  N_11
REMARK    3  A    between atoms: N_12  and  C_17
REMARK    4  A    between atoms: C_18  and  O_23
REMARK    5  A    between atoms: C_25  and  C_28
REMARK                            x       y       z     vdW  Elec       q    Type
REMARK                         _______ _______ _______ _____ _____    ______ ____
ROOT
ATOM      1  N   UNL     1      34.583 -16.114 -22.391  0.00  0.00    -0.282 N 
ATOM      2  C   UNL     1      34.001 -15.318 -23.351  0.00  0.00    +0.053 C 
ATOM      3  C   UNL     1      33.399 -14.246 -22.688  0.00  0.00    +0.028 C 
ATOM      4  C   UNL     1      34.370 -15.584 -21.146  0.00  0.00    +0.066 C 
ATOM      5  C   UNL     1      32.724 -13.271 -23.447  0.00  0.00    +0.053 C 
ATOM      6  C   UNL     1      33.640 -14.428 -21.297  0.00  0.00    +0.019 C 
ATOM      7  C   UNL     1      33.961 -15.463 -24.742  0.00  0.00    +0.015 C 
ATOM      8  C   UNL     1      32.676 -13.403 -24.840  0.00  0.00    +0.015 C 
ATOM      9  C   UNL     1      33.286 -14.482 -25.476  0.00  0.00    +0.003 C 
ENDROOT
BRANCH   5  11
ATOM     10  O   UNL     1      33.334 -10.353 -23.637  0.00  0.00    -0.252 OA
ATOM     11  N   UNL     1      32.105 -12.180 -22.835  0.00  0.00    -0.268 N 
ATOM     12  N   UNL     1      31.546 -10.043 -22.162  0.00  0.00    -0.266 N 
ATOM     13  C   UNL     1      32.423 -10.805 -22.949  0.00  0.00    +0.308 C 
ATOM     14  H   UNL     1      31.347 -12.394 -22.245  0.00  0.00    +0.156 HD
ATOM     15  H   UNL     1      30.864 -10.548 -21.663  0.00  0.00    +0.157 HD
BRANCH  12  17
ATOM     16 BR   UNL     1      32.170  -5.983 -18.876  0.00  0.00    -0.049 Br
ATOM     17  C   UNL     1      31.521  -8.638 -21.996  0.00  0.00    +0.086 C 
ATOM     18  C   UNL     1      31.214  -7.819 -23.072  0.00  0.00    +0.152 C 
ATOM     19  C   UNL     1      31.809  -8.108 -20.749  0.00  0.00    +0.024 C 
ATOM     20  C   UNL     1      31.194  -6.437 -22.895  0.00  0.00    +0.039 C 
ATOM     21  C   UNL     1      31.788  -6.725 -20.571  0.00  0.00    +0.036 C 
ATOM     22  C   UNL     1      31.481  -5.889 -21.644  0.00  0.00    +0.010 C 
BRANCH  18  23
ATOM     23  O   UNL     1      30.929  -8.335 -24.301  0.00  0.00    -0.470 OA
ATOM     24  C   UNL     1      30.685  -7.404 -25.355  0.00  0.00    +0.253 C 
ENDBRANCH  18  23
ENDBRANCH  12  17
ENDBRANCH   5  11
BRANCH   1  25
ATOM     25  C   UNL     1      35.313 -17.338 -22.642  0.00  0.00    +0.122 C 
BRANCH  25  28
ATOM     26  N   UNL     1      34.501 -20.292 -19.645  0.00  0.00    -0.230 NA
ATOM     27  N   UNL     1      32.209 -20.298 -20.292  0.00  0.00    -0.343 N 
ATOM     28  C   UNL     1      35.027 -18.374 -21.590  0.00  0.00    +0.002 C 
ATOM     29  C   UNL     1      33.739 -18.854 -21.432  0.00  0.00    +0.031 C 
ATOM     30  C   UNL     1      36.057 -18.838 -20.791  0.00  0.00    +0.018 C 
ATOM     31  C   UNL     1      33.529 -19.808 -20.450  0.00  0.00    +0.125 C 
ATOM     32  C   UNL     1      35.743 -19.793 -19.837  0.00  0.00    +0.100 C 
ATOM     33  H   UNL     1      32.015 -20.977 -19.607  0.00  0.00    +0.144 HD
ATOM     34  H   UNL     1      31.486 -19.959 -20.869  0.00  0.00    +0.144 HD
ENDBRANCH  25  28
ENDBRANCH   1  25
TORSDOF 5
ENDMDL
MODEL 8
REMARK VINA RESULT:     -10.5      5.237      9.235
REMARK  Name = 11691242
REMARK  5 active torsions:
REMARK  status: ('A' for Active; 'I' for Inactive)
REMARK    1  A    between atoms: N_1  and  C_25
REMARK    2  A    between atoms: C_5  and  N_11
REMARK    3  A    between atoms: N_12  and  C_17
REMARK    4  A    between atoms: C_18  and  O_23
REMARK    5  A    between atoms: C_25  and  C_28
REMARK                            x       y       z     vdW  Elec       q    Type
REMARK                         _______ _______ _______ _____ _____    ______ ____
ROOT
ATOM      1  N   UNL     1      35.457 -22.927 -15.922  0.00  0.00    -0.282 N 
ATOM      2  C   UNL     1      34.586 -22.696 -16.962  0.00  0.00    +0.053 C 
ATOM      3  C   UNL     1      35.092 -21.617 -17.691  0.00  0.00    +0.028 C 
ATOM      4  C   UNL     1      36.494 -22.034 -15.968  0.00  0.00    +0.066 C 
ATOM      5  C   UNL     1      34.382 -21.169 -18.822  0.00  0.00    +0.053 C 
ATOM      6  C   UNL     1      36.296 -21.209 -17.051  0.00  0.00    +0.019 C 
ATOM      7  C   UNL     1      33.400 -23.352 -17.310  0.00  0.00    +0.015 C 
ATOM      8  C   UNL     1      33.193 -21.816 -19.182  0.00  0.00    +0.015 C 
ATOM      9  C   UNL     1      32.712 -22.890 -18.437  0.00  0.00    +0.003 C 
ENDROOT
BRANCH   5  11
ATOM     10  O   UNL     1      32.891 -19.287 -20.600  0.00  0.00    -0.252 OA
ATOM     11  N   UNL     1      34.843 -20.096 -19.585  0.00  0.00    -0.268 N 
ATOM     12  N   UNL     1      34.961 -18.278 -21.005  0.00  0.00    -0.266 N 
ATOM     13  C   UNL     1      34.103 -19.222 -20.419  0.00  0.00    +0.308 C 
ATOM     14  H   UNL     1      35.811 -19.922 -19.538  0.00  0.00    +0.156 HD
ATOM     15  H   UNL     1      35.913 -18.352 -20.765  0.00  0.00    +0.157 HD
BRANCH  12  17
ATOM     16 BR   UNL     1      33.803 -13.180 -21.581  0.00  0.00    -0.049 Br
ATOM     17  C   UNL     1      34.626 -17.233 -21.898  0.00  0.00    +0.086 C 
ATOM     18  C   UNL     1      34.508 -17.493 -23.255  0.00  0.00    +0.152 C 
ATOM     19  C   UNL     1      34.423 -15.961 -21.388  0.00  0.00    +0.024 C 
ATOM     20  C   UNL     1      34.178 -16.453 -24.123  0.00  0.00    +0.039 C 
ATOM     21  C   UNL     1      34.092 -14.921 -22.257  0.00  0.00    +0.036 C 
ATOM     22  C   UNL     1      33.969 -15.167 -23.624  0.00  0.00    +0.010 C 
BRANCH  18  23
ATOM     23  O   UNL     1      34.706 -18.742 -23.761  0.00  0.00    -0.470 OA
ATOM     24  C   UNL     1      33.626 -19.326 -24.488  0.00  0.00    +0.253 C 
ENDBRANCH  18  23
ENDBRANCH  12  17
ENDBRANCH   5  11
BRANCH   1  25
ATOM     25  C   UNL     1      35.312 -23.957 -14.916  0.00  0.00    +0.122 C 
BRANCH  25  28
ATOM     26  N   UNL     1      38.289 -23.589 -11.855  0.00  0.00    -0.230 NA
ATOM     27  N   UNL     1      36.684 -22.541 -10.440  0.00  0.00    -0.343 N 
ATOM     28  C   UNL     1      36.357 -23.826 -13.841  0.00  0.00    +0.002 C 
ATOM     29  C   UNL     1      36.028 -23.238 -12.633  0.00  0.00    +0.031 C 
ATOM     30  C   UNL     1      37.636 -24.298 -14.072  0.00  0.00    +0.018 C 
ATOM     31  C   UNL     1      37.025 -23.144 -11.676  0.00  0.00    +0.125 C 
ATOM     32  C   UNL     1      38.562 -24.156 -13.051  0.00  0.00    +0.100 C 
ATOM     33  H   UNL     1      37.362 -22.454  -9.732  0.00  0.00    +0.144 HD
ATOM     34  H   UNL     1      35.769 -22.211 -10.289  0.00  0.00    +0.144 HD
ENDBRANCH  25  28
ENDBRANCH   1  25
TORSDOF 5
ENDMDL
MODEL 9
REMARK VINA RESULT:     -10.5      2.764      5.105
REMARK  Name = 11691242
REMARK  5 active torsions:
REMARK  status: ('A' for Active; 'I' for Inactive)
REMARK    1  A    between atoms: N_1  and  C_25
REMARK    2  A    between atoms: C_5  and  N_11
REMARK    3  A    between atoms: N_12  and  C_17
REMARK    4  A    between atoms: C_18  and  O_23
REMARK    5  A    between atoms: C_25  and  C_28
REMARK                            x       y       z     vdW  Elec       q    Type
REMARK                         _______ _______ _______ _____ _____    ______ ____
ROOT
ATOM      1  N   UNL     1      33.246 -12.662 -22.065  0.00  0.00    -0.282 N 
ATOM      2  C   UNL     1      32.438 -11.731 -21.453  0.00  0.00    +0.053 C 
ATOM      3  C   UNL     1      32.113 -10.773 -22.416  0.00  0.00    +0.028 C 
ATOM      4  C   UNL     1      33.444 -12.326 -23.377  0.00  0.00    +0.066 C 
ATOM      5  C   UNL     1      31.285  -9.694 -22.048  0.00  0.00    +0.053 C 
ATOM      6  C   UNL     1      32.756 -11.161 -23.625  0.00  0.00    +0.019 C 
ATOM      7  C   UNL     1      31.973 -11.665 -20.135  0.00  0.00    +0.015 C 
ATOM      8  C   UNL     1      30.813  -9.614 -20.732  0.00  0.00    +0.015 C 
ATOM      9  C   UNL     1      31.152 -10.586 -19.792  0.00  0.00    +0.003 C 
ENDROOT
BRANCH   5  11
ATOM     10  O   UNL     1      32.714  -7.195 -22.845  0.00  0.00    -0.252 OA
ATOM     11  N   UNL     1      30.930  -8.709 -22.970  0.00  0.00    -0.268 N 
ATOM     12  N   UNL     1      30.919  -6.818 -24.296  0.00  0.00    -0.266 N 
ATOM     13  C   UNL     1      31.636  -7.534 -23.323  0.00  0.00    +0.308 C 
ATOM     14  H   UNL     1      30.075  -8.850 -23.438  0.00  0.00    +0.156 HD
ATOM     15  H   UNL     1      30.066  -7.216 -24.583  0.00  0.00    +0.157 HD
BRANCH  12  17
ATOM     16 BR   UNL     1      33.485  -4.456 -28.233  0.00  0.00    -0.049 Br
ATOM     17  C   UNL     1      31.273  -5.596 -24.914  0.00  0.00    +0.086 C 
ATOM     18  C   UNL     1      30.838  -4.395 -24.375  0.00  0.00    +0.152 C 
ATOM     19  C   UNL     1      32.056  -5.630 -26.057  0.00  0.00    +0.024 C 
ATOM     20  C   UNL     1      31.194  -3.199 -24.995  0.00  0.00    +0.039 C 
ATOM     21  C   UNL     1      32.413  -4.432 -26.678  0.00  0.00    +0.036 C 
ATOM     22  C   UNL     1      31.981  -3.217 -26.147  0.00  0.00    +0.010 C 
BRANCH  18  23
ATOM     23  O   UNL     1      30.069  -4.357 -23.250  0.00  0.00    -0.470 OA
ATOM     24  C   UNL     1      30.725  -4.022 -22.028  0.00  0.00    +0.253 C 
ENDBRANCH  18  23
ENDBRANCH  12  17
ENDBRANCH   5  11
BRANCH   1  25
ATOM     25  C   UNL     1      33.817 -13.829 -21.427  0.00  0.00    +0.122 C 
BRANCH  25  28
ATOM     26  N   UNL     1      34.185 -17.093 -24.179  0.00  0.00    -0.230 NA
ATOM     27  N   UNL     1      35.299 -18.365 -22.501  0.00  0.00    -0.343 N 
ATOM     28  C   UNL     1      33.947 -14.975 -22.393  0.00  0.00    +0.002 C 
ATOM     29  C   UNL     1      34.569 -16.144 -21.990  0.00  0.00    +0.031 C 
ATOM     30  C   UNL     1      33.443 -14.849 -23.674  0.00  0.00    +0.018 C 
ATOM     31  C   UNL     1      34.662 -17.169 -22.917  0.00  0.00    +0.125 C 
ATOM     32  C   UNL     1      33.586 -15.932 -24.526  0.00  0.00    +0.100 C 
ATOM     33  H   UNL     1      35.386 -19.119 -23.127  0.00  0.00    +0.144 HD
ATOM     34  H   UNL     1      35.652 -18.441 -21.584  0.00  0.00    +0.144 HD
ENDBRANCH  25  28
ENDBRANCH   1  25
TORSDOF 5
ENDMDL
