MODEL 1
REMARK VINA RESULT:     -10.6      0.000      0.000
REMARK  Name = 5744
REMARK  6 active torsions:
REMARK  status: ('A' for Active; 'I' for Inactive)
REMARK    1  A    between atoms: C_6  and  O_21
REMARK    2  A    between atoms: C_6  and  C_26
REMARK    3  A    between atoms: C_9  and  O_23
REMARK    4  A    between atoms: C_26  and  C_27
REMARK    5  A    between atoms: C_27  and  O_28
REMARK    6  A    between atoms: O_28  and  C_30
REMARK                            x       y       z     vdW  Elec       q    Type
REMARK                         _______ _______ _______ _____ _____    ______ ____
ROOT
ATOM      1  O   UNL     1      39.758 -25.719 -13.877  0.00  0.00    -0.291 OA
ATOM      2  C   UNL     1      31.717 -23.213 -14.536  0.00  0.00    +0.031 C 
ATOM      3  C   UNL     1      32.824 -23.137 -15.610  0.00  0.00    +0.003 C 
ATOM      4  C   UNL     1      34.213 -22.810 -15.039  0.00  0.00    +0.003 C 
ATOM      5  C   UNL     1      34.612 -23.924 -14.017  0.00  0.00    +0.030 C 
ATOM      6  C   UNL     1      30.491 -23.481 -15.453  0.00  0.00    +0.143 C 
ATOM      7  C   UNL     1      32.095 -24.348 -13.563  0.00  0.00    +0.032 C 
ATOM      8  C   UNL     1      36.078 -23.741 -13.447  0.00  0.00    +0.018 C 
ATOM      9  C   UNL     1      33.502 -24.178 -12.950  0.00  0.00    +0.111 C 
ATOM     10  C   UNL     1      32.227 -22.213 -16.669  0.00  0.00    +0.003 C 
ATOM     11  C   UNL     1      30.725 -22.567 -16.677  0.00  0.00    +0.034 C 
ATOM     12  C   UNL     1      35.249 -22.727 -16.170  0.00  0.00    +0.004 C 
ATOM     13  C   UNL     1      31.512 -21.878 -13.770  0.00  0.00    +0.003 C 
ATOM     14  C   UNL     1      37.050 -23.528 -14.616  0.00  0.00    -0.042 C 
ATOM     15  C   UNL     1      36.653 -22.488 -15.635  0.00  0.00    +0.022 C 
ATOM     16  C   UNL     1      36.457 -25.034 -12.669  0.00  0.00    +0.012 C 
ATOM     17  C   UNL     1      36.228 -22.526 -12.504  0.00  0.00    +0.004 C 
ATOM     18  C   UNL     1      37.949 -25.171 -12.408  0.00  0.00    +0.069 C 
ATOM     19  C   UNL     1      38.219 -24.176 -14.753  0.00  0.00    +0.029 C 
ATOM     20  C   UNL     1      38.712 -25.097 -13.703  0.00  0.00    +0.173 C 
ENDROOT
BRANCH   6  21
ATOM     21  O   UNL     1      30.453 -24.840 -15.880  0.00  0.00    -0.380 OA
ATOM     22  H   UNL     1      30.273 -25.413 -15.118  0.00  0.00    +0.211 HD
ENDBRANCH   6  21
BRANCH   9  23
ATOM     23  O   UNL     1      33.471 -23.143 -11.978  0.00  0.00    -0.384 OA
ATOM     24  H   UNL     1      32.902 -22.422 -12.291  0.00  0.00    +0.210 HD
ENDBRANCH   9  23
BRANCH   6  26
ATOM     25  O   UNL     1      28.718 -24.061 -13.969  0.00  0.00    -0.290 OA
ATOM     26  C   UNL     1      29.170 -23.253 -14.779  0.00  0.00    +0.218 C 
BRANCH  26  27
ATOM     27  C   UNL     1      28.435 -21.984 -15.155  0.00  0.00    +0.274 C 
BRANCH  27  28
ATOM     28  O   UNL     1      27.095 -22.267 -15.499  0.00  0.00    -0.440 OA
BRANCH  28  30
ATOM     29  O   UNL     1      27.247 -23.151 -17.629  0.00  0.00    -0.250 OA
ATOM     30  C   UNL     1      26.813 -22.321 -16.841  0.00  0.00    +0.318 C 
ATOM     31  C   UNL     1      25.886 -21.208 -17.221  0.00  0.00    +0.121 C 
ENDBRANCH  28  30
ENDBRANCH  27  28
ENDBRANCH  26  27
ENDBRANCH   6  26
TORSDOF 6
ENDMDL
MODEL 2
REMARK VINA RESULT:      -9.1      1.589      8.181
REMARK  Name = 5744
REMARK  6 active torsions:
REMARK  status: ('A' for Active; 'I' for Inactive)
REMARK    1  A    between atoms: C_6  and  O_21
REMARK    2  A    between atoms: C_6  and  C_26
REMARK    3  A    between atoms: C_9  and  O_23
REMARK    4  A    between atoms: C_26  and  C_27
REMARK    5  A    between atoms: C_27  and  O_28
REMARK    6  A    between atoms: O_28  and  C_30
REMARK                            x       y       z     vdW  Elec       q    Type
REMARK                         _______ _______ _______ _____ _____    ______ ____
ROOT
ATOM      1  O   UNL     1      27.359 -21.317 -15.970  0.00  0.00    -0.291 OA
ATOM      2  C   UNL     1      35.069 -23.768 -13.538  0.00  0.00    +0.031 C 
ATOM      3  C   UNL     1      34.698 -22.832 -14.709  0.00  0.00    +0.003 C 
ATOM      4  C   UNL     1      33.407 -23.239 -15.436  0.00  0.00    +0.003 C 
ATOM      5  C   UNL     1      32.226 -23.220 -14.413  0.00  0.00    +0.030 C 
ATOM      6  C   UNL     1      36.410 -23.114 -13.104  0.00  0.00    +0.143 C 
ATOM      7  C   UNL     1      33.920 -23.701 -12.511  0.00  0.00    +0.032 C 
ATOM      8  C   UNL     1      30.824 -23.520 -15.085  0.00  0.00    +0.018 C 
ATOM      9  C   UNL     1      32.542 -24.036 -13.122  0.00  0.00    +0.111 C 
ATOM     10  C   UNL     1      35.995 -22.735 -15.508  0.00  0.00    +0.003 C 
ATOM     11  C   UNL     1      37.104 -22.749 -14.435  0.00  0.00    +0.034 C 
ATOM     12  C   UNL     1      33.123 -22.276 -16.599  0.00  0.00    +0.004 C 
ATOM     13  C   UNL     1      35.326 -25.234 -13.982  0.00  0.00    +0.003 C 
ATOM     14  C   UNL     1      30.653 -22.623 -16.318  0.00  0.00    -0.042 C 
ATOM     15  C   UNL     1      31.807 -22.598 -17.291  0.00  0.00    +0.022 C 
ATOM     16  C   UNL     1      29.712 -23.206 -14.042  0.00  0.00    +0.012 C 
ATOM     17  C   UNL     1      30.666 -24.983 -15.560  0.00  0.00    +0.004 C 
ATOM     18  C   UNL     1      28.326 -23.066 -14.653  0.00  0.00    +0.069 C 
ATOM     19  C   UNL     1      29.546 -21.911 -16.586  0.00  0.00    +0.029 C 
ATOM     20  C   UNL     1      28.339 -22.020 -15.735  0.00  0.00    +0.173 C 
ENDROOT
BRANCH   6  21
ATOM     21  O   UNL     1      36.184 -21.926 -12.350  0.00  0.00    -0.380 OA
ATOM     22  H   UNL     1      37.019 -21.635 -11.948  0.00  0.00    +0.211 HD
ENDBRANCH   6  21
BRANCH   9  23
ATOM     23  O   UNL     1      32.458 -25.434 -13.359  0.00  0.00    -0.384 OA
ATOM     24  H   UNL     1      32.724 -25.624 -14.272  0.00  0.00    +0.210 HD
ENDBRANCH   9  23
BRANCH   6  26
ATOM     25  O   UNL     1      36.787 -24.466 -11.177  0.00  0.00    -0.290 OA
ATOM     26  C   UNL     1      37.247 -23.983 -12.211  0.00  0.00    +0.218 C 
BRANCH  26  27
ATOM     27  C   UNL     1      38.674 -24.222 -12.654  0.00  0.00    +0.274 C 
BRANCH  27  28
ATOM     28  O   UNL     1      38.845 -25.556 -13.086  0.00  0.00    -0.440 OA
BRANCH  28  30
ATOM     29  O   UNL     1      40.858 -26.536 -13.656  0.00  0.00    -0.250 OA
ATOM     30  C   UNL     1      39.918 -25.794 -13.907  0.00  0.00    +0.318 C 
ATOM     31  C   UNL     1      39.784 -25.009 -15.176  0.00  0.00    +0.121 C 
ENDBRANCH  28  30
ENDBRANCH  27  28
ENDBRANCH  26  27
ENDBRANCH   6  26
TORSDOF 6
ENDMDL
MODEL 3
REMARK VINA RESULT:      -8.1      1.662      7.666
REMARK  Name = 5744
REMARK  6 active torsions:
REMARK  status: ('A' for Active; 'I' for Inactive)
REMARK    1  A    between atoms: C_6  and  O_21
REMARK    2  A    between atoms: C_6  and  C_26
REMARK    3  A    between atoms: C_9  and  O_23
REMARK    4  A    between atoms: C_26  and  C_27
REMARK    5  A    between atoms: C_27  and  O_28
REMARK    6  A    between atoms: O_28  and  C_30
REMARK                            x       y       z     vdW  Elec       q    Type
REMARK                         _______ _______ _______ _____ _____    ______ ____
ROOT
ATOM      1  O   UNL     1      27.005 -21.443 -15.411  0.00  0.00    -0.291 OA
ATOM      2  C   UNL     1      35.083 -23.622 -14.239  0.00  0.00    +0.031 C 
ATOM      3  C   UNL     1      34.508 -22.646 -15.288  0.00  0.00    +0.003 C 
ATOM      4  C   UNL     1      33.145 -23.079 -15.850  0.00  0.00    +0.003 C 
ATOM      5  C   UNL     1      32.123 -23.174 -14.671  0.00  0.00    +0.030 C 
ATOM      6  C   UNL     1      36.443 -22.925 -13.960  0.00  0.00    +0.143 C 
ATOM      7  C   UNL     1      34.092 -23.669 -13.059  0.00  0.00    +0.032 C 
ATOM      8  C   UNL     1      30.653 -23.510 -15.156  0.00  0.00    +0.018 C 
ATOM      9  C   UNL     1      32.656 -24.041 -13.488  0.00  0.00    +0.111 C 
ATOM     10  C   UNL     1      35.671 -22.439 -16.255  0.00  0.00    +0.003 C 
ATOM     11  C   UNL     1      36.922 -22.454 -15.351  0.00  0.00    +0.034 C 
ATOM     12  C   UNL     1      32.656 -22.071 -16.901  0.00  0.00    +0.004 C 
ATOM     13  C   UNL     1      35.336 -25.048 -14.802  0.00  0.00    +0.003 C 
ATOM     14  C   UNL     1      30.269 -22.559 -16.297  0.00  0.00    -0.042 C 
ATOM     15  C   UNL     1      31.270 -22.422 -17.419  0.00  0.00    +0.022 C 
ATOM     16  C   UNL     1      29.690 -23.309 -13.950  0.00  0.00    +0.012 C 
ATOM     17  C   UNL     1      30.493 -24.951 -15.691  0.00  0.00    +0.004 C 
ATOM     18  C   UNL     1      28.226 -23.208 -14.351  0.00  0.00    +0.069 C 
ATOM     19  C   UNL     1      29.106 -21.890 -16.363  0.00  0.00    +0.029 C 
ATOM     20  C   UNL     1      28.039 -22.106 -15.359  0.00  0.00    +0.173 C 
ENDROOT
BRANCH   6  21
ATOM     21  O   UNL     1      36.277 -21.791 -13.111  0.00  0.00    -0.380 OA
ATOM     22  H   UNL     1      37.123 -21.325 -13.026  0.00  0.00    +0.211 HD
ENDBRANCH   6  21
BRANCH   9  23
ATOM     23  O   UNL     1      32.600 -25.427 -13.795  0.00  0.00    -0.384 OA
ATOM     24  H   UNL     1      33.498 -25.792 -13.808  0.00  0.00    +0.210 HD
ENDBRANCH   9  23
BRANCH   6  26
ATOM     25  O   UNL     1      38.176 -24.559 -13.866  0.00  0.00    -0.290 OA
ATOM     26  C   UNL     1      37.436 -23.795 -13.247  0.00  0.00    +0.218 C 
BRANCH  26  27
ATOM     27  C   UNL     1      37.468 -23.680 -11.738  0.00  0.00    +0.274 C 
BRANCH  27  28
ATOM     28  O   UNL     1      36.685 -24.694 -11.144  0.00  0.00    -0.440 OA
BRANCH  28  30
ATOM     29  O   UNL     1      34.832 -24.981  -9.793  0.00  0.00    -0.250 OA
ATOM     30  C   UNL     1      35.703 -24.274 -10.282  0.00  0.00    +0.318 C 
ATOM     31  C   UNL     1      35.843 -22.807 -10.013  0.00  0.00    +0.121 C 
ENDBRANCH  28  30
ENDBRANCH  27  28
ENDBRANCH  26  27
ENDBRANCH   6  26
TORSDOF 6
ENDMDL
MODEL 4
REMARK VINA RESULT:      -8.0     14.033     16.738
REMARK  Name = 5744
REMARK  6 active torsions:
REMARK  status: ('A' for Active; 'I' for Inactive)
REMARK    1  A    between atoms: C_6  and  O_21
REMARK    2  A    between atoms: C_6  and  C_26
REMARK    3  A    between atoms: C_9  and  O_23
REMARK    4  A    between atoms: C_26  and  C_27
REMARK    5  A    between atoms: C_27  and  O_28
REMARK    6  A    between atoms: O_28  and  C_30
REMARK                            x       y       z     vdW  Elec       q    Type
REMARK                         _______ _______ _______ _____ _____    ______ ____
ROOT
ATOM      1  O   UNL     1      29.687  -3.377 -22.497  0.00  0.00    -0.291 OA
ATOM      2  C   UNL     1      32.608 -11.300 -22.251  0.00  0.00    +0.031 C 
ATOM      3  C   UNL     1      31.730 -10.581 -21.203  0.00  0.00    +0.003 C 
ATOM      4  C   UNL     1      32.077  -9.095 -21.027  0.00  0.00    +0.003 C 
ATOM      5  C   UNL     1      31.882  -8.367 -22.397  0.00  0.00    +0.030 C 
ATOM      6  C   UNL     1      32.041 -12.741 -22.113  0.00  0.00    +0.143 C 
ATOM      7  C   UNL     1      32.369 -10.607 -23.608  0.00  0.00    +0.032 C 
ATOM      8  C   UNL     1      32.109  -6.803 -22.302  0.00  0.00    +0.018 C 
ATOM      9  C   UNL     1      32.627  -9.085 -23.565  0.00  0.00    +0.111 C 
ATOM     10  C   UNL     1      31.802 -11.503 -19.989  0.00  0.00    +0.003 C 
ATOM     11  C   UNL     1      31.834 -12.923 -20.592  0.00  0.00    +0.034 C 
ATOM     12  C   UNL     1      31.179  -8.461 -19.953  0.00  0.00    +0.004 C 
ATOM     13  C   UNL     1      34.119 -11.299 -21.891  0.00  0.00    +0.003 C 
ATOM     14  C   UNL     1      31.293  -6.246 -21.128  0.00  0.00    -0.042 C 
ATOM     15  C   UNL     1      31.436  -6.968 -19.811  0.00  0.00    +0.022 C 
ATOM     16  C   UNL     1      31.626  -6.163 -23.636  0.00  0.00    +0.012 C 
ATOM     17  C   UNL     1      33.584  -6.405 -22.060  0.00  0.00    +0.004 C 
ATOM     18  C   UNL     1      31.413  -4.660 -23.548  0.00  0.00    +0.069 C 
ATOM     19  C   UNL     1      30.509  -5.157 -21.204  0.00  0.00    +0.029 C 
ATOM     20  C   UNL     1      30.453  -4.336 -22.435  0.00  0.00    +0.173 C 
ENDROOT
BRANCH   6  21
ATOM     21  O   UNL     1      30.787 -12.868 -22.777  0.00  0.00    -0.380 OA
ATOM     22  H   UNL     1      30.549 -12.019 -23.183  0.00  0.00    +0.211 HD
ENDBRANCH   6  21
BRANCH   9  23
ATOM     23  O   UNL     1      34.027  -8.846 -23.511  0.00  0.00    -0.384 OA
ATOM     24  H   UNL     1      34.209  -8.127 -22.886  0.00  0.00    +0.210 HD
ENDBRANCH   9  23
BRANCH   6  26
ATOM     25  O   UNL     1      32.886 -14.018 -23.939  0.00  0.00    -0.290 OA
ATOM     26  C   UNL     1      32.911 -13.796 -22.729  0.00  0.00    +0.218 C 
BRANCH  26  27
ATOM     27  C   UNL     1      33.810 -14.562 -21.783  0.00  0.00    +0.274 C 
BRANCH  27  28
ATOM     28  O   UNL     1      34.538 -15.552 -22.478  0.00  0.00    -0.440 OA
BRANCH  28  30
ATOM     29  O   UNL     1      35.009 -16.819 -20.604  0.00  0.00    -0.250 OA
ATOM     30  C   UNL     1      34.768 -16.722 -21.800  0.00  0.00    +0.318 C 
ATOM     31  C   UNL     1      34.683 -17.889 -22.735  0.00  0.00    +0.121 C 
ENDBRANCH  28  30
ENDBRANCH  27  28
ENDBRANCH  26  27
ENDBRANCH   6  26
TORSDOF 6
ENDMDL
MODEL 5
REMARK VINA RESULT:      -7.7     18.543     20.831
REMARK  Name = 5744
REMARK  6 active torsions:
REMARK  status: ('A' for Active; 'I' for Inactive)
REMARK    1  A    between atoms: C_6  and  O_21
REMARK    2  A    between atoms: C_6  and  C_26
REMARK    3  A    between atoms: C_9  and  O_23
REMARK    4  A    between atoms: C_26  and  C_27
REMARK    5  A    between atoms: C_27  and  O_28
REMARK    6  A    between atoms: O_28  and  C_30
REMARK                            x       y       z     vdW  Elec       q    Type
REMARK                         _______ _______ _______ _____ _____    ______ ____
ROOT
ATOM      1  O   UNL     1      32.435  -1.797 -30.000  0.00  0.00    -0.291 OA
ATOM      2  C   UNL     1      32.110  -6.385 -22.914  0.00  0.00    +0.031 C 
ATOM      3  C   UNL     1      31.593  -4.946 -23.136  0.00  0.00    +0.003 C 
ATOM      4  C   UNL     1      32.484  -4.109 -24.066  0.00  0.00    +0.003 C 
ATOM      5  C   UNL     1      32.558  -4.814 -25.460  0.00  0.00    +0.030 C 
ATOM      6  C   UNL     1      31.039  -6.888 -21.907  0.00  0.00    +0.143 C 
ATOM      7  C   UNL     1      32.130  -7.086 -24.287  0.00  0.00    +0.032 C 
ATOM      8  C   UNL     1      33.367  -3.975 -26.532  0.00  0.00    +0.018 C 
ATOM      9  C   UNL     1      32.951  -6.319 -25.347  0.00  0.00    +0.111 C 
ATOM     10  C   UNL     1      31.329  -4.443 -21.719  0.00  0.00    +0.003 C 
ATOM     11  C   UNL     1      30.805  -5.684 -20.967  0.00  0.00    +0.034 C 
ATOM     12  C   UNL     1      31.917  -2.689 -24.214  0.00  0.00    +0.004 C 
ATOM     13  C   UNL     1      33.513  -6.437 -22.249  0.00  0.00    +0.003 C 
ATOM     14  C   UNL     1      32.847  -2.531 -26.540  0.00  0.00    -0.042 C 
ATOM     15  C   UNL     1      32.727  -1.856 -25.196  0.00  0.00    +0.022 C 
ATOM     16  C   UNL     1      33.141  -4.629 -27.926  0.00  0.00    +0.012 C 
ATOM     17  C   UNL     1      34.885  -3.910 -26.249  0.00  0.00    +0.004 C 
ATOM     18  C   UNL     1      33.520  -3.727 -29.090  0.00  0.00    +0.069 C 
ATOM     19  C   UNL     1      32.537  -1.847 -27.654  0.00  0.00    +0.029 C 
ATOM     20  C   UNL     1      32.777  -2.421 -28.998  0.00  0.00    +0.173 C 
ENDROOT
BRANCH   6  21
ATOM     21  O   UNL     1      29.819  -7.211 -22.570  0.00  0.00    -0.380 OA
ATOM     22  H   UNL     1      29.202  -6.466 -22.491  0.00  0.00    +0.211 HD
ENDBRANCH   6  21
BRANCH   9  23
ATOM     23  O   UNL     1      34.336  -6.474 -25.072  0.00  0.00    -0.384 OA
ATOM     24  H   UNL     1      34.846  -6.324 -25.884  0.00  0.00    +0.210 HD
ENDBRANCH   9  23
BRANCH   6  26
ATOM     25  O   UNL     1      31.927  -8.107 -20.061  0.00  0.00    -0.290 OA
ATOM     26  C   UNL     1      31.428  -8.144 -21.185  0.00  0.00    +0.218 C 
BRANCH  26  27
ATOM     27  C   UNL     1      31.176  -9.444 -21.918  0.00  0.00    +0.274 C 
BRANCH  27  28
ATOM     28  O   UNL     1      31.352 -10.547 -21.053  0.00  0.00    -0.440 OA
BRANCH  28  30
ATOM     29  O   UNL     1      32.311 -11.773 -22.761  0.00  0.00    -0.250 OA
ATOM     30  C   UNL     1      31.904 -11.672 -21.611  0.00  0.00    +0.318 C 
ATOM     31  C   UNL     1      31.945 -12.782 -20.606  0.00  0.00    +0.121 C 
ENDBRANCH  28  30
ENDBRANCH  27  28
ENDBRANCH  26  27
ENDBRANCH   6  26
TORSDOF 6
ENDMDL
MODEL 6
REMARK VINA RESULT:      -7.7      3.158      5.325
REMARK  Name = 5744
REMARK  6 active torsions:
REMARK  status: ('A' for Active; 'I' for Inactive)
REMARK    1  A    between atoms: C_6  and  O_21
REMARK    2  A    between atoms: C_6  and  C_26
REMARK    3  A    between atoms: C_9  and  O_23
REMARK    4  A    between atoms: C_26  and  C_27
REMARK    5  A    between atoms: C_27  and  O_28
REMARK    6  A    between atoms: O_28  and  C_30
REMARK                            x       y       z     vdW  Elec       q    Type
REMARK                         _______ _______ _______ _____ _____    ______ ____
ROOT
ATOM      1  O   UNL     1      35.872 -18.125 -21.182  0.00  0.00    -0.291 OA
ATOM      2  C   UNL     1      32.342 -23.094 -15.331  0.00  0.00    +0.031 C 
ATOM      3  C   UNL     1      33.740 -22.439 -15.299  0.00  0.00    +0.003 C 
ATOM      4  C   UNL     1      34.426 -22.386 -16.673  0.00  0.00    +0.003 C 
ATOM      5  C   UNL     1      33.530 -21.558 -17.651  0.00  0.00    +0.030 C 
ATOM      6  C   UNL     1      32.000 -23.038 -13.817  0.00  0.00    +0.143 C 
ATOM      7  C   UNL     1      31.453 -22.240 -16.258  0.00  0.00    +0.032 C 
ATOM      8  C   UNL     1      34.199 -21.349 -19.071  0.00  0.00    +0.018 C 
ATOM      9  C   UNL     1      32.052 -22.054 -17.669  0.00  0.00    +0.111 C 
ATOM     10  C   UNL     1      34.444 -23.161 -14.153  0.00  0.00    +0.003 C 
ATOM     11  C   UNL     1      33.328 -23.397 -13.113  0.00  0.00    +0.034 C 
ATOM     12  C   UNL     1      35.818 -21.745 -16.551  0.00  0.00    +0.004 C 
ATOM     13  C   UNL     1      32.368 -24.573 -15.804  0.00  0.00    +0.003 C 
ATOM     14  C   UNL     1      35.632 -20.835 -18.883  0.00  0.00    -0.042 C 
ATOM     15  C   UNL     1      36.493 -21.598 -17.906  0.00  0.00    +0.022 C 
ATOM     16  C   UNL     1      33.356 -20.297 -19.850  0.00  0.00    +0.012 C 
ATOM     17  C   UNL     1      34.285 -22.643 -19.911  0.00  0.00    +0.004 C 
ATOM     18  C   UNL     1      34.079 -19.705 -21.050  0.00  0.00    +0.069 C 
ATOM     19  C   UNL     1      36.155 -19.794 -19.552  0.00  0.00    +0.029 C 
ATOM     20  C   UNL     1      35.393 -19.109 -20.622  0.00  0.00    +0.173 C 
ENDROOT
BRANCH   6  21
ATOM     21  O   UNL     1      31.600 -21.727 -13.426  0.00  0.00    -0.380 OA
ATOM     22  H   UNL     1      30.703 -21.759 -13.059  0.00  0.00    +0.211 HD
ENDBRANCH   6  21
BRANCH   9  23
ATOM     23  O   UNL     1      31.921 -23.266 -18.400  0.00  0.00    -0.384 OA
ATOM     24  H   UNL     1      31.114 -23.726 -18.121  0.00  0.00    +0.210 HD
ENDBRANCH   9  23
BRANCH   6  26
ATOM     25  O   UNL     1      31.039 -24.970 -12.802  0.00  0.00    -0.290 OA
ATOM     26  C   UNL     1      30.854 -23.922 -13.422  0.00  0.00    +0.218 C 
BRANCH  26  27
ATOM     27  C   UNL     1      29.474 -23.454 -13.829  0.00  0.00    +0.274 C 
BRANCH  27  28
ATOM     28  O   UNL     1      28.963 -24.257 -14.872  0.00  0.00    -0.440 OA
BRANCH  28  30
ATOM     29  O   UNL     1      27.608 -24.154 -16.742  0.00  0.00    -0.250 OA
ATOM     30  C   UNL     1      28.131 -23.631 -15.766  0.00  0.00    +0.318 C 
ATOM     31  C   UNL     1      27.944 -22.195 -15.382  0.00  0.00    +0.121 C 
ENDBRANCH  28  30
ENDBRANCH  27  28
ENDBRANCH  26  27
ENDBRANCH   6  26
TORSDOF 6
ENDMDL
