MODEL 1
REMARK VINA RESULT:     -12.1      0.000      0.000
REMARK  Name = 25210493
REMARK  4 active torsions:
REMARK  status: ('A' for Active; 'I' for Inactive)
REMARK    1  A    between atoms: N_1  and  S_7
REMARK    2  A    between atoms: N_2  and  S_20
REMARK    3  A    between atoms: S_7  and  C_12
REMARK    4  A    between atoms: S_20  and  C_25
REMARK                            x       y       z     vdW  Elec       q    Type
REMARK                         _______ _______ _______ _____ _____    ______ ____
ROOT
ATOM      1  N   UNL     1      33.777 -21.139 -18.973  0.00  0.00    -0.153 NA
ATOM      2  N   UNL     1      34.903 -19.236 -20.785  0.00  0.00    -0.152 NA
ATOM      3  C   UNL     1      35.146 -21.342 -19.531  0.00  0.00    +0.115 C 
ATOM      4  C   UNL     1      32.904 -20.388 -19.924  0.00  0.00    +0.115 C 
ATOM      5  C   UNL     1      35.776 -19.987 -19.835  0.00  0.00    +0.115 C 
ATOM      6  C   UNL     1      33.534 -19.034 -20.227  0.00  0.00    +0.115 C 
ENDROOT
BRANCH   1   7
ATOM      7  S   UNL     1      33.062 -22.522 -18.259  0.00  0.00    +0.063 S 
ATOM      8  O   UNL     1      33.378 -23.684 -19.062  0.00  0.00    -0.153 OA
ATOM      9  O   UNL     1      31.696 -22.212 -17.899  0.00  0.00    -0.153 OA
BRANCH   7  12
ATOM     10  O   UNL     1      33.666 -24.014 -13.422  0.00  0.00    -0.468 OA
ATOM     11  O   UNL     1      36.302 -22.852 -13.311  0.00  0.00    -0.468 OA
ATOM     12  C   UNL     1      34.007 -22.622 -16.771  0.00  0.00    +0.125 C 
ATOM     13  C   UNL     1      33.490 -23.292 -15.662  0.00  0.00    +0.060 C 
ATOM     14  C   UNL     1      35.268 -22.027 -16.705  0.00  0.00    +0.023 C 
ATOM     15  C   UNL     1      34.235 -23.362 -14.484  0.00  0.00    +0.174 C 
ATOM     16  C   UNL     1      35.509 -22.789 -14.427  0.00  0.00    +0.172 C 
ATOM     17  C   UNL     1      36.019 -22.108 -15.532  0.00  0.00    +0.041 C 
ATOM     18  C   UNL     1      34.344 -23.730 -12.195  0.00  0.00    +0.253 C 
ATOM     19  C   UNL     1      35.845 -23.843 -12.387  0.00  0.00    +0.253 C 
ENDBRANCH   7  12
ENDBRANCH   1   7
BRANCH   2  20
ATOM     20  S   UNL     1      35.618 -17.852 -21.499  0.00  0.00    +0.068 S 
ATOM     21  O   UNL     1      36.922 -18.209 -22.017  0.00  0.00    -0.153 OA
ATOM     22  O   UNL     1      35.451 -16.725 -20.608  0.00  0.00    -0.153 OA
BRANCH  20  25
ATOM     23  F   UNL     1      34.673 -15.264 -22.640  0.00  0.00    -0.203 F 
ATOM     24  F   UNL     1      34.351 -19.973 -23.170  0.00  0.00    -0.203 F 
ATOM     25  C   UNL     1      34.535 -17.623 -22.875  0.00  0.00    +0.177 C 
ATOM     26  C   UNL     1      34.190 -16.336 -23.284  0.00  0.00    +0.161 C 
ATOM     27  C   UNL     1      34.026 -18.731 -23.553  0.00  0.00    +0.161 C 
ATOM     28  C   UNL     1      33.335 -16.155 -24.371  0.00  0.00    +0.031 C 
ATOM     29  C   UNL     1      33.171 -18.551 -24.640  0.00  0.00    +0.031 C 
ATOM     30  C   UNL     1      32.825 -17.262 -25.049  0.00  0.00    +0.005 C 
ENDBRANCH  20  25
ENDBRANCH   2  20
TORSDOF 4
ENDMDL
MODEL 2
REMARK VINA RESULT:     -12.1      0.025      1.511
REMARK  Name = 25210493
REMARK  4 active torsions:
REMARK  status: ('A' for Active; 'I' for Inactive)
REMARK    1  A    between atoms: N_1  and  S_7
REMARK    2  A    between atoms: N_2  and  S_20
REMARK    3  A    between atoms: S_7  and  C_12
REMARK    4  A    between atoms: S_20  and  C_25
REMARK                            x       y       z     vdW  Elec       q    Type
REMARK                         _______ _______ _______ _____ _____    ______ ____
ROOT
ATOM      1  N   UNL     1      33.780 -21.146 -18.972  0.00  0.00    -0.153 NA
ATOM      2  N   UNL     1      34.917 -19.254 -20.788  0.00  0.00    -0.152 NA
ATOM      3  C   UNL     1      35.148 -21.358 -19.532  0.00  0.00    +0.115 C 
ATOM      4  C   UNL     1      32.912 -20.391 -19.923  0.00  0.00    +0.115 C 
ATOM      5  C   UNL     1      35.786 -20.009 -19.839  0.00  0.00    +0.115 C 
ATOM      6  C   UNL     1      33.549 -19.041 -20.230  0.00  0.00    +0.115 C 
ENDROOT
BRANCH   1   7
ATOM      7  S   UNL     1      33.058 -22.523 -18.255  0.00  0.00    +0.063 S 
ATOM      8  O   UNL     1      33.374 -23.690 -19.051  0.00  0.00    -0.153 OA
ATOM      9  O   UNL     1      31.691 -22.207 -17.903  0.00  0.00    -0.153 OA
BRANCH   7  12
ATOM     10  O   UNL     1      33.637 -24.001 -13.411  0.00  0.00    -0.468 OA
ATOM     11  O   UNL     1      36.273 -22.841 -13.290  0.00  0.00    -0.468 OA
ATOM     12  C   UNL     1      33.995 -22.620 -16.762  0.00  0.00    +0.125 C 
ATOM     13  C   UNL     1      33.473 -23.286 -15.653  0.00  0.00    +0.060 C 
ATOM     14  C   UNL     1      35.256 -22.025 -16.692  0.00  0.00    +0.023 C 
ATOM     15  C   UNL     1      34.212 -23.353 -14.472  0.00  0.00    +0.174 C 
ATOM     16  C   UNL     1      35.485 -22.780 -14.411  0.00  0.00    +0.172 C 
ATOM     17  C   UNL     1      36.002 -22.103 -15.515  0.00  0.00    +0.041 C 
ATOM     18  C   UNL     1      34.310 -23.714 -12.181  0.00  0.00    +0.253 C 
ATOM     19  C   UNL     1      35.811 -23.829 -12.365  0.00  0.00    +0.253 C 
ENDBRANCH   7  12
ENDBRANCH   1   7
BRANCH   2  20
ATOM     20  S   UNL     1      35.640 -17.875 -21.506  0.00  0.00    +0.068 S 
ATOM     21  O   UNL     1      36.936 -18.244 -22.034  0.00  0.00    -0.153 OA
ATOM     22  O   UNL     1      35.490 -16.748 -20.612  0.00  0.00    -0.153 OA
BRANCH  20  25
ATOM     23  F   UNL     1      34.351 -19.980 -23.179  0.00  0.00    -0.203 F 
ATOM     24  F   UNL     1      34.698 -15.276 -22.625  0.00  0.00    -0.203 F 
ATOM     25  C   UNL     1      34.549 -17.633 -22.873  0.00  0.00    +0.177 C 
ATOM     26  C   UNL     1      34.029 -18.734 -23.553  0.00  0.00    +0.161 C 
ATOM     27  C   UNL     1      34.205 -16.341 -23.271  0.00  0.00    +0.161 C 
ATOM     28  C   UNL     1      33.166 -18.544 -24.632  0.00  0.00    +0.031 C 
ATOM     29  C   UNL     1      33.343 -16.150 -24.351  0.00  0.00    +0.031 C 
ATOM     30  C   UNL     1      32.823 -17.251 -25.032  0.00  0.00    +0.005 C 
ENDBRANCH  20  25
ENDBRANCH   2  20
TORSDOF 4
ENDMDL
MODEL 3
REMARK VINA RESULT:     -11.2      3.739      9.250
REMARK  Name = 25210493
REMARK  4 active torsions:
REMARK  status: ('A' for Active; 'I' for Inactive)
REMARK    1  A    between atoms: N_1  and  S_7
REMARK    2  A    between atoms: N_2  and  S_20
REMARK    3  A    between atoms: S_7  and  C_12
REMARK    4  A    between atoms: S_20  and  C_25
REMARK                            x       y       z     vdW  Elec       q    Type
REMARK                         _______ _______ _______ _____ _____    ______ ____
ROOT
ATOM      1  N   UNL     1      33.970 -22.298 -17.001  0.00  0.00    -0.153 NA
ATOM      2  N   UNL     1      35.691 -22.881 -14.795  0.00  0.00    -0.152 NA
ATOM      3  C   UNL     1      33.667 -23.436 -16.083  0.00  0.00    +0.115 C 
ATOM      4  C   UNL     1      35.439 -22.050 -17.099  0.00  0.00    +0.115 C 
ATOM      5  C   UNL     1      34.222 -23.130 -14.697  0.00  0.00    +0.115 C 
ATOM      6  C   UNL     1      35.994 -21.744 -15.713  0.00  0.00    +0.115 C 
ENDROOT
BRANCH   1   7
ATOM      7  S   UNL     1      33.128 -22.315 -18.493  0.00  0.00    +0.063 S 
ATOM      8  O   UNL     1      31.796 -21.788 -18.290  0.00  0.00    -0.153 OA
ATOM      9  O   UNL     1      33.335 -23.595 -19.134  0.00  0.00    -0.153 OA
BRANCH   7  12
ATOM     10  O   UNL     1      33.507 -18.654 -22.020  0.00  0.00    -0.468 OA
ATOM     11  O   UNL     1      36.296 -18.249 -21.413  0.00  0.00    -0.468 OA
ATOM     12  C   UNL     1      34.057 -21.106 -19.383  0.00  0.00    +0.125 C 
ATOM     13  C   UNL     1      33.432 -20.324 -20.355  0.00  0.00    +0.060 C 
ATOM     14  C   UNL     1      35.417 -20.936 -19.115  0.00  0.00    +0.023 C 
ATOM     15  C   UNL     1      34.171 -19.375 -21.062  0.00  0.00    +0.174 C 
ATOM     16  C   UNL     1      35.526 -19.187 -20.776  0.00  0.00    +0.172 C 
ATOM     17  C   UNL     1      36.153 -19.978 -19.813  0.00  0.00    +0.041 C 
ATOM     18  C   UNL     1      34.409 -17.978 -22.901  0.00  0.00    +0.253 C 
ATOM     19  C   UNL     1      35.499 -17.285 -22.106  0.00  0.00    +0.253 C 
ENDBRANCH   7  12
ENDBRANCH   1   7
BRANCH   2  20
ATOM     20  S   UNL     1      36.533 -22.865 -13.302  0.00  0.00    +0.068 S 
ATOM     21  O   UNL     1      35.698 -23.467 -12.284  0.00  0.00    -0.153 OA
ATOM     22  O   UNL     1      37.120 -21.557 -13.109  0.00  0.00    -0.153 OA
BRANCH  20  25
ATOM     23  F   UNL     1      37.319 -25.282 -11.743  0.00  0.00    -0.203 F 
ATOM     24  F   UNL     1      38.407 -22.762 -15.619  0.00  0.00    -0.203 F 
ATOM     25  C   UNL     1      37.836 -23.997 -13.672  0.00  0.00    +0.177 C 
ATOM     26  C   UNL     1      38.073 -25.085 -12.834  0.00  0.00    +0.161 C 
ATOM     27  C   UNL     1      38.627 -23.804 -14.805  0.00  0.00    +0.161 C 
ATOM     28  C   UNL     1      39.102 -25.981 -13.126  0.00  0.00    +0.031 C 
ATOM     29  C   UNL     1      39.656 -24.699 -15.098  0.00  0.00    +0.031 C 
ATOM     30  C   UNL     1      39.893 -25.787 -14.259  0.00  0.00    +0.005 C 
ENDBRANCH  20  25
ENDBRANCH   2  20
TORSDOF 4
ENDMDL
MODEL 4
REMARK VINA RESULT:     -11.2      3.739      9.188
REMARK  Name = 25210493
REMARK  4 active torsions:
REMARK  status: ('A' for Active; 'I' for Inactive)
REMARK    1  A    between atoms: N_1  and  S_7
REMARK    2  A    between atoms: N_2  and  S_20
REMARK    3  A    between atoms: S_7  and  C_12
REMARK    4  A    between atoms: S_20  and  C_25
REMARK                            x       y       z     vdW  Elec       q    Type
REMARK                         _______ _______ _______ _____ _____    ______ ____
ROOT
ATOM      1  N   UNL     1      33.986 -22.296 -17.026  0.00  0.00    -0.153 NA
ATOM      2  N   UNL     1      35.714 -22.878 -14.824  0.00  0.00    -0.152 NA
ATOM      3  C   UNL     1      33.692 -23.440 -16.112  0.00  0.00    +0.115 C 
ATOM      4  C   UNL     1      35.454 -22.038 -17.124  0.00  0.00    +0.115 C 
ATOM      5  C   UNL     1      34.248 -23.137 -14.726  0.00  0.00    +0.115 C 
ATOM      6  C   UNL     1      36.009 -21.735 -15.737  0.00  0.00    +0.115 C 
ENDROOT
BRANCH   1   7
ATOM      7  S   UNL     1      33.143 -22.311 -18.516  0.00  0.00    +0.063 S 
ATOM      8  O   UNL     1      31.811 -21.783 -18.311  0.00  0.00    -0.153 OA
ATOM      9  O   UNL     1      33.348 -23.591 -19.158  0.00  0.00    -0.153 OA
BRANCH   7  12
ATOM     10  O   UNL     1      33.516 -18.637 -22.031  0.00  0.00    -0.468 OA
ATOM     11  O   UNL     1      36.310 -18.246 -21.438  0.00  0.00    -0.468 OA
ATOM     12  C   UNL     1      34.071 -21.102 -19.407  0.00  0.00    +0.125 C 
ATOM     13  C   UNL     1      33.444 -20.314 -20.372  0.00  0.00    +0.060 C 
ATOM     14  C   UNL     1      35.433 -20.938 -19.146  0.00  0.00    +0.023 C 
ATOM     15  C   UNL     1      34.182 -19.365 -21.080  0.00  0.00    +0.174 C 
ATOM     16  C   UNL     1      35.540 -19.184 -20.800  0.00  0.00    +0.172 C 
ATOM     17  C   UNL     1      36.169 -19.980 -19.844  0.00  0.00    +0.041 C 
ATOM     18  C   UNL     1      34.416 -17.962 -22.914  0.00  0.00    +0.253 C 
ATOM     19  C   UNL     1      35.513 -17.276 -22.123  0.00  0.00    +0.253 C 
ENDBRANCH   7  12
ENDBRANCH   1   7
BRANCH   2  20
ATOM     20  S   UNL     1      36.558 -22.863 -13.332  0.00  0.00    +0.068 S 
ATOM     21  O   UNL     1      35.725 -23.466 -12.314  0.00  0.00    -0.153 OA
ATOM     22  O   UNL     1      37.146 -21.556 -13.139  0.00  0.00    -0.153 OA
BRANCH  20  25
ATOM     23  F   UNL     1      38.426 -22.763 -15.654  0.00  0.00    -0.203 F 
ATOM     24  F   UNL     1      37.351 -25.277 -11.771  0.00  0.00    -0.203 F 
ATOM     25  C   UNL     1      37.860 -23.996 -13.705  0.00  0.00    +0.177 C 
ATOM     26  C   UNL     1      38.648 -23.803 -14.839  0.00  0.00    +0.161 C 
ATOM     27  C   UNL     1      38.101 -25.083 -12.864  0.00  0.00    +0.161 C 
ATOM     28  C   UNL     1      39.677 -24.697 -15.134  0.00  0.00    +0.031 C 
ATOM     29  C   UNL     1      39.130 -25.977 -13.158  0.00  0.00    +0.031 C 
ATOM     30  C   UNL     1      39.918 -25.785 -14.293  0.00  0.00    +0.005 C 
ENDBRANCH  20  25
ENDBRANCH   2  20
TORSDOF 4
ENDMDL
MODEL 5
REMARK VINA RESULT:     -10.4      9.792     13.429
REMARK  Name = 25210493
REMARK  4 active torsions:
REMARK  status: ('A' for Active; 'I' for Inactive)
REMARK    1  A    between atoms: N_1  and  S_7
REMARK    2  A    between atoms: N_2  and  S_20
REMARK    3  A    between atoms: S_7  and  C_12
REMARK    4  A    between atoms: S_20  and  C_25
REMARK                            x       y       z     vdW  Elec       q    Type
REMARK                         _______ _______ _______ _____ _____    ______ ____
ROOT
ATOM      1  N   UNL     1      31.640  -8.898 -22.417  0.00  0.00    -0.153 NA
ATOM      2  N   UNL     1      32.311  -6.412 -23.659  0.00  0.00    -0.152 NA
ATOM      3  C   UNL     1      30.607  -8.119 -23.162  0.00  0.00    +0.115 C 
ATOM      4  C   UNL     1      32.671  -8.002 -21.814  0.00  0.00    +0.115 C 
ATOM      5  C   UNL     1      31.280  -7.307 -24.262  0.00  0.00    +0.115 C 
ATOM      6  C   UNL     1      33.344  -7.190 -22.914  0.00  0.00    +0.115 C 
ENDROOT
BRANCH   1   7
ATOM      7  S   UNL     1      31.034 -10.119 -21.381  0.00  0.00    +0.063 S 
ATOM      8  O   UNL     1      29.680 -10.443 -21.775  0.00  0.00    -0.153 OA
ATOM      9  O   UNL     1      31.351  -9.774 -20.012  0.00  0.00    -0.153 OA
BRANCH   7  12
ATOM     10  O   UNL     1      33.182 -14.655 -20.487  0.00  0.00    -0.468 OA
ATOM     11  O   UNL     1      34.497 -14.625 -23.053  0.00  0.00    -0.468 OA
ATOM     12  C   UNL     1      32.071 -11.467 -21.855  0.00  0.00    +0.125 C 
ATOM     13  C   UNL     1      32.226 -12.560 -21.002  0.00  0.00    +0.060 C 
ATOM     14  C   UNL     1      32.737 -11.435 -23.081  0.00  0.00    +0.023 C 
ATOM     15  C   UNL     1      33.053 -13.620 -21.376  0.00  0.00    +0.174 C 
ATOM     16  C   UNL     1      33.699 -13.600 -22.615  0.00  0.00    +0.172 C 
ATOM     17  C   UNL     1      33.554 -12.500 -23.462  0.00  0.00    +0.041 C 
ATOM     18  C   UNL     1      34.294 -15.496 -20.807  0.00  0.00    +0.253 C 
ATOM     19  C   UNL     1      34.302 -15.817 -22.289  0.00  0.00    +0.253 C 
ENDBRANCH   7  12
ENDBRANCH   1   7
BRANCH   2  20
ATOM     20  S   UNL     1      32.917  -5.190 -24.696  0.00  0.00    +0.068 S 
ATOM     21  O   UNL     1      32.669  -5.571 -26.071  0.00  0.00    -0.153 OA
ATOM     22  O   UNL     1      34.242  -4.814 -24.253  0.00  0.00    -0.153 OA
BRANCH  20  25
ATOM     23  F   UNL     1      32.086  -4.302 -21.974  0.00  0.00    -0.203 F 
ATOM     24  F   UNL     1      31.498  -3.382 -26.597  0.00  0.00    -0.203 F 
ATOM     25  C   UNL     1      31.815  -3.871 -24.294  0.00  0.00    +0.177 C 
ATOM     26  C   UNL     1      31.530  -3.584 -22.960  0.00  0.00    +0.161 C 
ATOM     27  C   UNL     1      31.230  -3.116 -25.311  0.00  0.00    +0.161 C 
ATOM     28  C   UNL     1      30.659  -2.541 -22.641  0.00  0.00    +0.031 C 
ATOM     29  C   UNL     1      30.360  -2.073 -24.993  0.00  0.00    +0.031 C 
ATOM     30  C   UNL     1      30.074  -1.786 -23.658  0.00  0.00    +0.005 C 
ENDBRANCH  20  25
ENDBRANCH   2  20
TORSDOF 4
ENDMDL
MODEL 6
REMARK VINA RESULT:     -10.4      9.796     13.421
REMARK  Name = 25210493
REMARK  4 active torsions:
REMARK  status: ('A' for Active; 'I' for Inactive)
REMARK    1  A    between atoms: N_1  and  S_7
REMARK    2  A    between atoms: N_2  and  S_20
REMARK    3  A    between atoms: S_7  and  C_12
REMARK    4  A    between atoms: S_20  and  C_25
REMARK                            x       y       z     vdW  Elec       q    Type
REMARK                         _______ _______ _______ _____ _____    ______ ____
ROOT
ATOM      1  N   UNL     1      31.645  -8.889 -22.397  0.00  0.00    -0.153 NA
ATOM      2  N   UNL     1      32.317  -6.404 -23.639  0.00  0.00    -0.152 NA
ATOM      3  C   UNL     1      30.616  -8.116 -23.153  0.00  0.00    +0.115 C 
ATOM      4  C   UNL     1      32.667  -7.988 -21.787  0.00  0.00    +0.115 C 
ATOM      5  C   UNL     1      31.295  -7.304 -24.250  0.00  0.00    +0.115 C 
ATOM      6  C   UNL     1      33.347  -7.176 -22.884  0.00  0.00    +0.115 C 
ENDROOT
BRANCH   1   7
ATOM      7  S   UNL     1      31.034 -10.111 -21.364  0.00  0.00    +0.063 S 
ATOM      8  O   UNL     1      29.681 -10.433 -21.763  0.00  0.00    -0.153 OA
ATOM      9  O   UNL     1      31.347  -9.766 -19.994  0.00  0.00    -0.153 OA
BRANCH   7  12
ATOM     10  O   UNL     1      33.169 -14.652 -20.468  0.00  0.00    -0.468 OA
ATOM     11  O   UNL     1      34.499 -14.618 -23.026  0.00  0.00    -0.468 OA
ATOM     12  C   UNL     1      32.071 -11.459 -21.835  0.00  0.00    +0.125 C 
ATOM     13  C   UNL     1      32.220 -12.554 -20.984  0.00  0.00    +0.060 C 
ATOM     14  C   UNL     1      32.745 -11.426 -23.057  0.00  0.00    +0.023 C 
ATOM     15  C   UNL     1      33.047 -13.615 -21.356  0.00  0.00    +0.174 C 
ATOM     16  C   UNL     1      33.700 -13.593 -22.591  0.00  0.00    +0.172 C 
ATOM     17  C   UNL     1      33.562 -12.491 -23.435  0.00  0.00    +0.041 C 
ATOM     18  C   UNL     1      34.282 -15.495 -20.783  0.00  0.00    +0.253 C 
ATOM     19  C   UNL     1      34.297 -15.812 -22.266  0.00  0.00    +0.253 C 
ENDBRANCH   7  12
ENDBRANCH   1   7
BRANCH   2  20
ATOM     20  S   UNL     1      32.929  -5.181 -24.674  0.00  0.00    +0.068 S 
ATOM     21  O   UNL     1      32.692  -5.566 -26.049  0.00  0.00    -0.153 OA
ATOM     22  O   UNL     1      34.249  -4.802 -24.221  0.00  0.00    -0.153 OA
BRANCH  20  25
ATOM     23  F   UNL     1      31.506  -3.392 -26.588  0.00  0.00    -0.203 F 
ATOM     24  F   UNL     1      32.084  -4.283 -21.958  0.00  0.00    -0.203 F 
ATOM     25  C   UNL     1      31.820  -3.865 -24.282  0.00  0.00    +0.177 C 
ATOM     26  C   UNL     1      31.234  -3.120 -25.304  0.00  0.00    +0.161 C 
ATOM     27  C   UNL     1      31.528  -3.572 -22.949  0.00  0.00    +0.161 C 
ATOM     28  C   UNL     1      30.357  -2.080 -24.995  0.00  0.00    +0.031 C 
ATOM     29  C   UNL     1      30.651  -2.533 -22.639  0.00  0.00    +0.031 C 
ATOM     30  C   UNL     1      30.065  -1.786 -23.662  0.00  0.00    +0.005 C 
ENDBRANCH  20  25
ENDBRANCH   2  20
TORSDOF 4
ENDMDL
MODEL 7
REMARK VINA RESULT:     -10.3      4.054      9.516
REMARK  Name = 25210493
REMARK  4 active torsions:
REMARK  status: ('A' for Active; 'I' for Inactive)
REMARK    1  A    between atoms: N_1  and  S_7
REMARK    2  A    between atoms: N_2  and  S_20
REMARK    3  A    between atoms: S_7  and  C_12
REMARK    4  A    between atoms: S_20  and  C_25
REMARK                            x       y       z     vdW  Elec       q    Type
REMARK                         _______ _______ _______ _____ _____    ______ ____
ROOT
ATOM      1  N   UNL     1      33.745 -22.857 -16.199  0.00  0.00    -0.153 NA
ATOM      2  N   UNL     1      35.157 -23.788 -13.894  0.00  0.00    -0.152 NA
ATOM      3  C   UNL     1      33.023 -23.570 -15.103  0.00  0.00    +0.115 C 
ATOM      4  C   UNL     1      35.161 -23.319 -16.311  0.00  0.00    +0.115 C 
ATOM      5  C   UNL     1      33.742 -23.327 -13.781  0.00  0.00    +0.115 C 
ATOM      6  C   UNL     1      35.879 -23.076 -14.989  0.00  0.00    +0.115 C 
ENDROOT
BRANCH   1   7
ATOM      7  S   UNL     1      32.895 -22.734 -17.680  0.00  0.00    +0.063 S 
ATOM      8  O   UNL     1      31.638 -22.056 -17.448  0.00  0.00    -0.153 OA
ATOM      9  O   UNL     1      32.939 -24.013 -18.354  0.00  0.00    -0.153 OA
BRANCH   7  12
ATOM     10  O   UNL     1      33.721 -19.216 -21.275  0.00  0.00    -0.468 OA
ATOM     11  O   UNL     1      36.499 -19.001 -20.536  0.00  0.00    -0.468 OA
ATOM     12  C   UNL     1      33.954 -21.623 -18.551  0.00  0.00    +0.125 C 
ATOM     13  C   UNL     1      33.439 -20.827 -19.574  0.00  0.00    +0.060 C 
ATOM     14  C   UNL     1      35.308 -21.546 -18.219  0.00  0.00    +0.023 C 
ATOM     15  C   UNL     1      34.281 -19.956 -20.267  0.00  0.00    +0.174 C 
ATOM     16  C   UNL     1      35.630 -19.860 -19.915  0.00  0.00    +0.172 C 
ATOM     17  C   UNL     1      36.148 -20.666 -18.902  0.00  0.00    +0.041 C 
ATOM     18  C   UNL     1      34.714 -18.635 -22.126  0.00  0.00    +0.253 C 
ATOM     19  C   UNL     1      35.812 -18.001 -21.293  0.00  0.00    +0.253 C 
ENDBRANCH   7  12
ENDBRANCH   1   7
BRANCH   2  20
ATOM     20  S   UNL     1      36.009 -23.911 -12.411  0.00  0.00    +0.068 S 
ATOM     21  O   UNL     1      35.355 -24.895 -11.573  0.00  0.00    -0.153 OA
ATOM     22  O   UNL     1      36.290 -22.580 -11.920  0.00  0.00    -0.153 OA
BRANCH  20  25
ATOM     23  F   UNL     1      36.356 -26.440 -13.952  0.00  0.00    -0.203 F 
ATOM     24  F   UNL     1      38.757 -22.813 -12.044  0.00  0.00    -0.203 F 
ATOM     25  C   UNL     1      37.524 -24.612 -12.985  0.00  0.00    +0.177 C 
ATOM     26  C   UNL     1      37.512 -25.810 -13.698  0.00  0.00    +0.161 C 
ATOM     27  C   UNL     1      38.733 -23.966 -12.727  0.00  0.00    +0.161 C 
ATOM     28  C   UNL     1      38.709 -26.364 -14.153  0.00  0.00    +0.031 C 
ATOM     29  C   UNL     1      39.930 -24.519 -13.182  0.00  0.00    +0.031 C 
ATOM     30  C   UNL     1      39.918 -25.718 -13.894  0.00  0.00    +0.005 C 
ENDBRANCH  20  25
ENDBRANCH   2  20
TORSDOF 4
ENDMDL
MODEL 8
REMARK VINA RESULT:      -9.7      1.560      2.294
REMARK  Name = 25210493
REMARK  4 active torsions:
REMARK  status: ('A' for Active; 'I' for Inactive)
REMARK    1  A    between atoms: N_1  and  S_7
REMARK    2  A    between atoms: N_2  and  S_20
REMARK    3  A    between atoms: S_7  and  C_12
REMARK    4  A    between atoms: S_20  and  C_25
REMARK                            x       y       z     vdW  Elec       q    Type
REMARK                         _______ _______ _______ _____ _____    ______ ____
ROOT
ATOM      1  N   UNL     1      33.790 -21.225 -19.660  0.00  0.00    -0.153 NA
ATOM      2  N   UNL     1      34.908 -19.074 -21.174  0.00  0.00    -0.152 NA
ATOM      3  C   UNL     1      32.909 -20.171 -20.245  0.00  0.00    +0.115 C 
ATOM      4  C   UNL     1      35.141 -20.685 -19.327  0.00  0.00    +0.115 C 
ATOM      5  C   UNL     1      33.557 -19.613 -21.507  0.00  0.00    +0.115 C 
ATOM      6  C   UNL     1      35.789 -20.127 -20.588  0.00  0.00    +0.115 C 
ENDROOT
BRANCH   1   7
ATOM      7  S   UNL     1      33.068 -22.194 -18.446  0.00  0.00    +0.063 S 
ATOM      8  O   UNL     1      32.945 -23.551 -18.936  0.00  0.00    -0.153 OA
ATOM      9  O   UNL     1      31.927 -21.491 -17.901  0.00  0.00    -0.153 OA
BRANCH   7  12
ATOM     10  O   UNL     1      34.838 -23.203 -13.773  0.00  0.00    -0.468 OA
ATOM     11  O   UNL     1      37.428 -22.125 -14.437  0.00  0.00    -0.468 OA
ATOM     12  C   UNL     1      34.350 -22.173 -17.233  0.00  0.00    +0.125 C 
ATOM     13  C   UNL     1      34.119 -22.708 -15.966  0.00  0.00    +0.060 C 
ATOM     14  C   UNL     1      35.593 -21.617 -17.542  0.00  0.00    +0.023 C 
ATOM     15  C   UNL     1      35.132 -22.683 -15.006  0.00  0.00    +0.174 C 
ATOM     16  C   UNL     1      36.384 -22.149 -15.325  0.00  0.00    +0.172 C 
ATOM     17  C   UNL     1      36.610 -21.602 -16.588  0.00  0.00    +0.041 C 
ATOM     18  C   UNL     1      35.801 -22.818 -12.788  0.00  0.00    +0.253 C 
ATOM     19  C   UNL     1      37.206 -23.000 -13.328  0.00  0.00    +0.253 C 
ENDBRANCH   7  12
ENDBRANCH   1   7
BRANCH   2  20
ATOM     20  S   UNL     1      35.631 -18.104 -22.388  0.00  0.00    +0.068 S 
ATOM     21  O   UNL     1      35.250 -18.615 -23.688  0.00  0.00    -0.153 OA
ATOM     22  O   UNL     1      37.019 -17.885 -22.049  0.00  0.00    -0.153 OA
BRANCH  20  25
ATOM     23  F   UNL     1      34.908 -16.866 -19.774  0.00  0.00    -0.203 F 
ATOM     24  F   UNL     1      34.579 -16.247 -24.471  0.00  0.00    -0.203 F 
ATOM     25  C   UNL     1      34.762 -16.589 -22.128  0.00  0.00    +0.177 C 
ATOM     26  C   UNL     1      34.503 -16.148 -20.831  0.00  0.00    +0.161 C 
ATOM     27  C   UNL     1      34.335 -15.833 -23.220  0.00  0.00    +0.161 C 
ATOM     28  C   UNL     1      33.817 -14.951 -20.625  0.00  0.00    +0.031 C 
ATOM     29  C   UNL     1      33.649 -14.636 -23.015  0.00  0.00    +0.031 C 
ATOM     30  C   UNL     1      33.390 -14.195 -21.717  0.00  0.00    +0.005 C 
ENDBRANCH  20  25
ENDBRANCH   2  20
TORSDOF 4
ENDMDL
MODEL 9
REMARK VINA RESULT:      -9.5      5.741      9.256
REMARK  Name = 25210493
REMARK  4 active torsions:
REMARK  status: ('A' for Active; 'I' for Inactive)
REMARK    1  A    between atoms: N_1  and  S_7
REMARK    2  A    between atoms: N_2  and  S_20
REMARK    3  A    between atoms: S_7  and  C_12
REMARK    4  A    between atoms: S_20  and  C_25
REMARK                            x       y       z     vdW  Elec       q    Type
REMARK                         _______ _______ _______ _____ _____    ______ ____
ROOT
ATOM      1  N   UNL     1      33.106 -14.062 -23.544  0.00  0.00    -0.153 NA
ATOM      2  N   UNL     1      32.117 -11.858 -22.016  0.00  0.00    -0.152 NA
ATOM      3  C   UNL     1      33.942 -13.447 -22.471  0.00  0.00    +0.115 C 
ATOM      4  C   UNL     1      32.187 -13.061 -24.163  0.00  0.00    +0.115 C 
ATOM      5  C   UNL     1      33.036 -12.858 -21.396  0.00  0.00    +0.115 C 
ATOM      6  C   UNL     1      31.281 -12.473 -23.088  0.00  0.00    +0.115 C 
ENDROOT
BRANCH   1   7
ATOM      7  S   UNL     1      33.949 -15.064 -24.648  0.00  0.00    +0.063 S 
ATOM      8  O   UNL     1      35.284 -14.540 -24.838  0.00  0.00    -0.153 OA
ATOM      9  O   UNL     1      33.089 -15.346 -25.776  0.00  0.00    -0.153 OA
BRANCH   7  12
ATOM     10  O   UNL     1      35.840 -17.697 -20.713  0.00  0.00    -0.468 OA
ATOM     11  O   UNL     1      34.314 -20.032 -21.442  0.00  0.00    -0.468 OA
ATOM     12  C   UNL     1      34.081 -16.538 -23.685  0.00  0.00    +0.125 C 
ATOM     13  C   UNL     1      34.897 -16.561 -22.554  0.00  0.00    +0.060 C 
ATOM     14  C   UNL     1      33.371 -17.681 -24.060  0.00  0.00    +0.023 C 
ATOM     15  C   UNL     1      35.006 -17.730 -21.800  0.00  0.00    +0.174 C 
ATOM     16  C   UNL     1      34.275 -18.866 -22.161  0.00  0.00    +0.172 C 
ATOM     17  C   UNL     1      33.469 -18.846 -23.299  0.00  0.00    +0.041 C 
ATOM     18  C   UNL     1      36.141 -19.011 -20.232  0.00  0.00    +0.253 C 
ATOM     19  C   UNL     1      34.874 -19.840 -20.141  0.00  0.00    +0.253 C 
ENDBRANCH   7  12
ENDBRANCH   1   7
BRANCH   2  20
ATOM     20  S   UNL     1      31.274 -10.855 -20.911  0.00  0.00    +0.068 S 
ATOM     21  O   UNL     1      31.732 -11.143 -19.568  0.00  0.00    -0.153 OA
ATOM     22  O   UNL     1      29.865 -10.875 -21.240  0.00  0.00    -0.153 OA
BRANCH  20  25
ATOM     23  F   UNL     1      32.361 -10.064 -23.572  0.00  0.00    -0.203 F 
ATOM     24  F   UNL     1      31.502  -8.424 -19.198  0.00  0.00    -0.203 F 
ATOM     25  C   UNL     1      31.919  -9.278 -21.375  0.00  0.00    +0.177 C 
ATOM     26  C   UNL     1      32.391  -9.072 -22.670  0.00  0.00    +0.161 C 
ATOM     27  C   UNL     1      31.954  -8.238 -20.446  0.00  0.00    +0.161 C 
ATOM     28  C   UNL     1      32.900  -7.827 -23.038  0.00  0.00    +0.031 C 
ATOM     29  C   UNL     1      32.463  -6.992 -20.812  0.00  0.00    +0.031 C 
ATOM     30  C   UNL     1      32.936  -6.786 -22.109  0.00  0.00    +0.005 C 
ENDBRANCH  20  25
ENDBRANCH   2  20
TORSDOF 4
ENDMDL
