MODEL 1
REMARK VINA RESULT:     -12.1      0.000      0.000
REMARK  Name = 216454
REMARK  6 active torsions:
REMARK  status: ('A' for Active; 'I' for Inactive)
REMARK    1  A    between atoms: N_2  and  C_16
REMARK    2  A    between atoms: N_3  and  C_10
REMARK    3  A    between atoms: C_16  and  C_19
REMARK    4  A    between atoms: N_17  and  C_22
REMARK    5  A    between atoms: C_22  and  C_23
REMARK    6  A    between atoms: C_28  and  C_30
REMARK                            x       y       z     vdW  Elec       q    Type
REMARK                         _______ _______ _______ _____ _____    ______ ____
ROOT
ATOM      1  O   UNL     1      32.199 -12.738 -19.920  0.00  0.00    -0.277 OA
ATOM      2  N   UNL     1      33.804 -14.920 -22.172  0.00  0.00    +0.398 N 
ATOM      3  N   UNL     1      32.683 -12.338 -22.181  0.00  0.00    -0.262 N 
ATOM      4  C   UNL     1      34.181 -14.026 -23.262  0.00  0.00    -0.054 C 
ATOM      5  C   UNL     1      33.079 -12.994 -23.433  0.00  0.00    +0.075 C 
ATOM      6  C   UNL     1      33.794 -14.167 -20.919  0.00  0.00    +0.011 C 
ATOM      7  C   UNL     1      32.795 -13.026 -20.962  0.00  0.00    +0.208 C 
ATOM      8  H   UNL     1      32.873 -15.296 -22.349  0.00  0.00    -0.078 HD
ENDROOT
BRANCH   3  10
ATOM      9 CL   UNL     1      32.636  -7.472 -23.883  0.00  0.00    -0.082 Cl
ATOM     10  C   UNL     1      31.992 -11.071 -22.272  0.00  0.00    +0.054 C 
ATOM     11  C   UNL     1      32.581 -10.011 -22.953  0.00  0.00    +0.026 C 
ATOM     12  C   UNL     1      30.743 -10.923 -21.678  0.00  0.00    +0.015 C 
ATOM     13  C   UNL     1      31.913  -8.790 -23.042  0.00  0.00    +0.059 C 
ATOM     14  C   UNL     1      30.075  -9.702 -21.767  0.00  0.00    +0.002 C 
ATOM     15  C   UNL     1      30.660  -8.635 -22.448  0.00  0.00    +0.011 C 
ENDBRANCH   3  10
BRANCH   2  16
ATOM     16  C   UNL     1      34.741 -16.039 -22.081  0.00  0.00    -0.032 C 
BRANCH  16  19
ATOM     17  N   UNL     1      34.692 -18.468 -22.682  0.00  0.00    -0.270 N 
ATOM     18  N   UNL     1      33.419 -18.526 -24.501  0.00  0.00    -0.225 NA
ATOM     19  C   UNL     1      34.314 -17.199 -22.941  0.00  0.00    +0.029 C 
ATOM     20  C   UNL     1      33.539 -17.235 -24.050  0.00  0.00    +0.109 C 
ATOM     21  C   UNL     1      34.126 -19.243 -23.656  0.00  0.00    +0.168 C 
BRANCH  17  22
ATOM     22  C   UNL     1      35.525 -18.946 -21.604  0.00  0.00    +0.123 C 
BRANCH  22  23
ATOM     23  C   UNL     1      34.741 -19.792 -20.638  0.00  0.00    -0.002 C 
ATOM     24  C   UNL     1      35.413 -20.651 -19.778  0.00  0.00    -0.002 C 
ATOM     25  C   UNL     1      33.356 -19.702 -20.618  0.00  0.00    -0.002 C 
ATOM     26  C   UNL     1      34.686 -21.435 -18.883  0.00  0.00    +0.010 C 
ATOM     27  C   UNL     1      32.629 -20.485 -19.722  0.00  0.00    +0.010 C 
ATOM     28  C   UNL     1      33.294 -21.352 -18.854  0.00  0.00    +0.068 C 
BRANCH  28  30
ATOM     29  N   UNL     1      31.944 -22.807 -17.189  0.00  0.00    -0.191 NA
ATOM     30  C   UNL     1      32.550 -22.154 -17.935  0.00  0.00    +0.100 C 
ENDBRANCH  28  30
ENDBRANCH  22  23
ENDBRANCH  17  22
ENDBRANCH  16  19
ENDBRANCH   2  16
TORSDOF 6
ENDMDL
MODEL 2
REMARK VINA RESULT:     -11.8      3.946     11.176
REMARK  Name = 216454
REMARK  6 active torsions:
REMARK  status: ('A' for Active; 'I' for Inactive)
REMARK    1  A    between atoms: N_2  and  C_16
REMARK    2  A    between atoms: N_3  and  C_10
REMARK    3  A    between atoms: C_16  and  C_19
REMARK    4  A    between atoms: N_17  and  C_22
REMARK    5  A    between atoms: C_22  and  C_23
REMARK    6  A    between atoms: C_28  and  C_30
REMARK                            x       y       z     vdW  Elec       q    Type
REMARK                         _______ _______ _______ _____ _____    ______ ____
ROOT
ATOM      1  O   UNL     1      33.024 -15.385 -25.481  0.00  0.00    -0.277 OA
ATOM      2  N   UNL     1      32.800 -12.569 -23.376  0.00  0.00    +0.398 N 
ATOM      3  N   UNL     1      33.780 -15.206 -23.267  0.00  0.00    -0.262 N 
ATOM      4  C   UNL     1      33.753 -12.890 -22.318  0.00  0.00    -0.054 C 
ATOM      5  C   UNL     1      33.684 -14.385 -22.054  0.00  0.00    +0.075 C 
ATOM      6  C   UNL     1      33.241 -13.194 -24.622  0.00  0.00    +0.011 C 
ATOM      7  C   UNL     1      33.314 -14.704 -24.493  0.00  0.00    +0.208 C 
ATOM      8  H   UNL     1      31.880 -12.929 -23.122  0.00  0.00    -0.078 HD
ENDROOT
BRANCH   3  10
ATOM      9 CL   UNL     1      36.559 -18.744 -20.750  0.00  0.00    -0.082 Cl
ATOM     10  C   UNL     1      34.166 -16.591 -23.116  0.00  0.00    +0.054 C 
ATOM     11  C   UNL     1      35.070 -16.952 -22.123  0.00  0.00    +0.026 C 
ATOM     12  C   UNL     1      33.627 -17.553 -23.965  0.00  0.00    +0.015 C 
ATOM     13  C   UNL     1      35.440 -18.289 -21.977  0.00  0.00    +0.059 C 
ATOM     14  C   UNL     1      33.996 -18.890 -23.819  0.00  0.00    +0.002 C 
ATOM     15  C   UNL     1      34.904 -19.258 -22.825  0.00  0.00    +0.011 C 
ENDBRANCH   3  10
BRANCH   2  16
ATOM     16  C   UNL     1      32.694 -11.121 -23.546  0.00  0.00    -0.032 C 
BRANCH  16  19
ATOM     17  N   UNL     1      31.896  -9.162 -22.209  0.00  0.00    -0.270 N 
ATOM     18  N   UNL     1      30.470 -10.065 -20.767  0.00  0.00    -0.225 NA
ATOM     19  C   UNL     1      31.866 -10.487 -22.460  0.00  0.00    +0.029 C 
ATOM     20  C   UNL     1      30.997 -11.037 -21.580  0.00  0.00    +0.109 C 
ATOM     21  C   UNL     1      31.032  -8.948 -21.171  0.00  0.00    +0.168 C 
BRANCH  17  22
ATOM     22  C   UNL     1      32.672  -8.147 -22.881  0.00  0.00    +0.123 C 
BRANCH  22  23
ATOM     23  C   UNL     1      32.042  -6.788 -22.735  0.00  0.00    -0.002 C 
ATOM     24  C   UNL     1      32.500  -5.922 -21.750  0.00  0.00    -0.002 C 
ATOM     25  C   UNL     1      31.010  -6.417 -23.587  0.00  0.00    -0.002 C 
ATOM     26  C   UNL     1      31.916  -4.663 -21.616  0.00  0.00    +0.010 C 
ATOM     27  C   UNL     1      30.427  -5.158 -23.453  0.00  0.00    +0.010 C 
ATOM     28  C   UNL     1      30.879  -4.280 -22.467  0.00  0.00    +0.068 C 
BRANCH  28  30
ATOM     29  N   UNL     1      29.797  -1.940 -22.217  0.00  0.00    -0.191 NA
ATOM     30  C   UNL     1      30.282  -2.989 -22.330  0.00  0.00    +0.100 C 
ENDBRANCH  28  30
ENDBRANCH  22  23
ENDBRANCH  17  22
ENDBRANCH  16  19
ENDBRANCH   2  16
TORSDOF 6
ENDMDL
MODEL 3
REMARK VINA RESULT:     -11.5      4.544     11.348
REMARK  Name = 216454
REMARK  6 active torsions:
REMARK  status: ('A' for Active; 'I' for Inactive)
REMARK    1  A    between atoms: N_2  and  C_16
REMARK    2  A    between atoms: N_3  and  C_10
REMARK    3  A    between atoms: C_16  and  C_19
REMARK    4  A    between atoms: N_17  and  C_22
REMARK    5  A    between atoms: C_22  and  C_23
REMARK    6  A    between atoms: C_28  and  C_30
REMARK                            x       y       z     vdW  Elec       q    Type
REMARK                         _______ _______ _______ _____ _____    ______ ____
ROOT
ATOM      1  O   UNL     1      31.561 -13.216 -20.651  0.00  0.00    -0.277 OA
ATOM      2  N   UNL     1      31.652  -9.995 -22.074  0.00  0.00    +0.398 N 
ATOM      3  N   UNL     1      32.600 -12.581 -22.656  0.00  0.00    -0.262 N 
ATOM      4  C   UNL     1      32.058 -10.269 -23.448  0.00  0.00    -0.054 C 
ATOM      5  C   UNL     1      33.053 -11.418 -23.429  0.00  0.00    +0.075 C 
ATOM      6  C   UNL     1      30.899 -11.137 -21.561  0.00  0.00    +0.011 C 
ATOM      7  C   UNL     1      31.736 -12.403 -21.563  0.00  0.00    +0.208 C 
ATOM      8  H   UNL     1      32.482  -9.849 -21.499  0.00  0.00    -0.078 HD
ENDROOT
BRANCH   3  10
ATOM      9 CL   UNL     1      34.936 -16.796 -20.828  0.00  0.00    -0.082 Cl
ATOM     10  C   UNL     1      33.228 -13.856 -22.923  0.00  0.00    +0.054 C 
ATOM     11  C   UNL     1      33.720 -14.617 -21.869  0.00  0.00    +0.026 C 
ATOM     12  C   UNL     1      33.333 -14.310 -24.234  0.00  0.00    +0.015 C 
ATOM     13  C   UNL     1      34.324 -15.847 -22.128  0.00  0.00    +0.059 C 
ATOM     14  C   UNL     1      33.937 -15.540 -24.493  0.00  0.00    +0.002 C 
ATOM     15  C   UNL     1      34.433 -16.309 -23.440  0.00  0.00    +0.011 C 
ENDBRANCH   3  10
BRANCH   2  16
ATOM     16  C   UNL     1      30.835  -8.783 -22.014  0.00  0.00    -0.032 C 
BRANCH  16  19
ATOM     17  N   UNL     1      31.331  -6.453 -21.248  0.00  0.00    -0.270 N 
ATOM     18  N   UNL     1      32.330  -6.753 -19.288  0.00  0.00    -0.225 NA
ATOM     19  C   UNL     1      31.385  -7.783 -21.032  0.00  0.00    +0.029 C 
ATOM     20  C   UNL     1      31.996  -7.965 -19.837  0.00  0.00    +0.109 C 
ATOM     21  C   UNL     1      31.917  -5.863 -20.163  0.00  0.00    +0.168 C 
BRANCH  17  22
ATOM     22  C   UNL     1      30.774  -5.758 -22.385  0.00  0.00    +0.123 C 
BRANCH  22  23
ATOM     23  C   UNL     1      31.779  -5.632 -23.498  0.00  0.00    -0.002 C 
ATOM     24  C   UNL     1      33.053  -5.155 -23.219  0.00  0.00    -0.002 C 
ATOM     25  C   UNL     1      31.420  -5.995 -24.789  0.00  0.00    -0.002 C 
ATOM     26  C   UNL     1      33.985  -5.039 -24.250  0.00  0.00    +0.010 C 
ATOM     27  C   UNL     1      32.351  -5.878 -25.820  0.00  0.00    +0.010 C 
ATOM     28  C   UNL     1      33.634  -5.401 -25.551  0.00  0.00    +0.068 C 
BRANCH  28  30
ATOM     29  N   UNL     1      35.366  -5.186 -27.465  0.00  0.00    -0.191 NA
ATOM     30  C   UNL     1      34.589  -5.282 -26.607  0.00  0.00    +0.100 C 
ENDBRANCH  28  30
ENDBRANCH  22  23
ENDBRANCH  17  22
ENDBRANCH  16  19
ENDBRANCH   2  16
TORSDOF 6
ENDMDL
MODEL 4
REMARK VINA RESULT:     -11.4      2.669      4.530
REMARK  Name = 216454
REMARK  6 active torsions:
REMARK  status: ('A' for Active; 'I' for Inactive)
REMARK    1  A    between atoms: N_2  and  C_16
REMARK    2  A    between atoms: N_3  and  C_10
REMARK    3  A    between atoms: C_16  and  C_19
REMARK    4  A    between atoms: N_17  and  C_22
REMARK    5  A    between atoms: C_22  and  C_23
REMARK    6  A    between atoms: C_28  and  C_30
REMARK                            x       y       z     vdW  Elec       q    Type
REMARK                         _______ _______ _______ _____ _____    ______ ____
ROOT
ATOM      1  O   UNL     1      34.125 -14.694 -20.914  0.00  0.00    -0.277 OA
ATOM      2  N   UNL     1      34.325 -18.145 -21.590  0.00  0.00    +0.398 N 
ATOM      3  N   UNL     1      33.890 -15.746 -22.997  0.00  0.00    -0.262 N 
ATOM      4  C   UNL     1      34.502 -18.172 -23.038  0.00  0.00    -0.054 C 
ATOM      5  C   UNL     1      33.675 -17.048 -23.639  0.00  0.00    +0.075 C 
ATOM      6  C   UNL     1      34.914 -16.917 -21.059  0.00  0.00    +0.011 C 
ATOM      7  C   UNL     1      34.249 -15.683 -21.641  0.00  0.00    +0.208 C 
ATOM      8  H   UNL     1      33.329 -18.166 -21.371  0.00  0.00    -0.078 HD
ENDROOT
BRANCH   3  10
ATOM      9 CL   UNL     1      32.869 -10.693 -22.971  0.00  0.00    -0.082 Cl
ATOM     10  C   UNL     1      33.519 -14.560 -23.736  0.00  0.00    +0.054 C 
ATOM     11  C   UNL     1      33.389 -13.345 -23.072  0.00  0.00    +0.026 C 
ATOM     12  C   UNL     1      33.298 -14.643 -25.107  0.00  0.00    +0.015 C 
ATOM     13  C   UNL     1      33.033 -12.201 -23.786  0.00  0.00    +0.059 C 
ATOM     14  C   UNL     1      32.943 -13.499 -25.822  0.00  0.00    +0.002 C 
ATOM     15  C   UNL     1      32.809 -12.278 -25.161  0.00  0.00    +0.011 C 
ENDBRANCH   3  10
BRANCH   2  16
ATOM     16  C   UNL     1      34.954 -19.313 -20.976  0.00  0.00    -0.032 C 
BRANCH  16  19
ATOM     17  N   UNL     1      34.351 -21.004 -19.232  0.00  0.00    -0.270 N 
ATOM     18  N   UNL     1      32.133 -21.081 -19.329  0.00  0.00    -0.225 NA
ATOM     19  C   UNL     1      33.967 -20.132 -20.187  0.00  0.00    +0.029 C 
ATOM     20  C   UNL     1      32.615 -20.180 -20.246  0.00  0.00    +0.109 C 
ATOM     21  C   UNL     1      33.204 -21.560 -18.736  0.00  0.00    +0.168 C 
BRANCH  17  22
ATOM     22  C   UNL     1      35.692 -21.314 -18.797  0.00  0.00    +0.123 C 
BRANCH  22  23
ATOM     23  C   UNL     1      35.721 -21.710 -17.346  0.00  0.00    -0.002 C 
ATOM     24  C   UNL     1      34.661 -22.432 -16.812  0.00  0.00    -0.002 C 
ATOM     25  C   UNL     1      36.807 -21.351 -16.560  0.00  0.00    -0.002 C 
ATOM     26  C   UNL     1      34.689 -22.800 -15.467  0.00  0.00    +0.010 C 
ATOM     27  C   UNL     1      36.834 -21.719 -15.215  0.00  0.00    +0.010 C 
ATOM     28  C   UNL     1      35.775 -22.444 -14.668  0.00  0.00    +0.068 C 
BRANCH  28  30
ATOM     29  N   UNL     1      35.826 -23.128 -12.170  0.00  0.00    -0.191 NA
ATOM     30  C   UNL     1      35.803 -22.822 -13.291  0.00  0.00    +0.100 C 
ENDBRANCH  28  30
ENDBRANCH  22  23
ENDBRANCH  17  22
ENDBRANCH  16  19
ENDBRANCH   2  16
TORSDOF 6
ENDMDL
MODEL 5
REMARK VINA RESULT:     -11.4      3.819      6.809
REMARK  Name = 216454
REMARK  6 active torsions:
REMARK  status: ('A' for Active; 'I' for Inactive)
REMARK    1  A    between atoms: N_2  and  C_16
REMARK    2  A    between atoms: N_3  and  C_10
REMARK    3  A    between atoms: C_16  and  C_19
REMARK    4  A    between atoms: N_17  and  C_22
REMARK    5  A    between atoms: C_22  and  C_23
REMARK    6  A    between atoms: C_28  and  C_30
REMARK                            x       y       z     vdW  Elec       q    Type
REMARK                         _______ _______ _______ _____ _____    ______ ____
ROOT
ATOM      1  O   UNL     1      36.940 -18.136 -20.986  0.00  0.00    -0.277 OA
ATOM      2  N   UNL     1      34.894 -20.457 -19.302  0.00  0.00    +0.398 N 
ATOM      3  N   UNL     1      34.627 -18.432 -21.239  0.00  0.00    -0.262 N 
ATOM      4  C   UNL     1      33.686 -20.464 -20.120  0.00  0.00    -0.054 C 
ATOM      5  C   UNL     1      33.446 -19.051 -20.624  0.00  0.00    +0.075 C 
ATOM      6  C   UNL     1      36.046 -20.159 -20.151  0.00  0.00    +0.011 C 
ATOM      7  C   UNL     1      35.913 -18.798 -20.812  0.00  0.00    +0.208 C 
ATOM      8  H   UNL     1      34.810 -19.741 -18.580  0.00  0.00    -0.078 HD
ENDROOT
BRANCH   3  10
ATOM      9 CL   UNL     1      34.044 -13.344 -21.822  0.00  0.00    -0.082 Cl
ATOM     10  C   UNL     1      34.417 -17.310 -22.125  0.00  0.00    +0.054 C 
ATOM     11  C   UNL     1      34.341 -16.023 -21.604  0.00  0.00    +0.026 C 
ATOM     12  C   UNL     1      34.294 -17.526 -23.494  0.00  0.00    +0.015 C 
ATOM     13  C   UNL     1      34.140 -14.940 -22.460  0.00  0.00    +0.059 C 
ATOM     14  C   UNL     1      34.093 -16.444 -24.351  0.00  0.00    +0.002 C 
ATOM     15  C   UNL     1      34.015 -15.151 -23.834  0.00  0.00    +0.011 C 
ENDBRANCH   3  10
BRANCH   2  16
ATOM     16  C   UNL     1      35.074 -21.751 -18.644  0.00  0.00    -0.032 C 
BRANCH  16  19
ATOM     17  N   UNL     1      35.429 -22.442 -16.265  0.00  0.00    -0.270 N 
ATOM     18  N   UNL     1      36.908 -20.967 -15.513  0.00  0.00    -0.225 NA
ATOM     19  C   UNL     1      35.710 -21.608 -17.287  0.00  0.00    +0.029 C 
ATOM     20  C   UNL     1      36.612 -20.708 -16.828  0.00  0.00    +0.109 C 
ATOM     21  C   UNL     1      36.179 -22.015 -15.204  0.00  0.00    +0.168 C 
BRANCH  17  22
ATOM     22  C   UNL     1      34.523 -23.566 -16.258  0.00  0.00    +0.123 C 
BRANCH  22  23
ATOM     23  C   UNL     1      33.120 -23.138 -15.920  0.00  0.00    -0.002 C 
ATOM     24  C   UNL     1      32.718 -23.097 -14.591  0.00  0.00    -0.002 C 
ATOM     25  C   UNL     1      32.246 -22.790 -16.941  0.00  0.00    -0.002 C 
ATOM     26  C   UNL     1      31.418 -22.700 -14.278  0.00  0.00    +0.010 C 
ATOM     27  C   UNL     1      30.947 -22.393 -16.628  0.00  0.00    +0.010 C 
ATOM     28  C   UNL     1      30.532 -22.348 -15.296  0.00  0.00    +0.068 C 
BRANCH  28  30
ATOM     29  N   UNL     1      28.118 -21.609 -14.714  0.00  0.00    -0.191 NA
ATOM     30  C   UNL     1      29.201 -21.941 -14.975  0.00  0.00    +0.100 C 
ENDBRANCH  28  30
ENDBRANCH  22  23
ENDBRANCH  17  22
ENDBRANCH  16  19
ENDBRANCH   2  16
TORSDOF 6
ENDMDL
MODEL 6
REMARK VINA RESULT:     -11.4      4.067      7.311
REMARK  Name = 216454
REMARK  6 active torsions:
REMARK  status: ('A' for Active; 'I' for Inactive)
REMARK    1  A    between atoms: N_2  and  C_16
REMARK    2  A    between atoms: N_3  and  C_10
REMARK    3  A    between atoms: C_16  and  C_19
REMARK    4  A    between atoms: N_17  and  C_22
REMARK    5  A    between atoms: C_22  and  C_23
REMARK    6  A    between atoms: C_28  and  C_30
REMARK                            x       y       z     vdW  Elec       q    Type
REMARK                         _______ _______ _______ _____ _____    ______ ____
ROOT
ATOM      1  O   UNL     1      37.003 -17.893 -21.344  0.00  0.00    -0.277 OA
ATOM      2  N   UNL     1      35.395 -20.206 -19.230  0.00  0.00    +0.398 N 
ATOM      3  N   UNL     1      34.765 -18.588 -21.446  0.00  0.00    -0.262 N 
ATOM      4  C   UNL     1      34.189 -20.536 -19.983  0.00  0.00    -0.054 C 
ATOM      5  C   UNL     1      33.712 -19.279 -20.690  0.00  0.00    +0.075 C 
ATOM      6  C   UNL     1      36.466 -19.870 -20.166  0.00  0.00    +0.011 C 
ATOM      7  C   UNL     1      36.101 -18.672 -21.023  0.00  0.00    +0.208 C 
ATOM      8  H   UNL     1      35.208 -19.406 -18.626  0.00  0.00    -0.078 HD
ENDROOT
BRANCH   3  10
ATOM      9 CL   UNL     1      34.026 -13.719 -22.967  0.00  0.00    -0.082 Cl
ATOM     10  C   UNL     1      34.357 -17.671 -22.486  0.00  0.00    +0.054 C 
ATOM     11  C   UNL     1      34.386 -16.301 -22.249  0.00  0.00    +0.026 C 
ATOM     12  C   UNL     1      33.942 -18.166 -23.718  0.00  0.00    +0.015 C 
ATOM     13  C   UNL     1      33.994 -15.417 -23.254  0.00  0.00    +0.059 C 
ATOM     14  C   UNL     1      33.551 -17.282 -24.723  0.00  0.00    +0.002 C 
ATOM     15  C   UNL     1      33.576 -15.907 -24.491  0.00  0.00    +0.011 C 
ENDBRANCH   3  10
BRANCH   2  16
ATOM     16  C   UNL     1      35.795 -21.333 -18.387  0.00  0.00    -0.032 C 
BRANCH  16  19
ATOM     17  N   UNL     1      34.390 -22.308 -16.561  0.00  0.00    -0.270 N 
ATOM     18  N   UNL     1      32.725 -23.288 -17.656  0.00  0.00    -0.225 NA
ATOM     19  C   UNL     1      34.606 -22.102 -17.876  0.00  0.00    +0.029 C 
ATOM     20  C   UNL     1      33.591 -22.701 -18.543  0.00  0.00    +0.109 C 
ATOM     21  C   UNL     1      33.235 -23.034 -16.471  0.00  0.00    +0.168 C 
BRANCH  17  22
ATOM     22  C   UNL     1      35.194 -21.866 -15.447  0.00  0.00    +0.123 C 
BRANCH  22  23
ATOM     23  C   UNL     1      36.321 -22.824 -15.169  0.00  0.00    -0.002 C 
ATOM     24  C   UNL     1      37.598 -22.533 -15.631  0.00  0.00    -0.002 C 
ATOM     25  C   UNL     1      36.069 -23.987 -14.453  0.00  0.00    -0.002 C 
ATOM     26  C   UNL     1      38.642 -23.421 -15.373  0.00  0.00    +0.010 C 
ATOM     27  C   UNL     1      37.113 -24.875 -14.195  0.00  0.00    +0.010 C 
ATOM     28  C   UNL     1      38.400 -24.592 -14.654  0.00  0.00    +0.068 C 
BRANCH  28  30
ATOM     29  N   UNL     1      40.340 -26.240 -14.173  0.00  0.00    -0.191 NA
ATOM     30  C   UNL     1      39.470 -25.501 -14.389  0.00  0.00    +0.100 C 
ENDBRANCH  28  30
ENDBRANCH  22  23
ENDBRANCH  17  22
ENDBRANCH  16  19
ENDBRANCH   2  16
TORSDOF 6
ENDMDL
MODEL 7
REMARK VINA RESULT:     -11.3      4.249      9.460
REMARK  Name = 216454
REMARK  6 active torsions:
REMARK  status: ('A' for Active; 'I' for Inactive)
REMARK    1  A    between atoms: N_2  and  C_16
REMARK    2  A    between atoms: N_3  and  C_10
REMARK    3  A    between atoms: C_16  and  C_19
REMARK    4  A    between atoms: N_17  and  C_22
REMARK    5  A    between atoms: C_22  and  C_23
REMARK    6  A    between atoms: C_28  and  C_30
REMARK                            x       y       z     vdW  Elec       q    Type
REMARK                         _______ _______ _______ _____ _____    ______ ____
ROOT
ATOM      1  O   UNL     1      36.030 -21.595 -18.736  0.00  0.00    -0.277 OA
ATOM      2  N   UNL     1      34.827 -19.554 -21.343  0.00  0.00    +0.398 N 
ATOM      3  N   UNL     1      33.818 -20.897 -19.084  0.00  0.00    -0.262 N 
ATOM      4  C   UNL     1      33.521 -19.139 -20.841  0.00  0.00    -0.054 C 
ATOM      5  C   UNL     1      32.914 -20.304 -20.078  0.00  0.00    +0.075 C 
ATOM      6  C   UNL     1      35.726 -19.773 -20.212  0.00  0.00    +0.011 C 
ATOM      7  C   UNL     1      35.206 -20.861 -19.290  0.00  0.00    +0.208 C 
ATOM      8  H   UNL     1      34.727 -20.421 -21.871  0.00  0.00    -0.078 HD
ENDROOT
BRANCH   3  10
ATOM      9 CL   UNL     1      34.496 -24.056 -15.068  0.00  0.00    -0.082 Cl
ATOM     10  C   UNL     1      33.231 -21.685 -18.023  0.00  0.00    +0.054 C 
ATOM     11  C   UNL     1      34.053 -22.404 -17.162  0.00  0.00    +0.026 C 
ATOM     12  C   UNL     1      31.849 -21.715 -17.871  0.00  0.00    +0.015 C 
ATOM     13  C   UNL     1      33.486 -23.162 -16.138  0.00  0.00    +0.059 C 
ATOM     14  C   UNL     1      31.282 -22.472 -16.847  0.00  0.00    +0.002 C 
ATOM     15  C   UNL     1      32.100 -23.197 -15.980  0.00  0.00    +0.011 C 
ENDBRANCH   3  10
BRANCH   2  16
ATOM     16  C   UNL     1      35.378 -18.536 -22.236  0.00  0.00    -0.032 C 
BRANCH  16  19
ATOM     17  N   UNL     1      34.191 -16.757 -23.537  0.00  0.00    -0.270 N 
ATOM     18  N   UNL     1      32.749 -17.900 -24.780  0.00  0.00    -0.225 NA
ATOM     19  C   UNL     1      34.363 -18.062 -23.242  0.00  0.00    +0.029 C 
ATOM     20  C   UNL     1      33.482 -18.758 -24.000  0.00  0.00    +0.109 C 
ATOM     21  C   UNL     1      33.200 -16.703 -24.477  0.00  0.00    +0.168 C 
BRANCH  17  22
ATOM     22  C   UNL     1      34.895 -15.622 -22.989  0.00  0.00    +0.123 C 
BRANCH  22  23
ATOM     23  C   UNL     1      33.941 -14.540 -22.559  0.00  0.00    -0.002 C 
ATOM     24  C   UNL     1      33.558 -14.454 -21.227  0.00  0.00    -0.002 C 
ATOM     25  C   UNL     1      33.457 -13.641 -23.500  0.00  0.00    -0.002 C 
ATOM     26  C   UNL     1      32.674 -13.452 -20.829  0.00  0.00    +0.010 C 
ATOM     27  C   UNL     1      32.574 -12.638 -23.102  0.00  0.00    +0.010 C 
ATOM     28  C   UNL     1      32.182 -12.543 -21.766  0.00  0.00    +0.068 C 
BRANCH  28  30
ATOM     29  N   UNL     1      30.542 -10.680 -21.026  0.00  0.00    -0.191 NA
ATOM     30  C   UNL     1      31.278 -11.515 -21.357  0.00  0.00    +0.100 C 
ENDBRANCH  28  30
ENDBRANCH  22  23
ENDBRANCH  17  22
ENDBRANCH  16  19
ENDBRANCH   2  16
TORSDOF 6
ENDMDL
MODEL 8
REMARK VINA RESULT:     -11.2      1.592      2.525
REMARK  Name = 216454
REMARK  6 active torsions:
REMARK  status: ('A' for Active; 'I' for Inactive)
REMARK    1  A    between atoms: N_2  and  C_16
REMARK    2  A    between atoms: N_3  and  C_10
REMARK    3  A    between atoms: C_16  and  C_19
REMARK    4  A    between atoms: N_17  and  C_22
REMARK    5  A    between atoms: C_22  and  C_23
REMARK    6  A    between atoms: C_28  and  C_30
REMARK                            x       y       z     vdW  Elec       q    Type
REMARK                         _______ _______ _______ _____ _____    ______ ____
ROOT
ATOM      1  O   UNL     1      33.771 -14.078 -20.693  0.00  0.00    -0.277 OA
ATOM      2  N   UNL     1      33.931 -16.539 -23.208  0.00  0.00    +0.398 N 
ATOM      3  N   UNL     1      33.356 -13.792 -22.984  0.00  0.00    -0.262 N 
ATOM      4  C   UNL     1      33.978 -15.740 -24.428  0.00  0.00    -0.054 C 
ATOM      5  C   UNL     1      33.093 -14.521 -24.232  0.00  0.00    +0.075 C 
ATOM      6  C   UNL     1      34.558 -15.789 -22.121  0.00  0.00    +0.011 C 
ATOM      7  C   UNL     1      33.835 -14.481 -21.858  0.00  0.00    +0.208 C 
ATOM      8  H   UNL     1      32.959 -16.735 -22.970  0.00  0.00    -0.078 HD
ENDROOT
BRANCH   3  10
ATOM      9 CL   UNL     1      30.129 -10.337 -20.930  0.00  0.00    -0.082 Cl
ATOM     10  C   UNL     1      32.913 -12.419 -22.898  0.00  0.00    +0.054 C 
ATOM     11  C   UNL     1      31.859 -12.085 -22.055  0.00  0.00    +0.026 C 
ATOM     12  C   UNL     1      33.547 -11.442 -23.659  0.00  0.00    +0.015 C 
ATOM     13  C   UNL     1      31.434 -10.759 -21.972  0.00  0.00    +0.059 C 
ATOM     14  C   UNL     1      33.122 -10.116 -23.576  0.00  0.00    +0.002 C 
ATOM     15  C   UNL     1      32.065  -9.775 -22.733  0.00  0.00    +0.011 C 
ENDBRANCH   3  10
BRANCH   2  16
ATOM     16  C   UNL     1      34.620 -17.814 -23.405  0.00  0.00    -0.032 C 
BRANCH  16  19
ATOM     17  N   UNL     1      34.875 -19.067 -21.254  0.00  0.00    -0.270 N 
ATOM     18  N   UNL     1      36.921 -18.526 -20.578  0.00  0.00    -0.225 NA
ATOM     19  C   UNL     1      35.389 -18.232 -22.180  0.00  0.00    +0.029 C 
ATOM     20  C   UNL     1      36.636 -17.902 -21.767  0.00  0.00    +0.109 C 
ATOM     21  C   UNL     1      35.840 -19.219 -20.297  0.00  0.00    +0.168 C 
BRANCH  17  22
ATOM     22  C   UNL     1      33.574 -19.692 -21.244  0.00  0.00    +0.123 C 
BRANCH  22  23
ATOM     23  C   UNL     1      33.380 -20.538 -20.014  0.00  0.00    -0.002 C 
ATOM     24  C   UNL     1      34.441 -21.289 -19.526  0.00  0.00    -0.002 C 
ATOM     25  C   UNL     1      32.143 -20.556 -19.384  0.00  0.00    -0.002 C 
ATOM     26  C   UNL     1      34.262 -22.073 -18.386  0.00  0.00    +0.010 C 
ATOM     27  C   UNL     1      31.964 -21.339 -18.244  0.00  0.00    +0.010 C 
ATOM     28  C   UNL     1      33.023 -22.098 -17.745  0.00  0.00    +0.068 C 
BRANCH  28  30
ATOM     29  N   UNL     1      32.691 -23.553 -15.628  0.00  0.00    -0.191 NA
ATOM     30  C   UNL     1      32.840 -22.900 -16.577  0.00  0.00    +0.100 C 
ENDBRANCH  28  30
ENDBRANCH  22  23
ENDBRANCH  17  22
ENDBRANCH  16  19
ENDBRANCH   2  16
TORSDOF 6
ENDMDL
MODEL 9
REMARK VINA RESULT:     -11.2      4.403     11.438
REMARK  Name = 216454
REMARK  6 active torsions:
REMARK  status: ('A' for Active; 'I' for Inactive)
REMARK    1  A    between atoms: N_2  and  C_16
REMARK    2  A    between atoms: N_3  and  C_10
REMARK    3  A    between atoms: C_16  and  C_19
REMARK    4  A    between atoms: N_17  and  C_22
REMARK    5  A    between atoms: C_22  and  C_23
REMARK    6  A    between atoms: C_28  and  C_30
REMARK                            x       y       z     vdW  Elec       q    Type
REMARK                         _______ _______ _______ _____ _____    ______ ____
ROOT
ATOM      1  O   UNL     1      31.586 -12.775 -20.132  0.00  0.00    -0.277 OA
ATOM      2  N   UNL     1      31.765  -9.817 -22.036  0.00  0.00    +0.398 N 
ATOM      3  N   UNL     1      32.677 -12.476 -22.187  0.00  0.00    -0.262 N 
ATOM      4  C   UNL     1      32.195 -10.308 -23.342  0.00  0.00    -0.054 C 
ATOM      5  C   UNL     1      33.168 -11.455 -23.121  0.00  0.00    +0.075 C 
ATOM      6  C   UNL     1      30.980 -10.855 -21.370  0.00  0.00    +0.011 C 
ATOM      7  C   UNL     1      31.795 -12.118 -21.156  0.00  0.00    +0.208 C 
ATOM      8  H   UNL     1      32.585  -9.596 -21.472  0.00  0.00    -0.078 HD
ENDROOT
BRANCH   3  10
ATOM      9 CL   UNL     1      33.994 -16.605 -24.978  0.00  0.00    -0.082 Cl
ATOM     10  C   UNL     1      33.288 -13.786 -22.238  0.00  0.00    +0.054 C 
ATOM     11  C   UNL     1      33.338 -14.478 -23.442  0.00  0.00    +0.026 C 
ATOM     12  C   UNL     1      33.823 -14.341 -21.080  0.00  0.00    +0.015 C 
ATOM     13  C   UNL     1      33.929 -15.741 -23.490  0.00  0.00    +0.059 C 
ATOM     14  C   UNL     1      34.414 -15.604 -21.127  0.00  0.00    +0.002 C 
ATOM     15  C   UNL     1      34.466 -16.304 -22.332  0.00  0.00    +0.011 C 
ENDBRANCH   3  10
BRANCH   2  16
ATOM     16  C   UNL     1      30.969  -8.600 -22.185  0.00  0.00    -0.032 C 
BRANCH  16  19
ATOM     17  N   UNL     1      31.265  -6.219 -21.474  0.00  0.00    -0.270 N 
ATOM     18  N   UNL     1      32.131  -6.390 -19.436  0.00  0.00    -0.225 NA
ATOM     19  C   UNL     1      31.383  -7.535 -21.204  0.00  0.00    +0.029 C 
ATOM     20  C   UNL     1      31.912  -7.639 -19.962  0.00  0.00    +0.109 C 
ATOM     21  C   UNL     1      31.732  -5.558 -20.371  0.00  0.00    +0.168 C 
BRANCH  17  22
ATOM     22  C   UNL     1      30.754  -5.598 -22.673  0.00  0.00    +0.123 C 
BRANCH  22  23
ATOM     23  C   UNL     1      31.814  -5.506 -23.738  0.00  0.00    -0.002 C 
ATOM     24  C   UNL     1      31.518  -5.902 -25.035  0.00  0.00    -0.002 C 
ATOM     25  C   UNL     1      33.073  -5.024 -23.408  0.00  0.00    -0.002 C 
ATOM     26  C   UNL     1      32.500  -5.815 -26.022  0.00  0.00    +0.010 C 
ATOM     27  C   UNL     1      34.055  -4.937 -24.395  0.00  0.00    +0.010 C 
ATOM     28  C   UNL     1      33.769  -5.332 -25.702  0.00  0.00    +0.068 C 
BRANCH  28  30
ATOM     29  N   UNL     1      35.593  -5.170 -27.534  0.00  0.00    -0.191 NA
ATOM     30  C   UNL     1      34.774  -5.243 -26.713  0.00  0.00    +0.100 C 
ENDBRANCH  28  30
ENDBRANCH  22  23
ENDBRANCH  17  22
ENDBRANCH  16  19
ENDBRANCH   2  16
TORSDOF 6
ENDMDL
