MODEL 1
REMARK VINA RESULT:     -10.9      0.000      0.000
REMARK  Name = 447700
REMARK  4 active torsions:
REMARK  status: ('A' for Active; 'I' for Inactive)
REMARK    1  A    between atoms: N_4  and  C_23
REMARK    2  A    between atoms: C_7  and  C_17
REMARK    3  A    between atoms: C_25  and  C_29
REMARK    4  A    between atoms: C_29  and  O_30
REMARK                            x       y       z     vdW  Elec       q    Type
REMARK                         _______ _______ _______ _____ _____    ______ ____
ROOT
ATOM      1  O   UNL     1      32.641 -11.296 -20.348  0.00  0.00    -0.270 OA
ATOM      2  N   UNL     1      33.271 -13.303 -21.331  0.00  0.00    -0.228 N 
ATOM      3  N   UNL     1      33.887 -15.360 -22.425  0.00  0.00    -0.322 NA
ATOM      4  N   UNL     1      34.482 -17.360 -23.499  0.00  0.00    -0.247 N 
ATOM      5  N   UNL     1      33.822 -15.542 -24.823  0.00  0.00    -0.170 NA
ATOM      6  C   UNL     1      33.464 -14.075 -22.516  0.00  0.00    +0.204 C 
ATOM      7  C   UNL     1      32.572 -11.372 -22.709  0.00  0.00    +0.056 C 
ATOM      8  C   UNL     1      33.206 -13.477 -23.740  0.00  0.00    +0.065 C 
ATOM      9  C   UNL     1      32.831 -11.977 -21.358  0.00  0.00    +0.255 C 
ATOM     10  C   UNL     1      32.758 -12.099 -23.820  0.00  0.00    +0.010 C 
ATOM     11  C   UNL     1      33.549 -13.960 -20.056  0.00  0.00    +0.123 C 
ATOM     12  C   UNL     1      33.404 -14.261 -24.866  0.00  0.00    +0.116 C 
ATOM     13  C   UNL     1      34.042 -16.020 -23.588  0.00  0.00    +0.150 C 
ATOM     14  H   UNL     1      34.581 -17.803 -24.372  0.00  0.00    +0.165 HD
ENDROOT
BRANCH   7  17
ATOM     15 CL   UNL     1      34.592  -9.396 -23.896  0.00  0.00    -0.082 Cl
ATOM     16 CL   UNL     1      29.730 -10.735 -21.753  0.00  0.00    -0.082 Cl
ATOM     17  C   UNL     1      32.132  -9.970 -22.832  0.00  0.00    +0.026 C 
ATOM     18  C   UNL     1      32.993  -9.004 -23.363  0.00  0.00    +0.059 C 
ATOM     19  C   UNL     1      30.848  -9.595 -22.419  0.00  0.00    +0.059 C 
ATOM     20  C   UNL     1      32.577  -7.678 -23.479  0.00  0.00    +0.011 C 
ATOM     21  C   UNL     1      30.433  -8.268 -22.535  0.00  0.00    +0.011 C 
ATOM     22  C   UNL     1      31.297  -7.310 -23.065  0.00  0.00    +0.002 C 
ENDBRANCH   7  17
BRANCH   4  23
ATOM     23  C   UNL     1      34.806 -18.184 -22.405  0.00  0.00    +0.057 C 
ATOM     24  C   UNL     1      33.820 -18.963 -21.797  0.00  0.00    +0.013 C 
ATOM     25  C   UNL     1      34.142 -19.779 -20.713  0.00  0.00    +0.008 C 
ATOM     26  C   UNL     1      36.116 -18.224 -21.923  0.00  0.00    +0.015 C 
ATOM     27  C   UNL     1      35.451 -19.818 -20.234  0.00  0.00    -0.002 C 
ATOM     28  C   UNL     1      36.439 -19.041 -20.839  0.00  0.00    +0.001 C 
BRANCH  25  29
ATOM     29  C   UNL     1      33.087 -20.610 -20.065  0.00  0.00    +0.164 C 
BRANCH  29  30
ATOM     30  O   UNL     1      31.810 -20.219 -20.556  0.00  0.00    -0.377 OA
ATOM     31  H   UNL     1      31.922 -19.568 -21.266  0.00  0.00    +0.211 HD
ENDBRANCH  29  30
ENDBRANCH  25  29
ENDBRANCH   4  23
TORSDOF 4
ENDMDL
MODEL 2
REMARK VINA RESULT:     -10.5      3.719      5.794
REMARK  Name = 447700
REMARK  4 active torsions:
REMARK  status: ('A' for Active; 'I' for Inactive)
REMARK    1  A    between atoms: N_4  and  C_23
REMARK    2  A    between atoms: C_7  and  C_17
REMARK    3  A    between atoms: C_25  and  C_29
REMARK    4  A    between atoms: C_29  and  O_30
REMARK                            x       y       z     vdW  Elec       q    Type
REMARK                         _______ _______ _______ _____ _____    ______ ____
ROOT
ATOM      1  O   UNL     1      34.187  -6.506 -24.200  0.00  0.00    -0.270 OA
ATOM      2  N   UNL     1      33.303  -8.498 -23.397  0.00  0.00    -0.228 N 
ATOM      3  N   UNL     1      32.324 -10.519 -22.523  0.00  0.00    -0.322 NA
ATOM      4  N   UNL     1      31.364 -12.481 -21.666  0.00  0.00    -0.247 N 
ATOM      5  N   UNL     1      30.093 -10.512 -21.622  0.00  0.00    -0.170 NA
ATOM      6  C   UNL     1      32.213  -9.195 -22.793  0.00  0.00    +0.204 C 
ATOM      7  C   UNL     1      31.980  -6.409 -23.360  0.00  0.00    +0.056 C 
ATOM      8  C   UNL     1      31.061  -8.484 -22.496  0.00  0.00    +0.065 C 
ATOM      9  C   UNL     1      33.253  -7.134 -23.694  0.00  0.00    +0.255 C 
ATOM     10  C   UNL     1      30.957  -7.068 -22.796  0.00  0.00    +0.010 C 
ATOM     11  C   UNL     1      34.505  -9.273 -23.695  0.00  0.00    +0.123 C 
ATOM     12  C   UNL     1      30.027  -9.197 -21.909  0.00  0.00    +0.116 C 
ATOM     13  C   UNL     1      31.254 -11.102 -21.951  0.00  0.00    +0.150 C 
ATOM     14  H   UNL     1      30.559 -12.865 -21.249  0.00  0.00    +0.165 HD
ENDROOT
BRANCH   7  17
ATOM     15 CL   UNL     1      31.838  -4.502 -20.965  0.00  0.00    -0.082 Cl
ATOM     16 CL   UNL     1      31.844  -5.641 -26.324  0.00  0.00    -0.082 Cl
ATOM     17  C   UNL     1      31.830  -4.974 -23.665  0.00  0.00    +0.026 C 
ATOM     18  C   UNL     1      31.756  -4.037 -22.630  0.00  0.00    +0.059 C 
ATOM     19  C   UNL     1      31.760  -4.539 -24.993  0.00  0.00    +0.059 C 
ATOM     20  C   UNL     1      31.613  -2.679 -22.918  0.00  0.00    +0.011 C 
ATOM     21  C   UNL     1      31.617  -3.181 -25.281  0.00  0.00    +0.011 C 
ATOM     22  C   UNL     1      31.544  -2.251 -24.244  0.00  0.00    +0.002 C 
ENDBRANCH   7  17
BRANCH   4  23
ATOM     23  C   UNL     1      32.400 -13.413 -21.862  0.00  0.00    +0.057 C 
ATOM     24  C   UNL     1      32.738 -13.827 -23.152  0.00  0.00    +0.013 C 
ATOM     25  C   UNL     1      33.764 -14.751 -23.344  0.00  0.00    +0.008 C 
ATOM     26  C   UNL     1      33.094 -13.929 -20.764  0.00  0.00    +0.015 C 
ATOM     27  C   UNL     1      34.456 -15.264 -22.247  0.00  0.00    -0.002 C 
ATOM     28  C   UNL     1      34.122 -14.852 -20.957  0.00  0.00    +0.001 C 
BRANCH  25  29
ATOM     29  C   UNL     1      34.123 -15.191 -24.723  0.00  0.00    +0.164 C 
BRANCH  29  30
ATOM     30  O   UNL     1      32.952 -15.210 -25.532  0.00  0.00    -0.377 OA
ATOM     31  H   UNL     1      32.269 -14.655 -25.125  0.00  0.00    +0.211 HD
ENDBRANCH  29  30
ENDBRANCH  25  29
ENDBRANCH   4  23
TORSDOF 4
ENDMDL
MODEL 3
REMARK VINA RESULT:     -10.4      7.272     12.517
REMARK  Name = 447700
REMARK  4 active torsions:
REMARK  status: ('A' for Active; 'I' for Inactive)
REMARK    1  A    between atoms: N_4  and  C_23
REMARK    2  A    between atoms: C_7  and  C_17
REMARK    3  A    between atoms: C_25  and  C_29
REMARK    4  A    between atoms: C_29  and  O_30
REMARK                            x       y       z     vdW  Elec       q    Type
REMARK                         _______ _______ _______ _____ _____    ______ ____
ROOT
ATOM      1  O   UNL     1      37.473 -21.983 -14.507  0.00  0.00    -0.270 OA
ATOM      2  N   UNL     1      36.223 -21.512 -16.406  0.00  0.00    -0.228 N 
ATOM      3  N   UNL     1      34.882 -21.098 -18.365  0.00  0.00    -0.322 NA
ATOM      4  N   UNL     1      33.573 -20.705 -20.273  0.00  0.00    -0.247 N 
ATOM      5  N   UNL     1      32.850 -22.328 -18.744  0.00  0.00    -0.170 NA
ATOM      6  C   UNL     1      35.075 -21.781 -17.210  0.00  0.00    +0.204 C 
ATOM      7  C   UNL     1      35.479 -23.220 -14.781  0.00  0.00    +0.056 C 
ATOM      8  C   UNL     1      34.181 -22.749 -16.779  0.00  0.00    +0.065 C 
ATOM      9  C   UNL     1      36.481 -22.186 -15.210  0.00  0.00    +0.255 C 
ATOM     10  C   UNL     1      34.399 -23.468 -15.537  0.00  0.00    +0.010 C 
ATOM     11  C   UNL     1      37.148 -20.489 -16.888  0.00  0.00    +0.123 C 
ATOM     12  C   UNL     1      33.081 -22.982 -17.589  0.00  0.00    +0.116 C 
ATOM     13  C   UNL     1      33.777 -21.412 -19.067  0.00  0.00    +0.150 C 
ATOM     14  H   UNL     1      32.753 -20.967 -20.752  0.00  0.00    +0.165 HD
ENDROOT
BRANCH   7  17
ATOM     15 CL   UNL     1      33.430 -22.674 -12.567  0.00  0.00    -0.082 Cl
ATOM     16 CL   UNL     1      37.858 -25.147 -14.640  0.00  0.00    -0.082 Cl
ATOM     17  C   UNL     1      35.657 -23.960 -13.518  0.00  0.00    +0.026 C 
ATOM     18  C   UNL     1      34.767 -23.769 -12.456  0.00  0.00    +0.059 C 
ATOM     19  C   UNL     1      36.718 -24.860 -13.371  0.00  0.00    +0.059 C 
ATOM     20  C   UNL     1      34.935 -24.467 -11.261  0.00  0.00    +0.011 C 
ATOM     21  C   UNL     1      36.887 -25.559 -12.175  0.00  0.00    +0.011 C 
ATOM     22  C   UNL     1      35.995 -25.363 -11.120  0.00  0.00    +0.002 C 
ENDBRANCH   7  17
BRANCH   4  23
ATOM     23  C   UNL     1      34.312 -19.697 -20.921  0.00  0.00    +0.057 C 
ATOM     24  C   UNL     1      33.769 -19.025 -22.018  0.00  0.00    +0.013 C 
ATOM     25  C   UNL     1      34.502 -18.028 -22.660  0.00  0.00    +0.008 C 
ATOM     26  C   UNL     1      35.592 -19.368 -20.470  0.00  0.00    +0.015 C 
ATOM     27  C   UNL     1      35.780 -17.700 -22.208  0.00  0.00    -0.002 C 
ATOM     28  C   UNL     1      36.325 -18.370 -21.112  0.00  0.00    +0.001 C 
BRANCH  25  29
ATOM     29  C   UNL     1      33.920 -17.311 -23.832  0.00  0.00    +0.164 C 
BRANCH  29  30
ATOM     30  O   UNL     1      34.579 -16.061 -23.995  0.00  0.00    -0.377 OA
ATOM     31  H   UNL     1      34.315 -15.461 -23.281  0.00  0.00    +0.211 HD
ENDBRANCH  29  30
ENDBRANCH  25  29
ENDBRANCH   4  23
TORSDOF 4
ENDMDL
MODEL 4
REMARK VINA RESULT:     -10.2      3.900     10.161
REMARK  Name = 447700
REMARK  4 active torsions:
REMARK  status: ('A' for Active; 'I' for Inactive)
REMARK    1  A    between atoms: N_4  and  C_23
REMARK    2  A    between atoms: C_7  and  C_17
REMARK    3  A    between atoms: C_25  and  C_29
REMARK    4  A    between atoms: C_29  and  O_30
REMARK                            x       y       z     vdW  Elec       q    Type
REMARK                         _______ _______ _______ _____ _____    ______ ____
ROOT
ATOM      1  O   UNL     1      31.148 -12.359 -21.986  0.00  0.00    -0.270 OA
ATOM      2  N   UNL     1      31.733 -10.141 -22.348  0.00  0.00    -0.228 N 
ATOM      3  N   UNL     1      32.421  -7.865 -22.741  0.00  0.00    -0.322 NA
ATOM      4  N   UNL     1      33.101  -5.652 -23.125  0.00  0.00    -0.247 N 
ATOM      5  N   UNL     1      34.480  -7.386 -23.890  0.00  0.00    -0.170 NA
ATOM      6  C   UNL     1      32.662  -9.193 -22.872  0.00  0.00    +0.204 C 
ATOM      7  C   UNL     1      33.173 -11.986 -23.146  0.00  0.00    +0.056 C 
ATOM      8  C   UNL     1      33.801  -9.668 -23.505  0.00  0.00    +0.065 C 
ATOM      9  C   UNL     1      31.928 -11.520 -22.445  0.00  0.00    +0.255 C 
ATOM     10  C   UNL     1      34.042 -11.092 -23.640  0.00  0.00    +0.010 C 
ATOM     11  C   UNL     1      30.544  -9.610 -21.685  0.00  0.00    +0.123 C 
ATOM     12  C   UNL     1      34.679  -8.715 -23.997  0.00  0.00    +0.116 C 
ATOM     13  C   UNL     1      33.347  -7.037 -23.260  0.00  0.00    +0.150 C 
ATOM     14  H   UNL     1      33.804  -5.085 -23.519  0.00  0.00    +0.165 HD
ENDROOT
BRANCH   7  17
ATOM     15 CL   UNL     1      34.184 -13.499 -20.680  0.00  0.00    -0.082 Cl
ATOM     16 CL   UNL     1      32.667 -13.156 -25.934  0.00  0.00    -0.082 Cl
ATOM     17  C   UNL     1      33.445 -13.425 -23.319  0.00  0.00    +0.026 C 
ATOM     18  C   UNL     1      33.910 -14.189 -22.244  0.00  0.00    +0.059 C 
ATOM     19  C   UNL     1      33.240 -14.038 -24.560  0.00  0.00    +0.059 C 
ATOM     20  C   UNL     1      34.168 -15.550 -22.407  0.00  0.00    +0.011 C 
ATOM     21  C   UNL     1      33.499 -15.399 -24.723  0.00  0.00    +0.011 C 
ATOM     22  C   UNL     1      33.962 -16.155 -23.646  0.00  0.00    +0.002 C 
ENDBRANCH   7  17
BRANCH   4  23
ATOM     23  C   UNL     1      32.048  -4.925 -22.539  0.00  0.00    +0.057 C 
ATOM     24  C   UNL     1      31.582  -3.755 -23.141  0.00  0.00    +0.013 C 
ATOM     25  C   UNL     1      30.539  -3.036 -22.559  0.00  0.00    +0.008 C 
ATOM     26  C   UNL     1      31.466  -5.373 -21.351  0.00  0.00    +0.015 C 
ATOM     27  C   UNL     1      29.958  -3.485 -21.373  0.00  0.00    -0.002 C 
ATOM     28  C   UNL     1      30.421  -4.655 -20.769  0.00  0.00    +0.001 C 
BRANCH  25  29
ATOM     29  C   UNL     1      30.044  -1.786 -23.204  0.00  0.00    +0.164 C 
BRANCH  29  30
ATOM     30  O   UNL     1      29.670  -2.063 -24.548  0.00  0.00    -0.377 OA
ATOM     31  H   UNL     1      30.094  -2.885 -24.839  0.00  0.00    +0.211 HD
ENDBRANCH  29  30
ENDBRANCH  25  29
ENDBRANCH   4  23
TORSDOF 4
ENDMDL
MODEL 5
REMARK VINA RESULT:      -9.8      1.608      2.709
REMARK  Name = 447700
REMARK  4 active torsions:
REMARK  status: ('A' for Active; 'I' for Inactive)
REMARK    1  A    between atoms: N_4  and  C_23
REMARK    2  A    between atoms: C_7  and  C_17
REMARK    3  A    between atoms: C_25  and  C_29
REMARK    4  A    between atoms: C_29  and  O_30
REMARK                            x       y       z     vdW  Elec       q    Type
REMARK                         _______ _______ _______ _____ _____    ______ ____
ROOT
ATOM      1  O   UNL     1      32.470 -10.794 -20.669  0.00  0.00    -0.270 OA
ATOM      2  N   UNL     1      32.910 -12.670 -21.965  0.00  0.00    -0.228 N 
ATOM      3  N   UNL     1      33.331 -14.575 -23.379  0.00  0.00    -0.322 NA
ATOM      4  N   UNL     1      33.736 -16.426 -24.763  0.00  0.00    -0.247 N 
ATOM      5  N   UNL     1      33.280 -14.361 -25.774  0.00  0.00    -0.170 NA
ATOM      6  C   UNL     1      33.040 -13.257 -23.259  0.00  0.00    +0.204 C 
ATOM      7  C   UNL     1      32.426 -10.482 -23.011  0.00  0.00    +0.056 C 
ATOM      8  C   UNL     1      32.860 -12.447 -24.370  0.00  0.00    +0.065 C 
ATOM      9  C   UNL     1      32.604 -11.320 -21.776  0.00  0.00    +0.255 C 
ATOM     10  C   UNL     1      32.553 -11.036 -24.226  0.00  0.00    +0.010 C 
ATOM     11  C   UNL     1      33.102 -13.549 -20.814  0.00  0.00    +0.123 C 
ATOM     12  C   UNL     1      32.993 -13.055 -25.608  0.00  0.00    +0.116 C 
ATOM     13  C   UNL     1      33.435 -15.052 -24.633  0.00  0.00    +0.150 C 
ATOM     14  H   UNL     1      33.803 -16.731 -25.697  0.00  0.00    +0.165 HD
ENDROOT
BRANCH   7  17
ATOM     15 CL   UNL     1      29.610  -9.722 -22.068  0.00  0.00    -0.082 Cl
ATOM     16 CL   UNL     1      34.692  -8.556 -23.754  0.00  0.00    -0.082 Cl
ATOM     17  C   UNL     1      32.131  -9.041 -22.905  0.00  0.00    +0.026 C 
ATOM     18  C   UNL     1      30.869  -8.609 -22.483  0.00  0.00    +0.059 C 
ATOM     19  C   UNL     1      33.110  -8.094 -23.226  0.00  0.00    +0.059 C 
ATOM     20  C   UNL     1      30.589  -7.246 -22.384  0.00  0.00    +0.011 C 
ATOM     21  C   UNL     1      32.830  -6.732 -23.126  0.00  0.00    +0.011 C 
ATOM     22  C   UNL     1      31.569  -6.307 -22.705  0.00  0.00    +0.002 C 
ENDBRANCH   7  17
BRANCH   4  23
ATOM     23  C   UNL     1      33.961 -17.444 -23.818  0.00  0.00    +0.057 C 
ATOM     24  C   UNL     1      35.035 -17.354 -22.930  0.00  0.00    +0.013 C 
ATOM     25  C   UNL     1      35.256 -18.363 -21.994  0.00  0.00    +0.008 C 
ATOM     26  C   UNL     1      33.110 -18.551 -23.766  0.00  0.00    +0.015 C 
ATOM     27  C   UNL     1      34.405 -19.466 -21.943  0.00  0.00    -0.002 C 
ATOM     28  C   UNL     1      33.331 -19.560 -22.828  0.00  0.00    +0.001 C 
BRANCH  25  29
ATOM     29  C   UNL     1      36.405 -18.264 -21.047  0.00  0.00    +0.164 C 
BRANCH  29  30
ATOM     30  O   UNL     1      37.580 -17.910 -21.766  0.00  0.00    -0.377 OA
ATOM     31  H   UNL     1      37.953 -17.095 -21.397  0.00  0.00    +0.211 HD
ENDBRANCH  29  30
ENDBRANCH  25  29
ENDBRANCH   4  23
TORSDOF 4
ENDMDL
MODEL 6
REMARK VINA RESULT:      -9.5      5.386      8.372
REMARK  Name = 447700
REMARK  4 active torsions:
REMARK  status: ('A' for Active; 'I' for Inactive)
REMARK    1  A    between atoms: N_4  and  C_23
REMARK    2  A    between atoms: C_7  and  C_17
REMARK    3  A    between atoms: C_25  and  C_29
REMARK    4  A    between atoms: C_29  and  O_30
REMARK                            x       y       z     vdW  Elec       q    Type
REMARK                         _______ _______ _______ _____ _____    ______ ____
ROOT
ATOM      1  O   UNL     1      36.597 -18.284 -20.802  0.00  0.00    -0.270 OA
ATOM      2  N   UNL     1      35.594 -19.863 -19.426  0.00  0.00    -0.228 N 
ATOM      3  N   UNL     1      34.474 -21.473 -18.026  0.00  0.00    -0.322 NA
ATOM      4  N   UNL     1      33.375 -23.037 -16.665  0.00  0.00    -0.247 N 
ATOM      5  N   UNL     1      32.162 -22.025 -18.396  0.00  0.00    -0.170 NA
ATOM      6  C   UNL     1      34.429 -20.607 -19.067  0.00  0.00    +0.204 C 
ATOM      7  C   UNL     1      34.332 -18.782 -21.258  0.00  0.00    +0.056 C 
ATOM      8  C   UNL     1      33.272 -20.414 -19.806  0.00  0.00    +0.065 C 
ATOM      9  C   UNL     1      35.609 -18.950 -20.484  0.00  0.00    +0.255 C 
ATOM     10  C   UNL     1      33.241 -19.486 -20.921  0.00  0.00    +0.010 C 
ATOM     11  C   UNL     1      36.797 -20.085 -18.628  0.00  0.00    +0.123 C 
ATOM     12  C   UNL     1      32.164 -21.153 -19.424  0.00  0.00    +0.116 C 
ATOM     13  C   UNL     1      33.334 -22.134 -17.750  0.00  0.00    +0.150 C 
ATOM     14  H   UNL     1      32.521 -23.498 -16.500  0.00  0.00    +0.165 HD
ENDROOT
BRANCH   7  17
ATOM     15 CL   UNL     1      34.325 -15.784 -20.620  0.00  0.00    -0.082 Cl
ATOM     16 CL   UNL     1      34.218 -20.063 -24.040  0.00  0.00    -0.082 Cl
ATOM     17  C   UNL     1      34.266 -17.861 -22.408  0.00  0.00    +0.026 C 
ATOM     18  C   UNL     1      34.258 -16.478 -22.205  0.00  0.00    +0.059 C 
ATOM     19  C   UNL     1      34.212 -18.365 -23.713  0.00  0.00    +0.059 C 
ATOM     20  C   UNL     1      34.194 -15.606 -23.292  0.00  0.00    +0.011 C 
ATOM     21  C   UNL     1      34.148 -17.493 -24.800  0.00  0.00    +0.011 C 
ATOM     22  C   UNL     1      34.140 -16.114 -24.590  0.00  0.00    +0.002 C 
ENDBRANCH   7  17
BRANCH   4  23
ATOM     23  C   UNL     1      34.400 -23.408 -15.774  0.00  0.00    +0.057 C 
ATOM     24  C   UNL     1      34.853 -24.728 -15.734  0.00  0.00    +0.013 C 
ATOM     25  C   UNL     1      35.867 -25.093 -14.851  0.00  0.00    +0.008 C 
ATOM     26  C   UNL     1      34.966 -22.455 -14.924  0.00  0.00    +0.015 C 
ATOM     27  C   UNL     1      36.432 -24.140 -14.004  0.00  0.00    -0.002 C 
ATOM     28  C   UNL     1      35.982 -22.820 -14.041  0.00  0.00    +0.001 C 
BRANCH  25  29
ATOM     29  C   UNL     1      36.349 -26.505 -14.810  0.00  0.00    +0.164 C 
BRANCH  29  30
ATOM     30  O   UNL     1      36.392 -27.027 -16.132  0.00  0.00    -0.377 OA
ATOM     31  H   UNL     1      35.928 -26.424 -16.734  0.00  0.00    +0.211 HD
ENDBRANCH  29  30
ENDBRANCH  25  29
ENDBRANCH   4  23
TORSDOF 4
ENDMDL
MODEL 7
REMARK VINA RESULT:      -9.4      5.383      8.363
REMARK  Name = 447700
REMARK  4 active torsions:
REMARK  status: ('A' for Active; 'I' for Inactive)
REMARK    1  A    between atoms: N_4  and  C_23
REMARK    2  A    between atoms: C_7  and  C_17
REMARK    3  A    between atoms: C_25  and  C_29
REMARK    4  A    between atoms: C_29  and  O_30
REMARK                            x       y       z     vdW  Elec       q    Type
REMARK                         _______ _______ _______ _____ _____    ______ ____
ROOT
ATOM      1  O   UNL     1      36.596 -18.285 -20.808  0.00  0.00    -0.270 OA
ATOM      2  N   UNL     1      35.593 -19.862 -19.430  0.00  0.00    -0.228 N 
ATOM      3  N   UNL     1      34.474 -21.471 -18.028  0.00  0.00    -0.322 NA
ATOM      4  N   UNL     1      33.375 -23.034 -16.665  0.00  0.00    -0.247 N 
ATOM      5  N   UNL     1      32.160 -22.019 -18.394  0.00  0.00    -0.170 NA
ATOM      6  C   UNL     1      34.429 -20.604 -19.069  0.00  0.00    +0.204 C 
ATOM      7  C   UNL     1      34.330 -18.780 -21.260  0.00  0.00    +0.056 C 
ATOM      8  C   UNL     1      33.270 -20.410 -19.805  0.00  0.00    +0.065 C 
ATOM      9  C   UNL     1      35.608 -18.950 -20.487  0.00  0.00    +0.255 C 
ATOM     10  C   UNL     1      33.239 -19.481 -20.921  0.00  0.00    +0.010 C 
ATOM     11  C   UNL     1      36.797 -20.086 -18.634  0.00  0.00    +0.123 C 
ATOM     12  C   UNL     1      32.161 -21.148 -19.422  0.00  0.00    +0.116 C 
ATOM     13  C   UNL     1      33.333 -22.130 -17.750  0.00  0.00    +0.150 C 
ATOM     14  H   UNL     1      32.520 -23.493 -16.499  0.00  0.00    +0.165 HD
ENDROOT
BRANCH   7  17
ATOM     15 CL   UNL     1      34.211 -20.060 -24.042  0.00  0.00    -0.082 Cl
ATOM     16 CL   UNL     1      34.325 -15.782 -20.620  0.00  0.00    -0.082 Cl
ATOM     17  C   UNL     1      34.264 -17.859 -22.409  0.00  0.00    +0.026 C 
ATOM     18  C   UNL     1      34.208 -18.360 -23.714  0.00  0.00    +0.059 C 
ATOM     19  C   UNL     1      34.257 -16.474 -22.205  0.00  0.00    +0.059 C 
ATOM     20  C   UNL     1      34.146 -17.489 -24.801  0.00  0.00    +0.011 C 
ATOM     21  C   UNL     1      34.195 -15.603 -23.292  0.00  0.00    +0.011 C 
ATOM     22  C   UNL     1      34.139 -16.111 -24.591  0.00  0.00    +0.002 C 
ENDBRANCH   7  17
BRANCH   4  23
ATOM     23  C   UNL     1      34.400 -23.406 -15.775  0.00  0.00    +0.057 C 
ATOM     24  C   UNL     1      34.850 -24.727 -15.736  0.00  0.00    +0.013 C 
ATOM     25  C   UNL     1      35.866 -25.094 -14.854  0.00  0.00    +0.008 C 
ATOM     26  C   UNL     1      34.970 -22.453 -14.927  0.00  0.00    +0.015 C 
ATOM     27  C   UNL     1      36.434 -24.141 -14.009  0.00  0.00    -0.002 C 
ATOM     28  C   UNL     1      35.987 -22.820 -14.046  0.00  0.00    +0.001 C 
BRANCH  25  29
ATOM     29  C   UNL     1      36.345 -26.506 -14.814  0.00  0.00    +0.164 C 
BRANCH  29  30
ATOM     30  O   UNL     1      36.385 -27.029 -16.136  0.00  0.00    -0.377 OA
ATOM     31  H   UNL     1      35.482 -27.201 -16.444  0.00  0.00    +0.211 HD
ENDBRANCH  29  30
ENDBRANCH  25  29
ENDBRANCH   4  23
TORSDOF 4
ENDMDL
MODEL 8
REMARK VINA RESULT:      -8.9      3.332      5.570
REMARK  Name = 447700
REMARK  4 active torsions:
REMARK  status: ('A' for Active; 'I' for Inactive)
REMARK    1  A    between atoms: N_4  and  C_23
REMARK    2  A    between atoms: C_7  and  C_17
REMARK    3  A    between atoms: C_25  and  C_29
REMARK    4  A    between atoms: C_29  and  O_30
REMARK                            x       y       z     vdW  Elec       q    Type
REMARK                         _______ _______ _______ _____ _____    ______ ____
ROOT
ATOM      1  O   UNL     1      34.163  -6.381 -24.269  0.00  0.00    -0.270 OA
ATOM      2  N   UNL     1      33.318  -8.408 -23.515  0.00  0.00    -0.228 N 
ATOM      3  N   UNL     1      32.381 -10.467 -22.685  0.00  0.00    -0.322 NA
ATOM      4  N   UNL     1      31.462 -12.468 -21.871  0.00  0.00    -0.247 N 
ATOM      5  N   UNL     1      30.201 -10.502 -21.667  0.00  0.00    -0.170 NA
ATOM      6  C   UNL     1      32.260  -9.132 -22.887  0.00  0.00    +0.204 C 
ATOM      7  C   UNL     1      32.005  -6.323 -23.309  0.00  0.00    +0.056 C 
ATOM      8  C   UNL     1      31.127  -8.436 -22.496  0.00  0.00    +0.065 C 
ATOM      9  C   UNL     1      33.257  -7.032 -23.744  0.00  0.00    +0.255 C 
ATOM     10  C   UNL     1      31.011  -7.007 -22.723  0.00  0.00    +0.010 C 
ATOM     11  C   UNL     1      34.500  -9.169 -23.913  0.00  0.00    +0.123 C 
ATOM     12  C   UNL     1      30.124  -9.175 -21.889  0.00  0.00    +0.116 C 
ATOM     13  C   UNL     1      31.341 -11.077 -22.085  0.00  0.00    +0.150 C 
ATOM     14  H   UNL     1      30.679 -12.870 -21.431  0.00  0.00    +0.165 HD
ENDROOT
BRANCH   7  17
ATOM     15 CL   UNL     1      31.911  -5.394 -26.229  0.00  0.00    -0.082 Cl
ATOM     16 CL   UNL     1      31.796  -4.553 -20.816  0.00  0.00    -0.082 Cl
ATOM     17  C   UNL     1      31.843  -4.875 -23.538  0.00  0.00    +0.026 C 
ATOM     18  C   UNL     1      31.792  -4.367 -24.840  0.00  0.00    +0.059 C 
ATOM     19  C   UNL     1      31.740  -3.996 -22.453  0.00  0.00    +0.059 C 
ATOM     20  C   UNL     1      31.640  -2.998 -25.057  0.00  0.00    +0.011 C 
ATOM     21  C   UNL     1      31.588  -2.627 -22.670  0.00  0.00    +0.011 C 
ATOM     22  C   UNL     1      31.537  -2.127 -23.972  0.00  0.00    +0.002 C 
ENDBRANCH   7  17
BRANCH   4  23
ATOM     23  C   UNL     1      32.483 -13.390 -22.166  0.00  0.00    +0.057 C 
ATOM     24  C   UNL     1      32.980 -14.230 -21.167  0.00  0.00    +0.013 C 
ATOM     25  C   UNL     1      33.992 -15.143 -21.461  0.00  0.00    +0.008 C 
ATOM     26  C   UNL     1      33.004 -13.467 -23.460  0.00  0.00    +0.015 C 
ATOM     27  C   UNL     1      34.511 -15.219 -22.753  0.00  0.00    -0.002 C 
ATOM     28  C   UNL     1      34.016 -14.381 -23.753  0.00  0.00    +0.001 C 
BRANCH  25  29
ATOM     29  C   UNL     1      34.522 -16.038 -20.392  0.00  0.00    +0.164 C 
BRANCH  29  30
ATOM     30  O   UNL     1      34.877 -17.293 -20.960  0.00  0.00    -0.377 OA
ATOM     31  H   UNL     1      35.258 -17.153 -21.841  0.00  0.00    +0.211 HD
ENDBRANCH  29  30
ENDBRANCH  25  29
ENDBRANCH   4  23
TORSDOF 4
ENDMDL
MODEL 9
REMARK VINA RESULT:      -8.8      2.849      4.785
REMARK  Name = 447700
REMARK  4 active torsions:
REMARK  status: ('A' for Active; 'I' for Inactive)
REMARK    1  A    between atoms: N_4  and  C_23
REMARK    2  A    between atoms: C_7  and  C_17
REMARK    3  A    between atoms: C_25  and  C_29
REMARK    4  A    between atoms: C_29  and  O_30
REMARK                            x       y       z     vdW  Elec       q    Type
REMARK                         _______ _______ _______ _____ _____    ______ ____
ROOT
ATOM      1  O   UNL     1      33.459  -7.290 -24.156  0.00  0.00    -0.270 OA
ATOM      2  N   UNL     1      33.107  -9.387 -23.225  0.00  0.00    -0.228 N 
ATOM      3  N   UNL     1      32.701 -11.526 -22.191  0.00  0.00    -0.322 NA
ATOM      4  N   UNL     1      32.301 -13.604 -21.176  0.00  0.00    -0.247 N 
ATOM      5  N   UNL     1      31.064 -11.754 -20.443  0.00  0.00    -0.170 NA
ATOM      6  C   UNL     1      32.415 -10.204 -22.281  0.00  0.00    +0.204 C 
ATOM      7  C   UNL     1      31.813  -7.422 -22.466  0.00  0.00    +0.056 C 
ATOM      8  C   UNL     1      31.459  -9.609 -21.471  0.00  0.00    +0.065 C 
ATOM      9  C   UNL     1      32.863  -8.019 -23.360  0.00  0.00    +0.255 C 
ATOM     10  C   UNL     1      31.162  -8.193 -21.583  0.00  0.00    +0.010 C 
ATOM     11  C   UNL     1      34.110 -10.042 -24.061  0.00  0.00    +0.123 C 
ATOM     12  C   UNL     1      30.812 -10.435 -20.567  0.00  0.00    +0.116 C 
ATOM     13  C   UNL     1      32.006 -12.226 -21.275  0.00  0.00    +0.150 C 
ATOM     14  H   UNL     1      31.770 -14.075 -20.494  0.00  0.00    +0.165 HD
ENDROOT
BRANCH   7  17
ATOM     15 CL   UNL     1      32.649  -5.649 -20.110  0.00  0.00    -0.082 Cl
ATOM     16 CL   UNL     1      30.339  -6.527 -25.000  0.00  0.00    -0.082 Cl
ATOM     17  C   UNL     1      31.470  -5.991 -22.561  0.00  0.00    +0.026 C 
ATOM     18  C   UNL     1      31.815  -5.113 -21.529  0.00  0.00    +0.059 C 
ATOM     19  C   UNL     1      30.797  -5.499 -23.685  0.00  0.00    +0.059 C 
ATOM     20  C   UNL     1      31.490  -3.759 -21.617  0.00  0.00    +0.011 C 
ATOM     21  C   UNL     1      30.472  -4.146 -23.774  0.00  0.00    +0.011 C 
ATOM     22  C   UNL     1      30.819  -3.275 -22.740  0.00  0.00    +0.002 C 
ENDBRANCH   7  17
BRANCH   4  23
ATOM     23  C   UNL     1      33.206 -14.435 -21.864  0.00  0.00    +0.057 C 
ATOM     24  C   UNL     1      33.853 -15.475 -21.193  0.00  0.00    +0.013 C 
ATOM     25  C   UNL     1      34.749 -16.296 -21.875  0.00  0.00    +0.008 C 
ATOM     26  C   UNL     1      33.462 -14.219 -23.220  0.00  0.00    +0.015 C 
ATOM     27  C   UNL     1      35.002 -16.080 -23.230  0.00  0.00    -0.002 C 
ATOM     28  C   UNL     1      34.358 -15.042 -23.903  0.00  0.00    +0.001 C 
BRANCH  25  29
ATOM     29  C   UNL     1      35.439 -17.407 -21.157  0.00  0.00    +0.164 C 
BRANCH  29  30
ATOM     30  O   UNL     1      36.573 -17.823 -21.908  0.00  0.00    -0.377 OA
ATOM     31  H   UNL     1      36.355 -18.628 -22.403  0.00  0.00    +0.211 HD
ENDBRANCH  29  30
ENDBRANCH  25  29
ENDBRANCH   4  23
TORSDOF 4
ENDMDL
