MODEL 1
REMARK VINA RESULT:     -13.3      0.000      0.000
REMARK  Name = 59568713
REMARK  8 active torsions:
REMARK  status: ('A' for Active; 'I' for Inactive)
REMARK    1  A    between atoms: N_1  and  C_9
REMARK    2  A    between atoms: N_2  and  C_24
REMARK    3  A    between atoms: C_9  and  C_10
REMARK    4  A    between atoms: C_10  and  C_13
REMARK    5  A    between atoms: C_10  and  O_22
REMARK    6  A    between atoms: C_24  and  C_25
REMARK    7  A    between atoms: C_25  and  C_28
REMARK    8  A    between atoms: C_25  and  O_37
REMARK                            x       y       z     vdW  Elec       q    Type
REMARK                         _______ _______ _______ _____ _____    ______ ____
ROOT
ATOM      1  N   UNL     1      34.002 -15.584 -22.040  0.00  0.00    +0.386 N 
ATOM      2  N   UNL     1      33.252 -12.852 -22.615  0.00  0.00    +0.386 N 
ATOM      3  C   UNL     1      33.415 -13.840 -23.689  0.00  0.00    -0.101 C 
ATOM      4  C   UNL     1      32.835 -13.510 -21.372  0.00  0.00    -0.101 C 
ATOM      5  C   UNL     1      34.418 -14.925 -23.284  0.00  0.00    -0.101 C 
ATOM      6  C   UNL     1      33.838 -14.596 -20.967  0.00  0.00    -0.101 C 
ATOM      7  H   UNL     1      33.103 -16.035 -22.201  0.00  0.00    -0.080 HD
ATOM      8  H   UNL     1      34.153 -12.401 -22.453  0.00  0.00    -0.080 HD
ENDROOT
BRANCH   1   9
ATOM      9  C   UNL     1      34.962 -16.616 -21.654  0.00  0.00    -0.043 C 
BRANCH   9  10
ATOM     10  C   UNL     1      34.623 -17.955 -22.321  0.00  0.00    +0.112 C 
BRANCH  10  13
ATOM     11  O   UNL     1      34.699 -22.128 -17.939  0.00  0.00    -0.440 OA
ATOM     12  O   UNL     1      32.418 -22.498 -18.070  0.00  0.00    -0.245 OA
ATOM     13  C   UNL     1      34.265 -19.010 -21.297  0.00  0.00    -0.002 C 
ATOM     14  C   UNL     1      35.251 -19.575 -20.483  0.00  0.00    -0.024 C 
ATOM     15  C   UNL     1      34.870 -20.536 -19.564  0.00  0.00    +0.023 C 
ATOM     16  C   UNL     1      32.923 -19.409 -21.183  0.00  0.00    -0.002 C 
ATOM     17  C   UNL     1      33.548 -20.920 -19.463  0.00  0.00    +0.075 C 
ATOM     18  C   UNL     1      32.550 -20.381 -20.253  0.00  0.00    +0.006 C 
ATOM     19  C   UNL     1      35.683 -21.288 -18.592  0.00  0.00    +0.235 C 
ATOM     20  C   UNL     1      36.679 -19.160 -20.594  0.00  0.00    +0.031 C 
ATOM     21  C   UNL     1      33.433 -21.935 -18.427  0.00  0.00    +0.341 C 
ENDBRANCH  10  13
BRANCH  10  22
ATOM     22  O   UNL     1      33.515 -17.798 -23.207  0.00  0.00    -0.382 OA
ATOM     23  H   UNL     1      32.742 -17.491 -22.708  0.00  0.00    +0.211 HD
ENDBRANCH  10  22
ENDBRANCH   9  10
ENDBRANCH   1   9
BRANCH   2  24
ATOM     24  C   UNL     1      32.294 -11.818 -23.001  0.00  0.00    -0.043 C 
BRANCH  24  25
ATOM     25  C   UNL     1      31.668 -11.164 -21.763  0.00  0.00    +0.112 C 
BRANCH  25  28
ATOM     26  O   UNL     1      31.818  -5.253 -20.476  0.00  0.00    -0.440 OA
ATOM     27  O   UNL     1      32.275  -4.653 -22.664  0.00  0.00    -0.245 OA
ATOM     28  C   UNL     1      31.780  -9.656 -21.816  0.00  0.00    -0.002 C 
ATOM     29  C   UNL     1      31.610  -8.887 -20.660  0.00  0.00    -0.024 C 
ATOM     30  C   UNL     1      31.722  -7.513 -20.766  0.00  0.00    +0.023 C 
ATOM     31  C   UNL     1      32.057  -9.044 -23.051  0.00  0.00    -0.002 C 
ATOM     32  C   UNL     1      31.994  -6.925 -21.984  0.00  0.00    +0.075 C 
ATOM     33  C   UNL     1      32.167  -7.656 -23.145  0.00  0.00    +0.006 C 
ATOM     34  C   UNL     1      31.594  -6.474 -19.729  0.00  0.00    +0.235 C 
ATOM     35  C   UNL     1      31.315  -9.523 -19.345  0.00  0.00    +0.031 C 
ATOM     36  C   UNL     1      32.056  -5.483 -21.806  0.00  0.00    +0.341 C 
ENDBRANCH  25  28
BRANCH  25  37
ATOM     37  O   UNL     1      30.285 -11.505 -21.670  0.00  0.00    -0.382 OA
ATOM     38  H   UNL     1      29.806 -11.119 -22.420  0.00  0.00    +0.211 HD
ENDBRANCH  25  37
ENDBRANCH  24  25
ENDBRANCH   2  24
TORSDOF 8
ENDMDL
MODEL 2
REMARK VINA RESULT:     -13.3      0.031     11.689
REMARK  Name = 59568713
REMARK  8 active torsions:
REMARK  status: ('A' for Active; 'I' for Inactive)
REMARK    1  A    between atoms: N_1  and  C_9
REMARK    2  A    between atoms: N_2  and  C_24
REMARK    3  A    between atoms: C_9  and  C_10
REMARK    4  A    between atoms: C_10  and  C_13
REMARK    5  A    between atoms: C_10  and  O_22
REMARK    6  A    between atoms: C_24  and  C_25
REMARK    7  A    between atoms: C_25  and  C_28
REMARK    8  A    between atoms: C_25  and  O_37
REMARK                            x       y       z     vdW  Elec       q    Type
REMARK                         _______ _______ _______ _____ _____    ______ ____
ROOT
ATOM      1  N   UNL     1      33.250 -12.853 -22.630  0.00  0.00    +0.386 N 
ATOM      2  N   UNL     1      34.004 -15.582 -22.045  0.00  0.00    +0.386 N 
ATOM      3  C   UNL     1      34.423 -14.925 -23.289  0.00  0.00    -0.101 C 
ATOM      4  C   UNL     1      33.836 -14.593 -20.975  0.00  0.00    -0.101 C 
ATOM      5  C   UNL     1      33.419 -13.843 -23.700  0.00  0.00    -0.101 C 
ATOM      6  C   UNL     1      32.832 -13.509 -21.385  0.00  0.00    -0.101 C 
ATOM      7  H   UNL     1      34.149 -12.399 -22.467  0.00  0.00    -0.080 HD
ATOM      8  H   UNL     1      33.103 -16.035 -22.208  0.00  0.00    -0.080 HD
ENDROOT
BRANCH   1   9
ATOM      9  C   UNL     1      32.289 -11.823 -23.022  0.00  0.00    -0.043 C 
BRANCH   9  10
ATOM     10  C   UNL     1      31.653 -11.172 -21.787  0.00  0.00    +0.112 C 
BRANCH  10  13
ATOM     11  O   UNL     1      31.866  -5.274 -20.450  0.00  0.00    -0.440 OA
ATOM     12  O   UNL     1      32.321  -4.660 -22.635  0.00  0.00    -0.245 OA
ATOM     13  C   UNL     1      31.780  -9.665 -21.827  0.00  0.00    -0.002 C 
ATOM     14  C   UNL     1      31.623  -8.905 -20.664  0.00  0.00    -0.024 C 
ATOM     15  C   UNL     1      31.748  -7.531 -20.758  0.00  0.00    +0.023 C 
ATOM     16  C   UNL     1      32.058  -9.046 -23.058  0.00  0.00    -0.002 C 
ATOM     17  C   UNL     1      32.020  -6.936 -21.973  0.00  0.00    +0.075 C 
ATOM     18  C   UNL     1      32.181  -7.658 -23.141  0.00  0.00    +0.006 C 
ATOM     19  C   UNL     1      31.634  -6.499 -19.712  0.00  0.00    +0.235 C 
ATOM     20  C   UNL     1      31.327  -9.550 -19.352  0.00  0.00    +0.031 C 
ATOM     21  C   UNL     1      32.097  -5.496 -21.782  0.00  0.00    +0.341 C 
ENDBRANCH  10  13
BRANCH  10  22
ATOM     22  O   UNL     1      30.267 -11.502 -21.713  0.00  0.00    -0.382 OA
ATOM     23  H   UNL     1      29.921 -11.648 -22.607  0.00  0.00    +0.211 HD
ENDBRANCH  10  22
ENDBRANCH   9  10
ENDBRANCH   1   9
BRANCH   2  24
ATOM     24  C   UNL     1      34.962 -16.613 -21.654  0.00  0.00    -0.043 C 
BRANCH  24  25
ATOM     25  C   UNL     1      34.622 -17.954 -22.316  0.00  0.00    +0.112 C 
BRANCH  25  28
ATOM     26  O   UNL     1      34.740 -22.115 -17.922  0.00  0.00    -0.440 OA
ATOM     27  O   UNL     1      32.460 -22.494 -18.038  0.00  0.00    -0.245 OA
ATOM     28  C   UNL     1      34.274 -19.008 -21.286  0.00  0.00    -0.002 C 
ATOM     29  C   UNL     1      35.267 -19.568 -20.476  0.00  0.00    -0.024 C 
ATOM     30  C   UNL     1      34.894 -20.527 -19.553  0.00  0.00    +0.023 C 
ATOM     31  C   UNL     1      32.933 -19.413 -21.163  0.00  0.00    -0.002 C 
ATOM     32  C   UNL     1      33.575 -20.916 -19.442  0.00  0.00    +0.075 C 
ATOM     33  C   UNL     1      32.570 -20.383 -20.228  0.00  0.00    +0.006 C 
ATOM     34  C   UNL     1      35.717 -21.273 -18.585  0.00  0.00    +0.235 C 
ATOM     35  C   UNL     1      36.692 -19.148 -20.598  0.00  0.00    +0.031 C 
ATOM     36  C   UNL     1      33.470 -21.929 -18.404  0.00  0.00    +0.341 C 
ENDBRANCH  25  28
BRANCH  25  37
ATOM     37  O   UNL     1      33.506 -17.803 -23.193  0.00  0.00    -0.382 OA
ATOM     38  H   UNL     1      33.086 -16.943 -23.037  0.00  0.00    +0.211 HD
ENDBRANCH  25  37
ENDBRANCH  24  25
ENDBRANCH   2  24
TORSDOF 8
ENDMDL
MODEL 3
REMARK VINA RESULT:     -13.2      2.864      5.118
REMARK  Name = 59568713
REMARK  8 active torsions:
REMARK  status: ('A' for Active; 'I' for Inactive)
REMARK    1  A    between atoms: N_1  and  C_9
REMARK    2  A    between atoms: N_2  and  C_24
REMARK    3  A    between atoms: C_9  and  C_10
REMARK    4  A    between atoms: C_10  and  C_13
REMARK    5  A    between atoms: C_10  and  O_22
REMARK    6  A    between atoms: C_24  and  C_25
REMARK    7  A    between atoms: C_25  and  C_28
REMARK    8  A    between atoms: C_25  and  O_37
REMARK                            x       y       z     vdW  Elec       q    Type
REMARK                         _______ _______ _______ _____ _____    ______ ____
ROOT
ATOM      1  N   UNL     1      32.036 -11.355 -21.999  0.00  0.00    +0.386 N 
ATOM      2  N   UNL     1      31.078  -8.947 -20.718  0.00  0.00    +0.386 N 
ATOM      3  C   UNL     1      31.373 -10.158 -19.942  0.00  0.00    -0.101 C 
ATOM      4  C   UNL     1      31.923  -8.887 -21.916  0.00  0.00    -0.101 C 
ATOM      5  C   UNL     1      31.191 -11.413 -20.801  0.00  0.00    -0.101 C 
ATOM      6  C   UNL     1      31.742 -10.144 -22.775  0.00  0.00    -0.101 C 
ATOM      7  H   UNL     1      33.011 -11.318 -21.704  0.00  0.00    -0.080 HD
ATOM      8  H   UNL     1      30.102  -8.985 -21.015  0.00  0.00    -0.080 HD
ENDROOT
BRANCH   1   9
ATOM      9  C   UNL     1      31.859 -12.552 -22.819  0.00  0.00    -0.043 C 
BRANCH   9  10
ATOM     10  C   UNL     1      33.143 -12.879 -23.592  0.00  0.00    +0.112 C 
BRANCH  10  13
ATOM     11  O   UNL     1      34.977 -18.259 -21.513  0.00  0.00    -0.440 OA
ATOM     12  O   UNL     1      34.679 -19.299 -23.559  0.00  0.00    -0.245 OA
ATOM     13  C   UNL     1      33.530 -14.333 -23.433  0.00  0.00    -0.002 C 
ATOM     14  C   UNL     1      33.975 -14.821 -22.200  0.00  0.00    -0.024 C 
ATOM     15  C   UNL     1      34.317 -16.159 -22.111  0.00  0.00    +0.023 C 
ATOM     16  C   UNL     1      33.433 -15.182 -24.549  0.00  0.00    -0.002 C 
ATOM     17  C   UNL     1      34.218 -16.981 -23.215  0.00  0.00    +0.075 C 
ATOM     18  C   UNL     1      33.782 -16.529 -24.447  0.00  0.00    +0.006 C 
ATOM     19  C   UNL     1      34.808 -16.931 -20.956  0.00  0.00    +0.235 C 
ATOM     20  C   UNL     1      34.082 -13.932 -21.008  0.00  0.00    +0.031 C 
ATOM     21  C   UNL     1      34.638 -18.322 -22.839  0.00  0.00    +0.341 C 
ENDBRANCH  10  13
BRANCH  10  22
ATOM     22  O   UNL     1      32.963 -12.615 -24.983  0.00  0.00    -0.382 OA
ATOM     23  H   UNL     1      33.748 -12.165 -25.331  0.00  0.00    +0.211 HD
ENDBRANCH  10  22
ENDBRANCH   9  10
ENDBRANCH   1   9
BRANCH   2  24
ATOM     24  C   UNL     1      31.253  -7.749 -19.900  0.00  0.00    -0.043 C 
BRANCH  24  25
ATOM     25  C   UNL     1      32.408  -6.891 -20.428  0.00  0.00    +0.112 C 
BRANCH  25  28
ATOM     26  O   UNL     1      31.615  -2.602 -24.624  0.00  0.00    -0.440 OA
ATOM     27  O   UNL     1      29.697  -1.786 -23.618  0.00  0.00    -0.245 OA
ATOM     28  C   UNL     1      31.903  -5.735 -21.264  0.00  0.00    -0.002 C 
ATOM     29  C   UNL     1      32.583  -5.338 -22.419  0.00  0.00    -0.024 C 
ATOM     30  C   UNL     1      32.078  -4.275 -23.145  0.00  0.00    +0.023 C 
ATOM     31  C   UNL     1      30.736  -5.066 -20.853  0.00  0.00    -0.002 C 
ATOM     32  C   UNL     1      30.932  -3.628 -22.731  0.00  0.00    +0.075 C 
ATOM     33  C   UNL     1      30.236  -3.994 -21.594  0.00  0.00    +0.006 C 
ATOM     34  C   UNL     1      32.581  -3.655 -24.383  0.00  0.00    +0.235 C 
ATOM     35  C   UNL     1      33.822  -6.038 -22.865  0.00  0.00    +0.031 C 
ATOM     36  C   UNL     1      30.631  -2.559 -23.670  0.00  0.00    +0.341 C 
ENDBRANCH  25  28
BRANCH  25  37
ATOM     37  O   UNL     1      33.166  -6.358 -19.342  0.00  0.00    -0.382 OA
ATOM     38  H   UNL     1      32.767  -6.637 -18.503  0.00  0.00    +0.211 HD
ENDBRANCH  25  37
ENDBRANCH  24  25
ENDBRANCH   2  24
TORSDOF 8
ENDMDL
MODEL 4
REMARK VINA RESULT:     -13.2      2.839     12.168
REMARK  Name = 59568713
REMARK  8 active torsions:
REMARK  status: ('A' for Active; 'I' for Inactive)
REMARK    1  A    between atoms: N_1  and  C_9
REMARK    2  A    between atoms: N_2  and  C_24
REMARK    3  A    between atoms: C_9  and  C_10
REMARK    4  A    between atoms: C_10  and  C_13
REMARK    5  A    between atoms: C_10  and  O_22
REMARK    6  A    between atoms: C_24  and  C_25
REMARK    7  A    between atoms: C_25  and  C_28
REMARK    8  A    between atoms: C_25  and  O_37
REMARK                            x       y       z     vdW  Elec       q    Type
REMARK                         _______ _______ _______ _____ _____    ______ ____
ROOT
ATOM      1  N   UNL     1      31.041  -8.965 -20.761  0.00  0.00    +0.386 N 
ATOM      2  N   UNL     1      32.038 -11.378 -22.004  0.00  0.00    +0.386 N 
ATOM      3  C   UNL     1      31.177 -11.432 -20.816  0.00  0.00    -0.101 C 
ATOM      4  C   UNL     1      31.743 -10.179 -22.797  0.00  0.00    -0.101 C 
ATOM      5  C   UNL     1      31.336 -10.165 -19.969  0.00  0.00    -0.101 C 
ATOM      6  C   UNL     1      31.901  -8.911 -21.950  0.00  0.00    -0.101 C 
ATOM      7  H   UNL     1      30.070  -9.015 -21.069  0.00  0.00    -0.080 HD
ATOM      8  H   UNL     1      33.009 -11.327 -21.694  0.00  0.00    -0.080 HD
ENDROOT
BRANCH   1   9
ATOM      9  C   UNL     1      31.197  -7.758 -19.953  0.00  0.00    -0.043 C 
BRANCH   9  10
ATOM     10  C   UNL     1      32.360  -6.901 -20.470  0.00  0.00    +0.112 C 
BRANCH  10  13
ATOM     11  O   UNL     1      31.628  -2.586 -24.649  0.00  0.00    -0.440 OA
ATOM     12  O   UNL     1      29.687  -1.786 -23.674  0.00  0.00    -0.245 OA
ATOM     13  C   UNL     1      31.865  -5.742 -21.306  0.00  0.00    -0.002 C 
ATOM     14  C   UNL     1      32.566  -5.335 -22.446  0.00  0.00    -0.024 C 
ATOM     15  C   UNL     1      32.070  -4.268 -23.173  0.00  0.00    +0.023 C 
ATOM     16  C   UNL     1      30.689  -5.082 -20.914  0.00  0.00    -0.002 C 
ATOM     17  C   UNL     1      30.913  -3.629 -22.776  0.00  0.00    +0.075 C 
ATOM     18  C   UNL     1      30.198  -4.006 -21.655  0.00  0.00    +0.006 C 
ATOM     19  C   UNL     1      32.594  -3.636 -24.398  0.00  0.00    +0.235 C 
ATOM     20  C   UNL     1      33.817  -6.026 -22.874  0.00  0.00    +0.031 C 
ATOM     21  C   UNL     1      30.626  -2.555 -23.714  0.00  0.00    +0.341 C 
ENDBRANCH  10  13
BRANCH  10  22
ATOM     22  O   UNL     1      33.111  -6.375 -19.376  0.00  0.00    -0.382 OA
ATOM     23  H   UNL     1      32.520  -6.218 -18.624  0.00  0.00    +0.211 HD
ENDBRANCH  10  22
ENDBRANCH   9  10
ENDBRANCH   1   9
BRANCH   2  24
ATOM     24  C   UNL     1      31.885 -12.585 -22.812  0.00  0.00    -0.043 C 
BRANCH  24  25
ATOM     25  C   UNL     1      33.187 -12.914 -23.554  0.00  0.00    +0.112 C 
BRANCH  25  28
ATOM     26  O   UNL     1      34.961 -18.322 -21.496  0.00  0.00    -0.440 OA
ATOM     27  O   UNL     1      34.657 -19.350 -23.547  0.00  0.00    -0.245 OA
ATOM     28  C   UNL     1      33.558 -14.373 -23.400  0.00  0.00    -0.002 C 
ATOM     29  C   UNL     1      33.997 -14.872 -22.170  0.00  0.00    -0.024 C 
ATOM     30  C   UNL     1      34.324 -16.213 -22.086  0.00  0.00    +0.023 C 
ATOM     31  C   UNL     1      33.456 -15.216 -24.521  0.00  0.00    -0.002 C 
ATOM     32  C   UNL     1      34.219 -17.029 -23.193  0.00  0.00    +0.075 C 
ATOM     33  C   UNL     1      33.790 -16.567 -24.424  0.00  0.00    +0.006 C 
ATOM     34  C   UNL     1      34.805 -16.995 -20.934  0.00  0.00    +0.235 C 
ATOM     35  C   UNL     1      34.111 -13.989 -20.974  0.00  0.00    +0.031 C 
ATOM     36  C   UNL     1      34.625 -18.376 -22.823  0.00  0.00    +0.341 C 
ENDBRANCH  25  28
BRANCH  25  37
ATOM     37  O   UNL     1      33.046 -12.634 -24.946  0.00  0.00    -0.382 OA
ATOM     38  H   UNL     1      33.924 -12.550 -25.349  0.00  0.00    +0.211 HD
ENDBRANCH  25  37
ENDBRANCH  24  25
ENDBRANCH   2  24
TORSDOF 8
ENDMDL
MODEL 5
REMARK VINA RESULT:     -12.6      3.619      7.055
REMARK  Name = 59568713
REMARK  8 active torsions:
REMARK  status: ('A' for Active; 'I' for Inactive)
REMARK    1  A    between atoms: N_1  and  C_9
REMARK    2  A    between atoms: N_2  and  C_24
REMARK    3  A    between atoms: C_9  and  C_10
REMARK    4  A    between atoms: C_10  and  C_13
REMARK    5  A    between atoms: C_10  and  O_22
REMARK    6  A    between atoms: C_24  and  C_25
REMARK    7  A    between atoms: C_25  and  C_28
REMARK    8  A    between atoms: C_25  and  O_37
REMARK                            x       y       z     vdW  Elec       q    Type
REMARK                         _______ _______ _______ _____ _____    ______ ____
ROOT
ATOM      1  N   UNL     1      33.179 -21.303 -19.205  0.00  0.00    +0.386 N 
ATOM      2  N   UNL     1      34.023 -19.222 -21.026  0.00  0.00    +0.386 N 
ATOM      3  C   UNL     1      34.919 -20.327 -20.663  0.00  0.00    -0.101 C 
ATOM      4  C   UNL     1      32.623 -19.655 -20.961  0.00  0.00    -0.101 C 
ATOM      5  C   UNL     1      34.580 -20.870 -19.271  0.00  0.00    -0.101 C 
ATOM      6  C   UNL     1      32.284 -20.198 -19.568  0.00  0.00    -0.101 C 
ATOM      7  H   UNL     1      33.045 -22.059 -19.876  0.00  0.00    -0.080 HD
ATOM      8  H   UNL     1      34.157 -18.466 -20.353  0.00  0.00    -0.080 HD
ENDROOT
BRANCH   1   9
ATOM      9  C   UNL     1      32.857 -21.817 -17.875  0.00  0.00    -0.043 C 
BRANCH   9  10
ATOM     10  C   UNL     1      33.727 -23.034 -17.535  0.00  0.00    +0.112 C 
BRANCH  10  13
ATOM     11  O   UNL     1      36.282 -22.705 -12.059  0.00  0.00    -0.440 OA
ATOM     12  O   UNL     1      34.430 -23.597 -10.995  0.00  0.00    -0.245 OA
ATOM     13  C   UNL     1      34.031 -23.101 -16.054  0.00  0.00    -0.002 C 
ATOM     14  C   UNL     1      35.264 -22.664 -15.559  0.00  0.00    -0.024 C 
ATOM     15  C   UNL     1      35.489 -22.749 -14.197  0.00  0.00    +0.023 C 
ATOM     16  C   UNL     1      33.050 -23.613 -15.188  0.00  0.00    -0.002 C 
ATOM     17  C   UNL     1      34.517 -23.254 -13.358  0.00  0.00    +0.075 C 
ATOM     18  C   UNL     1      33.289 -23.695 -13.816  0.00  0.00    +0.006 C 
ATOM     19  C   UNL     1      36.676 -22.367 -13.412  0.00  0.00    +0.235 C 
ATOM     20  C   UNL     1      36.314 -22.119 -16.467  0.00  0.00    +0.031 C 
ATOM     21  C   UNL     1      35.017 -23.228 -11.992  0.00  0.00    +0.341 C 
ENDBRANCH  10  13
BRANCH  10  22
ATOM     22  O   UNL     1      33.060 -24.238 -17.909  0.00  0.00    -0.382 OA
ATOM     23  H   UNL     1      33.491 -24.994 -17.482  0.00  0.00    +0.211 HD
ENDBRANCH  10  22
ENDBRANCH   9  10
ENDBRANCH   1   9
BRANCH   2  24
ATOM     24  C   UNL     1      34.346 -18.706 -22.354  0.00  0.00    -0.043 C 
BRANCH  24  25
ATOM     25  C   UNL     1      35.296 -17.506 -22.257  0.00  0.00    +0.112 C 
BRANCH  25  28
ATOM     26  O   UNL     1      32.249 -12.310 -22.843  0.00  0.00    -0.440 OA
ATOM     27  O   UNL     1      32.070 -12.003 -20.556  0.00  0.00    -0.245 OA
ATOM     28  C   UNL     1      34.539 -16.217 -22.020  0.00  0.00    -0.002 C 
ATOM     29  C   UNL     1      34.089 -15.447 -23.097  0.00  0.00    -0.024 C 
ATOM     30  C   UNL     1      33.402 -14.278 -22.823  0.00  0.00    +0.023 C 
ATOM     31  C   UNL     1      34.300 -15.809 -20.696  0.00  0.00    -0.002 C 
ATOM     32  C   UNL     1      33.175 -13.889 -21.520  0.00  0.00    +0.075 C 
ATOM     33  C   UNL     1      33.607 -14.627 -20.433  0.00  0.00    +0.006 C 
ATOM     34  C   UNL     1      32.822 -13.287 -23.747  0.00  0.00    +0.235 C 
ATOM     35  C   UNL     1      34.336 -15.867 -24.506  0.00  0.00    +0.031 C 
ATOM     36  C   UNL     1      32.439 -12.634 -21.525  0.00  0.00    +0.341 C 
ENDBRANCH  25  28
BRANCH  25  37
ATOM     37  O   UNL     1      36.215 -17.688 -21.179  0.00  0.00    -0.382 OA
ATOM     38  H   UNL     1      35.837 -17.315 -20.367  0.00  0.00    +0.211 HD
ENDBRANCH  25  37
ENDBRANCH  24  25
ENDBRANCH   2  24
TORSDOF 8
ENDMDL
MODEL 6
REMARK VINA RESULT:     -12.6      3.600     12.101
REMARK  Name = 59568713
REMARK  8 active torsions:
REMARK  status: ('A' for Active; 'I' for Inactive)
REMARK    1  A    between atoms: N_1  and  C_9
REMARK    2  A    between atoms: N_2  and  C_24
REMARK    3  A    between atoms: C_9  and  C_10
REMARK    4  A    between atoms: C_10  and  C_13
REMARK    5  A    between atoms: C_10  and  O_22
REMARK    6  A    between atoms: C_24  and  C_25
REMARK    7  A    between atoms: C_25  and  C_28
REMARK    8  A    between atoms: C_25  and  O_37
REMARK                            x       y       z     vdW  Elec       q    Type
REMARK                         _______ _______ _______ _____ _____    ______ ____
ROOT
ATOM      1  N   UNL     1      34.020 -19.223 -20.954  0.00  0.00    +0.386 N 
ATOM      2  N   UNL     1      33.145 -21.336 -19.185  0.00  0.00    +0.386 N 
ATOM      3  C   UNL     1      34.550 -20.913 -19.231  0.00  0.00    -0.101 C 
ATOM      4  C   UNL     1      32.261 -20.216 -19.529  0.00  0.00    -0.101 C 
ATOM      5  C   UNL     1      34.903 -20.344 -20.609  0.00  0.00    -0.101 C 
ATOM      6  C   UNL     1      32.615 -19.645 -20.907  0.00  0.00    -0.101 C 
ATOM      7  H   UNL     1      34.156 -18.483 -20.266  0.00  0.00    -0.080 HD
ATOM      8  H   UNL     1      33.009 -22.076 -19.875  0.00  0.00    -0.080 HD
ENDROOT
BRANCH   1   9
ATOM      9  C   UNL     1      34.357 -18.683 -22.270  0.00  0.00    -0.043 C 
BRANCH   9  10
ATOM     10  C   UNL     1      35.303 -17.482 -22.141  0.00  0.00    +0.112 C 
BRANCH  10  13
ATOM     11  O   UNL     1      32.247 -12.324 -22.962  0.00  0.00    -0.440 OA
ATOM     12  O   UNL     1      32.026 -11.939 -20.691  0.00  0.00    -0.245 OA
ATOM     13  C   UNL     1      34.537 -16.190 -21.963  0.00  0.00    -0.002 C 
ATOM     14  C   UNL     1      34.102 -15.460 -23.074  0.00  0.00    -0.024 C 
ATOM     15  C   UNL     1      33.407 -14.285 -22.854  0.00  0.00    +0.023 C 
ATOM     16  C   UNL     1      34.273 -15.738 -20.659  0.00  0.00    -0.002 C 
ATOM     17  C   UNL     1      33.155 -13.852 -21.568  0.00  0.00    +0.075 C 
ATOM     18  C   UNL     1      33.572 -14.550 -20.449  0.00  0.00    +0.006 C 
ATOM     19  C   UNL     1      32.839 -13.330 -23.822  0.00  0.00    +0.235 C 
ATOM     20  C   UNL     1      34.376 -15.928 -24.463  0.00  0.00    +0.031 C 
ATOM     21  C   UNL     1      32.415 -12.602 -21.631  0.00  0.00    +0.341 C 
ENDBRANCH  10  13
BRANCH  10  22
ATOM     22  O   UNL     1      36.164 -17.650 -21.016  0.00  0.00    -0.382 OA
ATOM     23  H   UNL     1      35.656 -17.532 -20.199  0.00  0.00    +0.211 HD
ENDBRANCH  10  22
ENDBRANCH   9  10
ENDBRANCH   1   9
BRANCH   2  24
ATOM     24  C   UNL     1      32.808 -21.878 -17.871  0.00  0.00    -0.043 C 
BRANCH  24  25
ATOM     25  C   UNL     1      33.697 -23.081 -17.532  0.00  0.00    +0.112 C 
BRANCH  25  28
ATOM     26  O   UNL     1      36.268 -22.705 -12.067  0.00  0.00    -0.440 OA
ATOM     27  O   UNL     1      34.434 -23.622 -10.994  0.00  0.00    -0.245 OA
ATOM     28  C   UNL     1      34.008 -23.141 -16.052  0.00  0.00    -0.002 C 
ATOM     29  C   UNL     1      35.236 -22.686 -15.563  0.00  0.00    -0.024 C 
ATOM     30  C   UNL     1      35.468 -22.765 -14.202  0.00  0.00    +0.023 C 
ATOM     31  C   UNL     1      33.037 -23.666 -15.181  0.00  0.00    -0.002 C 
ATOM     32  C   UNL     1      34.507 -23.282 -13.357  0.00  0.00    +0.075 C 
ATOM     33  C   UNL     1      33.283 -23.741 -13.809  0.00  0.00    +0.006 C 
ATOM     34  C   UNL     1      36.652 -22.365 -13.422  0.00  0.00    +0.235 C 
ATOM     35  C   UNL     1      36.274 -22.129 -16.476  0.00  0.00    +0.031 C 
ATOM     36  C   UNL     1      35.012 -23.247 -11.994  0.00  0.00    +0.341 C 
ENDBRANCH  25  28
BRANCH  25  37
ATOM     37  O   UNL     1      33.047 -24.297 -17.901  0.00  0.00    -0.382 OA
ATOM     38  H   UNL     1      33.570 -25.051 -17.589  0.00  0.00    +0.211 HD
ENDBRANCH  25  37
ENDBRANCH  24  25
ENDBRANCH   2  24
TORSDOF 8
ENDMDL
MODEL 7
REMARK VINA RESULT:     -12.5      3.776      7.113
REMARK  Name = 59568713
REMARK  8 active torsions:
REMARK  status: ('A' for Active; 'I' for Inactive)
REMARK    1  A    between atoms: N_1  and  C_9
REMARK    2  A    between atoms: N_2  and  C_24
REMARK    3  A    between atoms: C_9  and  C_10
REMARK    4  A    between atoms: C_10  and  C_13
REMARK    5  A    between atoms: C_10  and  O_22
REMARK    6  A    between atoms: C_24  and  C_25
REMARK    7  A    between atoms: C_25  and  C_28
REMARK    8  A    between atoms: C_25  and  O_37
REMARK                            x       y       z     vdW  Elec       q    Type
REMARK                         _______ _______ _______ _____ _____    ______ ____
ROOT
ATOM      1  N   UNL     1      35.462 -20.521 -18.904  0.00  0.00    +0.386 N 
ATOM      2  N   UNL     1      34.636 -19.403 -21.440  0.00  0.00    +0.386 N 
ATOM      3  C   UNL     1      33.652 -19.809 -20.429  0.00  0.00    -0.101 C 
ATOM      4  C   UNL     1      35.890 -18.992 -20.798  0.00  0.00    -0.101 C 
ATOM      5  C   UNL     1      34.207 -20.932 -19.547  0.00  0.00    -0.101 C 
ATOM      6  C   UNL     1      36.446 -20.115 -19.915  0.00  0.00    -0.101 C 
ATOM      7  H   UNL     1      35.268 -19.720 -18.304  0.00  0.00    -0.080 HD
ATOM      8  H   UNL     1      34.831 -20.206 -22.039  0.00  0.00    -0.080 HD
ENDROOT
BRANCH   1   9
ATOM      9  C   UNL     1      35.992 -21.595 -18.067  0.00  0.00    -0.043 C 
BRANCH   9  10
ATOM     10  C   UNL     1      36.201 -21.111 -16.626  0.00  0.00    +0.112 C 
BRANCH  10  13
ATOM     11  O   UNL     1      36.792 -25.560 -12.567  0.00  0.00    -0.440 OA
ATOM     12  O   UNL     1      39.038 -25.867 -13.033  0.00  0.00    -0.245 OA
ATOM     13  C   UNL     1      36.711 -22.223 -15.736  0.00  0.00    -0.002 C 
ATOM     14  C   UNL     1      35.856 -22.862 -14.833  0.00  0.00    -0.024 C 
ATOM     15  C   UNL     1      36.375 -23.872 -14.043  0.00  0.00    +0.023 C 
ATOM     16  C   UNL     1      38.062 -22.598 -15.835  0.00  0.00    -0.002 C 
ATOM     17  C   UNL     1      37.703 -24.230 -14.150  0.00  0.00    +0.075 C 
ATOM     18  C   UNL     1      38.574 -23.617 -15.031  0.00  0.00    +0.006 C 
ATOM     19  C   UNL     1      35.714 -24.705 -13.022  0.00  0.00    +0.235 C 
ATOM     20  C   UNL     1      34.421 -22.473 -14.718  0.00  0.00    +0.031 C 
ATOM     21  C   UNL     1      37.975 -25.307 -13.210  0.00  0.00    +0.341 C 
ENDBRANCH  10  13
BRANCH  10  22
ATOM     22  O   UNL     1      37.149 -20.044 -16.596  0.00  0.00    -0.382 OA
ATOM     23  H   UNL     1      36.685 -19.197 -16.670  0.00  0.00    +0.211 HD
ENDBRANCH  10  22
ENDBRANCH   9  10
ENDBRANCH   1   9
BRANCH   2  24
ATOM     24  C   UNL     1      34.107 -18.331 -22.279  0.00  0.00    -0.043 C 
BRANCH  24  25
ATOM     25  C   UNL     1      34.783 -16.995 -21.950  0.00  0.00    +0.112 C 
BRANCH  25  28
ATOM     26  O   UNL     1      32.536 -11.768 -24.012  0.00  0.00    -0.440 OA
ATOM     27  O   UNL     1      32.453 -12.515 -26.201  0.00  0.00    -0.245 OA
ATOM     28  C   UNL     1      34.235 -15.871 -22.802  0.00  0.00    -0.002 C 
ATOM     29  C   UNL     1      33.880 -14.647 -22.226  0.00  0.00    -0.024 C 
ATOM     30  C   UNL     1      33.383 -13.655 -23.051  0.00  0.00    +0.023 C 
ATOM     31  C   UNL     1      34.088 -16.084 -24.184  0.00  0.00    -0.002 C 
ATOM     32  C   UNL     1      33.244 -13.877 -24.406  0.00  0.00    +0.075 C 
ATOM     33  C   UNL     1      33.584 -15.075 -25.006  0.00  0.00    +0.006 C 
ATOM     34  C   UNL     1      32.938 -12.290 -22.721  0.00  0.00    +0.235 C 
ATOM     35  C   UNL     1      34.030 -14.409 -20.762  0.00  0.00    +0.031 C 
ATOM     36  C   UNL     1      32.703 -12.676 -25.025  0.00  0.00    +0.341 C 
ENDBRANCH  25  28
BRANCH  25  37
ATOM     37  O   UNL     1      34.571 -16.659 -20.579  0.00  0.00    -0.382 OA
ATOM     38  H   UNL     1      34.798 -17.419 -20.021  0.00  0.00    +0.211 HD
ENDBRANCH  25  37
ENDBRANCH  24  25
ENDBRANCH   2  24
TORSDOF 8
ENDMDL
MODEL 8
REMARK VINA RESULT:     -12.5      3.793     12.797
REMARK  Name = 59568713
REMARK  8 active torsions:
REMARK  status: ('A' for Active; 'I' for Inactive)
REMARK    1  A    between atoms: N_1  and  C_9
REMARK    2  A    between atoms: N_2  and  C_24
REMARK    3  A    between atoms: C_9  and  C_10
REMARK    4  A    between atoms: C_10  and  C_13
REMARK    5  A    between atoms: C_10  and  O_22
REMARK    6  A    between atoms: C_24  and  C_25
REMARK    7  A    between atoms: C_25  and  C_28
REMARK    8  A    between atoms: C_25  and  O_37
REMARK                            x       y       z     vdW  Elec       q    Type
REMARK                         _______ _______ _______ _____ _____    ______ ____
ROOT
ATOM      1  N   UNL     1      34.608 -19.428 -21.410  0.00  0.00    +0.386 N 
ATOM      2  N   UNL     1      35.454 -20.545 -18.881  0.00  0.00    +0.386 N 
ATOM      3  C   UNL     1      34.196 -20.960 -19.516  0.00  0.00    -0.101 C 
ATOM      4  C   UNL     1      36.430 -20.136 -19.897  0.00  0.00    -0.101 C 
ATOM      5  C   UNL     1      33.632 -19.838 -20.393  0.00  0.00    -0.101 C 
ATOM      6  C   UNL     1      35.866 -19.014 -20.776  0.00  0.00    -0.101 C 
ATOM      7  H   UNL     1      34.800 -20.228 -22.012  0.00  0.00    -0.080 HD
ATOM      8  H   UNL     1      35.261 -19.744 -18.280  0.00  0.00    -0.080 HD
ENDROOT
BRANCH   1   9
ATOM      9  C   UNL     1      34.070 -18.355 -22.243  0.00  0.00    -0.043 C 
BRANCH   9  10
ATOM     10  C   UNL     1      34.783 -17.028 -21.953  0.00  0.00    +0.112 C 
BRANCH  10  13
ATOM     11  O   UNL     1      32.540 -11.801 -24.020  0.00  0.00    -0.440 OA
ATOM     12  O   UNL     1      32.450 -12.552 -26.207  0.00  0.00    -0.245 OA
ATOM     13  C   UNL     1      34.235 -15.905 -22.806  0.00  0.00    -0.002 C 
ATOM     14  C   UNL     1      33.884 -14.679 -22.231  0.00  0.00    -0.024 C 
ATOM     15  C   UNL     1      33.387 -13.688 -23.057  0.00  0.00    +0.023 C 
ATOM     16  C   UNL     1      34.085 -16.120 -24.186  0.00  0.00    -0.002 C 
ATOM     17  C   UNL     1      33.243 -13.913 -24.411  0.00  0.00    +0.075 C 
ATOM     18  C   UNL     1      33.581 -15.112 -25.010  0.00  0.00    +0.006 C 
ATOM     19  C   UNL     1      32.945 -12.320 -22.729  0.00  0.00    +0.235 C 
ATOM     20  C   UNL     1      34.038 -14.438 -20.768  0.00  0.00    +0.031 C 
ATOM     21  C   UNL     1      32.704 -12.712 -25.030  0.00  0.00    +0.341 C 
ENDBRANCH  10  13
BRANCH  10  22
ATOM     22  O   UNL     1      34.618 -16.668 -20.582  0.00  0.00    -0.382 OA
ATOM     23  H   UNL     1      34.743 -17.451 -20.024  0.00  0.00    +0.211 HD
ENDBRANCH  10  22
ENDBRANCH   9  10
ENDBRANCH   1   9
BRANCH   2  24
ATOM     24  C   UNL     1      35.992 -21.616 -18.046  0.00  0.00    -0.043 C 
BRANCH  24  25
ATOM     25  C   UNL     1      36.204 -21.131 -16.606  0.00  0.00    +0.112 C 
BRANCH  25  28
ATOM     26  O   UNL     1      36.785 -25.586 -12.551  0.00  0.00    -0.440 OA
ATOM     27  O   UNL     1      39.033 -25.890 -13.010  0.00  0.00    -0.245 OA
ATOM     28  C   UNL     1      36.712 -22.245 -15.716  0.00  0.00    -0.002 C 
ATOM     29  C   UNL     1      35.855 -22.886 -14.816  0.00  0.00    -0.024 C 
ATOM     30  C   UNL     1      36.372 -23.896 -14.026  0.00  0.00    +0.023 C 
ATOM     31  C   UNL     1      38.065 -22.619 -15.810  0.00  0.00    -0.002 C 
ATOM     32  C   UNL     1      37.700 -24.253 -14.128  0.00  0.00    +0.075 C 
ATOM     33  C   UNL     1      38.574 -23.639 -15.006  0.00  0.00    +0.006 C 
ATOM     34  C   UNL     1      35.709 -24.730 -13.009  0.00  0.00    +0.235 C 
ATOM     35  C   UNL     1      34.420 -22.498 -14.706  0.00  0.00    +0.031 C 
ATOM     36  C   UNL     1      37.971 -25.331 -13.189  0.00  0.00    +0.341 C 
ENDBRANCH  25  28
BRANCH  25  37
ATOM     37  O   UNL     1      37.156 -20.068 -16.578  0.00  0.00    -0.382 OA
ATOM     38  H   UNL     1      36.694 -19.219 -16.664  0.00  0.00    +0.211 HD
ENDBRANCH  25  37
ENDBRANCH  24  25
ENDBRANCH   2  24
TORSDOF 8
ENDMDL
MODEL 9
REMARK VINA RESULT:     -12.5      2.189      4.167
REMARK  Name = 59568713
REMARK  8 active torsions:
REMARK  status: ('A' for Active; 'I' for Inactive)
REMARK    1  A    between atoms: N_1  and  C_9
REMARK    2  A    between atoms: N_2  and  C_24
REMARK    3  A    between atoms: C_9  and  C_10
REMARK    4  A    between atoms: C_10  and  C_13
REMARK    5  A    between atoms: C_10  and  O_22
REMARK    6  A    between atoms: C_24  and  C_25
REMARK    7  A    between atoms: C_25  and  C_28
REMARK    8  A    between atoms: C_25  and  O_37
REMARK                            x       y       z     vdW  Elec       q    Type
REMARK                         _______ _______ _______ _____ _____    ______ ____
ROOT
ATOM      1  N   UNL     1      34.322 -18.960 -21.531  0.00  0.00    +0.386 N 
ATOM      2  N   UNL     1      34.973 -16.420 -22.749  0.00  0.00    +0.386 N 
ATOM      3  C   UNL     1      34.061 -17.368 -23.402  0.00  0.00    -0.101 C 
ATOM      4  C   UNL     1      34.911 -16.572 -21.291  0.00  0.00    -0.101 C 
ATOM      5  C   UNL     1      34.384 -18.808 -22.990  0.00  0.00    -0.101 C 
ATOM      6  C   UNL     1      35.233 -18.012 -20.878  0.00  0.00    -0.101 C 
ATOM      7  H   UNL     1      33.372 -18.754 -21.227  0.00  0.00    -0.080 HD
ATOM      8  H   UNL     1      35.925 -16.628 -23.054  0.00  0.00    -0.080 HD
ENDROOT
BRANCH   1   9
ATOM      9  C   UNL     1      34.634 -20.333 -21.140  0.00  0.00    -0.043 C 
BRANCH   9  10
ATOM     10  C   UNL     1      33.659 -20.829 -20.064  0.00  0.00    +0.112 C 
BRANCH  10  13
ATOM     11  O   UNL     1      35.193 -23.108 -14.673  0.00  0.00    -0.440 OA
ATOM     12  O   UNL     1      37.402 -22.450 -14.875  0.00  0.00    -0.245 OA
ATOM     13  C   UNL     1      34.388 -21.265 -18.813  0.00  0.00    -0.002 C 
ATOM     14  C   UNL     1      33.711 -21.940 -17.792  0.00  0.00    -0.024 C 
ATOM     15  C   UNL     1      34.427 -22.315 -16.669  0.00  0.00    +0.023 C 
ATOM     16  C   UNL     1      35.758 -20.977 -18.697  0.00  0.00    -0.002 C 
ATOM     17  C   UNL     1      35.772 -22.025 -16.568  0.00  0.00    +0.075 C 
ATOM     18  C   UNL     1      36.470 -21.359 -17.559  0.00  0.00    +0.006 C 
ATOM     19  C   UNL     1      33.978 -23.027 -15.459  0.00  0.00    +0.235 C 
ATOM     20  C   UNL     1      32.257 -22.252 -17.902  0.00  0.00    +0.031 C 
ATOM     21  C   UNL     1      36.266 -22.529 -15.296  0.00  0.00    +0.341 C 
ENDBRANCH  10  13
BRANCH  10  22
ATOM     22  O   UNL     1      32.745 -19.791 -19.710  0.00  0.00    -0.382 OA
ATOM     23  H   UNL     1      32.052 -20.152 -19.136  0.00  0.00    +0.211 HD
ENDBRANCH  10  22
ENDBRANCH   9  10
ENDBRANCH   1   9
BRANCH   2  24
ATOM     24  C   UNL     1      34.664 -15.047 -23.142  0.00  0.00    -0.043 C 
BRANCH  24  25
ATOM     25  C   UNL     1      33.150 -14.849 -23.288  0.00  0.00    +0.112 C 
BRANCH  25  28
ATOM     26  O   UNL     1      31.330  -9.646 -20.790  0.00  0.00    -0.440 OA
ATOM     27  O   UNL     1      31.533  -8.469 -22.772  0.00  0.00    -0.245 OA
ATOM     28  C   UNL     1      32.751 -13.414 -23.018  0.00  0.00    -0.002 C 
ATOM     29  C   UNL     1      32.347 -13.014 -21.740  0.00  0.00    -0.024 C 
ATOM     30  C   UNL     1      31.993 -11.692 -21.550  0.00  0.00    +0.023 C 
ATOM     31  C   UNL     1      32.791 -12.492 -24.080  0.00  0.00    -0.002 C 
ATOM     32  C   UNL     1      32.037 -10.798 -22.599  0.00  0.00    +0.075 C 
ATOM     33  C   UNL     1      32.430 -11.161 -23.874  0.00  0.00    +0.006 C 
ATOM     34  C   UNL     1      31.537 -11.004 -20.329  0.00  0.00    +0.235 C 
ATOM     35  C   UNL     1      32.299 -13.981 -20.607  0.00  0.00    +0.031 C 
ATOM     36  C   UNL     1      31.615  -9.491 -22.121  0.00  0.00    +0.341 C 
ENDBRANCH  25  28
BRANCH  25  37
ATOM     37  O   UNL     1      32.732 -15.187 -24.610  0.00  0.00    -0.382 OA
ATOM     38  H   UNL     1      32.386 -14.396 -25.051  0.00  0.00    +0.211 HD
ENDBRANCH  25  37
ENDBRANCH  24  25
ENDBRANCH   2  24
TORSDOF 8
ENDMDL
