MODEL 1
REMARK VINA RESULT:     -11.8      0.000      0.000
REMARK  Name = 11840913
REMARK  8 active torsions:
REMARK  status: ('A' for Active; 'I' for Inactive)
REMARK    1  A    between atoms: C_2  and  C_13
REMARK    2  A    between atoms: C_3  and  C_20
REMARK    3  A    between atoms: C_10  and  C_15
REMARK    4  A    between atoms: C_15  and  N_16
REMARK    5  A    between atoms: C_20  and  N_22
REMARK    6  A    between atoms: N_23  and  C_27
REMARK    7  A    between atoms: C_32  and  C_34
REMARK    8  A    between atoms: C_34  and  O_35
REMARK                            x       y       z     vdW  Elec       q    Type
REMARK                         _______ _______ _______ _____ _____    ______ ____
ROOT
ATOM      1  N   UNL     1      34.862 -22.536 -16.493  0.00  0.00    +0.393 N 
ATOM      2  C   UNL     1      34.716 -22.739 -15.051  0.00  0.00    +0.017 C 
ATOM      3  C   UNL     1      33.533 -22.190 -16.999  0.00  0.00    -0.041 C 
ATOM      4  C   UNL     1      33.251 -23.091 -14.814  0.00  0.00    -0.015 C 
ATOM      5  C   UNL     1      32.634 -23.122 -16.205  0.00  0.00    -0.021 C 
ATOM      6  H   UNL     1      35.197 -23.391 -16.937  0.00  0.00    -0.084 HD
ATOM      7  H   UNL     1      35.539 -21.800 -16.695  0.00  0.00    -0.084 HD
ENDROOT
BRANCH   2  13
ATOM      8  O   UNL     1      35.692 -24.869 -15.382  0.00  0.00    -0.277 OA
ATOM      9  N   UNL     1      36.378 -23.661 -13.531  0.00  0.00    -0.285 N 
ATOM     10  C   UNL     1      37.396 -24.613 -13.079  0.00  0.00    +0.054 C 
ATOM     11  C   UNL     1      38.229 -23.807 -12.078  0.00  0.00    +0.019 C 
ATOM     12  C   UNL     1      36.340 -22.479 -12.673  0.00  0.00    +0.093 C 
ATOM     13  C   UNL     1      35.634 -23.856 -14.682  0.00  0.00    +0.205 C 
ATOM     14  C   UNL     1      37.219 -22.833 -11.483  0.00  0.00    +0.023 C 
BRANCH  10  15
ATOM     15  C   UNL     1      36.762 -25.847 -12.439  0.00  0.00    -0.066 C 
BRANCH  15  16
ATOM     16  N   UNL     1      36.712 -26.936 -13.366  0.00  0.00    +0.382 N 
ATOM     17  H   UNL     1      35.783 -27.360 -13.344  0.00  0.00    -0.089 HD
ATOM     18  H   UNL     1      37.410 -27.635 -13.109  0.00  0.00    -0.089 HD
ATOM     19  H   UNL     1      36.906 -26.593 -14.307  0.00  0.00    -0.089 HD
ENDBRANCH  15  16
ENDBRANCH  10  15
ENDBRANCH   2  13
BRANCH   3  20
ATOM     20  C   UNL     1      33.436 -22.400 -18.500  0.00  0.00    +0.070 C 
BRANCH  20  22
ATOM     21  O   UNL     1      32.472 -20.307 -20.202  0.00  0.00    -0.252 OA
ATOM     22  N   UNL     1      34.229 -21.440 -19.214  0.00  0.00    -0.291 N 
ATOM     23  N   UNL     1      34.692 -19.655 -20.595  0.00  0.00    -0.268 N 
ATOM     24  C   UNL     1      33.682 -20.439 -20.032  0.00  0.00    +0.304 C 
ATOM     25  H   UNL     1      35.209 -21.486 -19.125  0.00  0.00    +0.151 HD
ATOM     26  H   UNL     1      35.615 -19.899 -20.353  0.00  0.00    +0.156 HD
BRANCH  23  27
ATOM     27  C   UNL     1      34.551 -18.554 -21.471  0.00  0.00    +0.052 C 
ATOM     28  C   UNL     1      34.814 -17.277 -21.003  0.00  0.00    +0.015 C 
ATOM     29  C   UNL     1      34.153 -18.775 -22.779  0.00  0.00    +0.015 C 
ATOM     30  C   UNL     1      34.675 -16.192 -21.867  0.00  0.00    +0.008 C 
ATOM     31  C   UNL     1      34.014 -17.689 -23.644  0.00  0.00    +0.008 C 
ATOM     32  C   UNL     1      34.275 -16.398 -23.187  0.00  0.00    +0.076 C 
BRANCH  32  34
ATOM     33  O   UNL     1      33.892 -15.383 -25.293  0.00  0.00    -0.245 OA
ATOM     34  C   UNL     1      34.131 -15.265 -24.089  0.00  0.00    +0.341 C 
BRANCH  34  35
ATOM     35  O   UNL     1      34.290 -14.050 -23.470  0.00  0.00    -0.441 OA
ATOM     36  C   UNL     1      33.143 -13.192 -23.450  0.00  0.00    +0.256 C 
ENDBRANCH  34  35
ENDBRANCH  32  34
ENDBRANCH  23  27
ENDBRANCH  20  22
ENDBRANCH   3  20
TORSDOF 8
ENDMDL
MODEL 2
REMARK VINA RESULT:     -11.4      4.246     12.587
REMARK  Name = 11840913
REMARK  8 active torsions:
REMARK  status: ('A' for Active; 'I' for Inactive)
REMARK    1  A    between atoms: C_2  and  C_13
REMARK    2  A    between atoms: C_3  and  C_20
REMARK    3  A    between atoms: C_10  and  C_15
REMARK    4  A    between atoms: C_15  and  N_16
REMARK    5  A    between atoms: C_20  and  N_22
REMARK    6  A    between atoms: N_23  and  C_27
REMARK    7  A    between atoms: C_32  and  C_34
REMARK    8  A    between atoms: C_34  and  O_35
REMARK                            x       y       z     vdW  Elec       q    Type
REMARK                         _______ _______ _______ _____ _____    ______ ____
ROOT
ATOM      1  N   UNL     1      33.117 -13.449 -23.528  0.00  0.00    +0.393 N 
ATOM      2  C   UNL     1      32.364 -12.448 -22.771  0.00  0.00    +0.017 C 
ATOM      3  C   UNL     1      33.458 -14.512 -22.581  0.00  0.00    -0.041 C 
ATOM      4  C   UNL     1      32.766 -12.622 -21.311  0.00  0.00    -0.015 C 
ATOM      5  C   UNL     1      33.813 -13.727 -21.329  0.00  0.00    -0.021 C 
ATOM      6  H   UNL     1      33.965 -13.035 -23.913  0.00  0.00    -0.084 HD
ATOM      7  H   UNL     1      32.569 -13.811 -24.308  0.00  0.00    -0.084 HD
ENDROOT
BRANCH   2  13
ATOM      8  O   UNL     1      33.743 -11.013 -24.051  0.00  0.00    -0.277 OA
ATOM      9  N   UNL     1      31.966 -10.051 -22.925  0.00  0.00    -0.285 N 
ATOM     10  C   UNL     1      32.156  -8.694 -23.442  0.00  0.00    +0.054 C 
ATOM     11  C   UNL     1      30.838  -7.989 -23.108  0.00  0.00    +0.019 C 
ATOM     12  C   UNL     1      30.795 -10.127 -22.054  0.00  0.00    +0.093 C 
ATOM     13  C   UNL     1      32.762 -11.115 -23.313  0.00  0.00    +0.205 C 
ATOM     14  C   UNL     1      30.384  -8.680 -21.828  0.00  0.00    +0.023 C 
BRANCH  10  15
ATOM     15  C   UNL     1      33.356  -8.011 -22.788  0.00  0.00    -0.066 C 
BRANCH  15  16
ATOM     16  N   UNL     1      34.493  -8.031 -23.657  0.00  0.00    +0.382 N 
ATOM     17  H   UNL     1      35.014  -8.898 -23.516  0.00  0.00    -0.089 HD
ATOM     18  H   UNL     1      35.096  -7.235 -23.449  0.00  0.00    -0.089 HD
ATOM     19  H   UNL     1      34.182  -7.977 -24.627  0.00  0.00    -0.089 HD
ENDBRANCH  15  16
ENDBRANCH  10  15
ENDBRANCH   2  13
BRANCH   3  20
ATOM     20  C   UNL     1      34.602 -15.369 -23.094  0.00  0.00    +0.070 C 
BRANCH  20  22
ATOM     21  O   UNL     1      34.792 -16.760 -20.596  0.00  0.00    -0.252 OA
ATOM     22  N   UNL     1      34.352 -16.764 -22.867  0.00  0.00    -0.291 N 
ATOM     23  N   UNL     1      34.161 -18.737 -21.693  0.00  0.00    -0.268 N 
ATOM     24  C   UNL     1      34.466 -17.376 -21.609  0.00  0.00    +0.304 C 
ATOM     25  H   UNL     1      34.085 -17.321 -23.635  0.00  0.00    +0.151 HD
ATOM     26  H   UNL     1      33.918 -19.072 -22.587  0.00  0.00    +0.156 HD
BRANCH  23  27
ATOM     27  C   UNL     1      34.162 -19.694 -20.651  0.00  0.00    +0.052 C 
ATOM     28  C   UNL     1      32.954 -20.164 -20.163  0.00  0.00    +0.015 C 
ATOM     29  C   UNL     1      35.369 -20.140 -20.141  0.00  0.00    +0.015 C 
ATOM     30  C   UNL     1      32.955 -21.107 -19.135  0.00  0.00    +0.008 C 
ATOM     31  C   UNL     1      35.370 -21.084 -19.114  0.00  0.00    +0.008 C 
ATOM     32  C   UNL     1      34.163 -21.567 -18.611  0.00  0.00    +0.076 C 
BRANCH  32  34
ATOM     33  O   UNL     1      33.316 -23.442 -17.437  0.00  0.00    -0.245 OA
ATOM     34  C   UNL     1      34.163 -22.552 -17.541  0.00  0.00    +0.341 C 
BRANCH  34  35
ATOM     35  O   UNL     1      35.200 -22.395 -16.654  0.00  0.00    -0.441 OA
ATOM     36  C   UNL     1      34.854 -22.401 -15.264  0.00  0.00    +0.256 C 
ENDBRANCH  34  35
ENDBRANCH  32  34
ENDBRANCH  23  27
ENDBRANCH  20  22
ENDBRANCH   3  20
TORSDOF 8
ENDMDL
MODEL 3
REMARK VINA RESULT:     -11.2      1.177      1.539
REMARK  Name = 11840913
REMARK  8 active torsions:
REMARK  status: ('A' for Active; 'I' for Inactive)
REMARK    1  A    between atoms: C_2  and  C_13
REMARK    2  A    between atoms: C_3  and  C_20
REMARK    3  A    between atoms: C_10  and  C_15
REMARK    4  A    between atoms: C_15  and  N_16
REMARK    5  A    between atoms: C_20  and  N_22
REMARK    6  A    between atoms: N_23  and  C_27
REMARK    7  A    between atoms: C_32  and  C_34
REMARK    8  A    between atoms: C_34  and  O_35
REMARK                            x       y       z     vdW  Elec       q    Type
REMARK                         _______ _______ _______ _____ _____    ______ ____
ROOT
ATOM      1  N   UNL     1      35.557 -21.809 -16.747  0.00  0.00    +0.393 N 
ATOM      2  C   UNL     1      35.554 -21.978 -15.293  0.00  0.00    +0.017 C 
ATOM      3  C   UNL     1      34.171 -21.979 -17.186  0.00  0.00    -0.041 C 
ATOM      4  C   UNL     1      34.321 -22.811 -14.960  0.00  0.00    -0.015 C 
ATOM      5  C   UNL     1      33.695 -23.128 -16.311  0.00  0.00    -0.021 C 
ATOM      6  H   UNL     1      36.153 -22.513 -17.181  0.00  0.00    -0.084 HD
ATOM      7  H   UNL     1      35.919 -20.893 -17.011  0.00  0.00    -0.084 HD
ENDROOT
BRANCH   2  13
ATOM      8  O   UNL     1      37.800 -22.608 -15.690  0.00  0.00    -0.277 OA
ATOM      9  N   UNL     1      36.803 -23.393 -13.755  0.00  0.00    -0.285 N 
ATOM     10  C   UNL     1      37.990 -24.059 -13.214  0.00  0.00    +0.054 C 
ATOM     11  C   UNL     1      37.629 -24.313 -11.748  0.00  0.00    +0.019 C 
ATOM     12  C   UNL     1      35.669 -23.506 -12.840  0.00  0.00    +0.093 C 
ATOM     13  C   UNL     1      36.823 -22.680 -14.942  0.00  0.00    +0.205 C 
ATOM     14  C   UNL     1      36.118 -24.507 -11.786  0.00  0.00    +0.023 C 
BRANCH  10  15
ATOM     15  C   UNL     1      38.295 -25.353 -13.965  0.00  0.00    -0.066 C 
BRANCH  15  16
ATOM     16  N   UNL     1      39.276 -25.136 -14.985  0.00  0.00    +0.382 N 
ATOM     17  H   UNL     1      40.089 -24.670 -14.580  0.00  0.00    -0.089 HD
ATOM     18  H   UNL     1      38.880 -24.551 -15.720  0.00  0.00    -0.089 HD
ATOM     19  H   UNL     1      39.561 -26.033 -15.379  0.00  0.00    -0.089 HD
ENDBRANCH  15  16
ENDBRANCH  10  15
ENDBRANCH   2  13
BRANCH   3  20
ATOM     20  C   UNL     1      34.090 -22.285 -18.671  0.00  0.00    +0.070 C 
BRANCH  20  22
ATOM     21  O   UNL     1      32.828 -20.277 -20.277  0.00  0.00    -0.252 OA
ATOM     22  N   UNL     1      34.744 -21.272 -19.449  0.00  0.00    -0.291 N 
ATOM     23  N   UNL     1      34.951 -19.464 -20.860  0.00  0.00    -0.268 N 
ATOM     24  C   UNL     1      34.055 -20.318 -20.214  0.00  0.00    +0.304 C 
ATOM     25  H   UNL     1      35.729 -21.245 -19.446  0.00  0.00    +0.151 HD
ATOM     26  H   UNL     1      35.908 -19.638 -20.701  0.00  0.00    +0.156 HD
BRANCH  23  27
ATOM     27  C   UNL     1      34.653 -18.379 -21.719  0.00  0.00    +0.052 C 
ATOM     28  C   UNL     1      34.149 -18.634 -22.983  0.00  0.00    +0.015 C 
ATOM     29  C   UNL     1      34.871 -17.085 -21.277  0.00  0.00    +0.015 C 
ATOM     30  C   UNL     1      33.855 -17.566 -23.829  0.00  0.00    +0.008 C 
ATOM     31  C   UNL     1      34.576 -16.016 -22.122  0.00  0.00    +0.008 C 
ATOM     32  C   UNL     1      34.068 -16.256 -23.399  0.00  0.00    +0.076 C 
BRANCH  32  34
ATOM     33  O   UNL     1      33.438 -15.280 -25.462  0.00  0.00    -0.245 OA
ATOM     34  C   UNL     1      33.760 -15.141 -24.280  0.00  0.00    +0.341 C 
BRANCH  34  35
ATOM     35  O   UNL     1      33.863 -13.916 -23.668  0.00  0.00    -0.441 OA
ATOM     36  C   UNL     1      32.707 -13.073 -23.733  0.00  0.00    +0.256 C 
ENDBRANCH  34  35
ENDBRANCH  32  34
ENDBRANCH  23  27
ENDBRANCH  20  22
ENDBRANCH   3  20
TORSDOF 8
ENDMDL
MODEL 4
REMARK VINA RESULT:     -11.1      1.787      2.340
REMARK  Name = 11840913
REMARK  8 active torsions:
REMARK  status: ('A' for Active; 'I' for Inactive)
REMARK    1  A    between atoms: C_2  and  C_13
REMARK    2  A    between atoms: C_3  and  C_20
REMARK    3  A    between atoms: C_10  and  C_15
REMARK    4  A    between atoms: C_15  and  N_16
REMARK    5  A    between atoms: C_20  and  N_22
REMARK    6  A    between atoms: N_23  and  C_27
REMARK    7  A    between atoms: C_32  and  C_34
REMARK    8  A    between atoms: C_34  and  O_35
REMARK                            x       y       z     vdW  Elec       q    Type
REMARK                         _______ _______ _______ _____ _____    ______ ____
ROOT
ATOM      1  N   UNL     1      35.878 -22.622 -16.829  0.00  0.00    +0.393 N 
ATOM      2  C   UNL     1      36.829 -22.586 -15.717  0.00  0.00    +0.017 C 
ATOM      3  C   UNL     1      36.339 -21.628 -17.799  0.00  0.00    -0.041 C 
ATOM      4  C   UNL     1      37.479 -21.207 -15.752  0.00  0.00    -0.015 C 
ATOM      5  C   UNL     1      36.790 -20.487 -16.903  0.00  0.00    -0.021 C 
ATOM      6  H   UNL     1      34.943 -22.385 -16.500  0.00  0.00    -0.084 HD
ATOM      7  H   UNL     1      35.832 -23.552 -17.245  0.00  0.00    -0.084 HD
ENDROOT
BRANCH   2  13
ATOM      8  O   UNL     1      34.958 -22.233 -14.311  0.00  0.00    -0.277 OA
ATOM      9  N   UNL     1      36.602 -23.673 -13.551  0.00  0.00    -0.285 N 
ATOM     10  C   UNL     1      35.914 -24.076 -12.321  0.00  0.00    +0.054 C 
ATOM     11  C   UNL     1      36.679 -25.324 -11.869  0.00  0.00    +0.019 C 
ATOM     12  C   UNL     1      37.875 -24.374 -13.699  0.00  0.00    +0.093 C 
ATOM     13  C   UNL     1      36.037 -22.807 -14.471  0.00  0.00    +0.205 C 
ATOM     14  C   UNL     1      38.097 -25.067 -12.363  0.00  0.00    +0.023 C 
BRANCH  10  15
ATOM     15  C   UNL     1      35.951 -22.966 -11.272  0.00  0.00    -0.066 C 
BRANCH  15  16
ATOM     16  N   UNL     1      35.947 -23.511  -9.949  0.00  0.00    +0.382 N 
ATOM     17  H   UNL     1      35.117 -24.093  -9.823  0.00  0.00    -0.089 HD
ATOM     18  H   UNL     1      35.936 -22.753  -9.267  0.00  0.00    -0.089 HD
ATOM     19  H   UNL     1      36.783 -24.080  -9.812  0.00  0.00    -0.089 HD
ENDBRANCH  15  16
ENDBRANCH  10  15
ENDBRANCH   2  13
BRANCH   3  20
ATOM     20  C   UNL     1      35.233 -21.232 -18.761  0.00  0.00    +0.070 C 
BRANCH  20  22
ATOM     21  O   UNL     1      33.523 -19.671 -20.449  0.00  0.00    -0.252 OA
ATOM     22  N   UNL     1      35.614 -20.102 -19.558  0.00  0.00    -0.291 N 
ATOM     23  N   UNL     1      35.369 -18.339 -21.021  0.00  0.00    -0.268 N 
ATOM     24  C   UNL     1      34.716 -19.384 -20.363  0.00  0.00    +0.304 C 
ATOM     25  H   UNL     1      36.556 -19.815 -19.540  0.00  0.00    +0.151 HD
ATOM     26  H   UNL     1      36.333 -18.249 -20.841  0.00  0.00    +0.156 HD
BRANCH  23  27
ATOM     27  C   UNL     1      34.815 -17.395 -21.917  0.00  0.00    +0.052 C 
ATOM     28  C   UNL     1      34.588 -16.100 -21.482  0.00  0.00    +0.015 C 
ATOM     29  C   UNL     1      34.511 -17.784 -23.211  0.00  0.00    +0.015 C 
ATOM     30  C   UNL     1      34.042 -15.169 -22.365  0.00  0.00    +0.008 C 
ATOM     31  C   UNL     1      33.966 -16.853 -24.094  0.00  0.00    +0.008 C 
ATOM     32  C   UNL     1      33.731 -15.546 -23.671  0.00  0.00    +0.076 C 
BRANCH  32  34
ATOM     33  O   UNL     1      33.192 -14.704 -25.818  0.00  0.00    -0.245 OA
ATOM     34  C   UNL     1      33.163 -14.574 -24.593  0.00  0.00    +0.341 C 
BRANCH  34  35
ATOM     35  O   UNL     1      32.592 -13.494 -23.965  0.00  0.00    -0.441 OA
ATOM     36  C   UNL     1      33.088 -12.204 -24.342  0.00  0.00    +0.256 C 
ENDBRANCH  34  35
ENDBRANCH  32  34
ENDBRANCH  23  27
ENDBRANCH  20  22
ENDBRANCH   3  20
TORSDOF 8
ENDMDL
MODEL 5
REMARK VINA RESULT:     -11.0      2.635     11.374
REMARK  Name = 11840913
REMARK  8 active torsions:
REMARK  status: ('A' for Active; 'I' for Inactive)
REMARK    1  A    between atoms: C_2  and  C_13
REMARK    2  A    between atoms: C_3  and  C_20
REMARK    3  A    between atoms: C_10  and  C_15
REMARK    4  A    between atoms: C_15  and  N_16
REMARK    5  A    between atoms: C_20  and  N_22
REMARK    6  A    between atoms: N_23  and  C_27
REMARK    7  A    between atoms: C_32  and  C_34
REMARK    8  A    between atoms: C_34  and  O_35
REMARK                            x       y       z     vdW  Elec       q    Type
REMARK                         _______ _______ _______ _____ _____    ______ ____
ROOT
ATOM      1  N   UNL     1      35.110 -17.867 -20.859  0.00  0.00    +0.393 N 
ATOM      2  C   UNL     1      35.054 -16.805 -21.864  0.00  0.00    +0.017 C 
ATOM      3  C   UNL     1      34.888 -19.125 -21.573  0.00  0.00    -0.041 C 
ATOM      4  C   UNL     1      34.233 -17.356 -23.025  0.00  0.00    -0.015 C 
ATOM      5  C   UNL     1      33.805 -18.743 -22.569  0.00  0.00    -0.021 C 
ATOM      6  H   UNL     1      34.383 -17.727 -20.158  0.00  0.00    -0.084 HD
ATOM      7  H   UNL     1      36.008 -17.870 -20.374  0.00  0.00    -0.084 HD
ENDROOT
BRANCH   2  13
ATOM      8  O   UNL     1      34.232 -15.616 -19.991  0.00  0.00    -0.277 OA
ATOM      9  N   UNL     1      34.007 -14.617 -22.065  0.00  0.00    -0.285 N 
ATOM     10  C   UNL     1      33.437 -13.357 -21.582  0.00  0.00    +0.054 C 
ATOM     11  C   UNL     1      33.576 -12.412 -22.780  0.00  0.00    +0.019 C 
ATOM     12  C   UNL     1      34.184 -14.596 -23.516  0.00  0.00    +0.093 C 
ATOM     13  C   UNL     1      34.398 -15.634 -21.211  0.00  0.00    +0.205 C 
ATOM     14  C   UNL     1      33.456 -13.344 -23.980  0.00  0.00    +0.023 C 
BRANCH  10  15
ATOM     15  C   UNL     1      31.982 -13.531 -21.151  0.00  0.00    -0.066 C 
BRANCH  15  16
ATOM     16  N   UNL     1      31.255 -12.306 -21.294  0.00  0.00    +0.382 N 
ATOM     17  H   UNL     1      31.258 -11.803 -20.405  0.00  0.00    -0.089 HD
ATOM     18  H   UNL     1      30.294 -12.510 -21.566  0.00  0.00    -0.089 HD
ATOM     19  H   UNL     1      31.697 -11.730 -22.011  0.00  0.00    -0.089 HD
ENDBRANCH  15  16
ENDBRANCH  10  15
ENDBRANCH   2  13
BRANCH   3  20
ATOM     20  C   UNL     1      34.467 -20.237 -20.628  0.00  0.00    +0.070 C 
BRANCH  20  22
ATOM     21  O   UNL     1      34.498 -22.257 -18.598  0.00  0.00    -0.252 OA
ATOM     22  N   UNL     1      35.282 -20.254 -19.447  0.00  0.00    -0.291 N 
ATOM     23  N   UNL     1      36.142 -21.031 -17.456  0.00  0.00    -0.268 N 
ATOM     24  C   UNL     1      35.241 -21.284 -18.494  0.00  0.00    +0.304 C 
ATOM     25  H   UNL     1      35.903 -19.504 -19.298  0.00  0.00    +0.151 HD
ATOM     26  H   UNL     1      36.663 -20.199 -17.528  0.00  0.00    +0.156 HD
BRANCH  23  27
ATOM     27  C   UNL     1      36.395 -21.825 -16.313  0.00  0.00    +0.052 C 
ATOM     28  C   UNL     1      35.375 -22.050 -15.404  0.00  0.00    +0.015 C 
ATOM     29  C   UNL     1      37.658 -22.361 -16.126  0.00  0.00    +0.015 C 
ATOM     30  C   UNL     1      35.624 -22.832 -14.277  0.00  0.00    +0.008 C 
ATOM     31  C   UNL     1      37.908 -23.144 -14.999  0.00  0.00    +0.008 C 
ATOM     32  C   UNL     1      36.891 -23.379 -14.075  0.00  0.00    +0.076 C 
BRANCH  32  34
ATOM     33  O   UNL     1      37.909 -23.855 -11.990  0.00  0.00    -0.245 OA
ATOM     34  C   UNL     1      37.151 -24.196 -12.900  0.00  0.00    +0.341 C 
BRANCH  34  35
ATOM     35  O   UNL     1      36.472 -25.390 -12.903  0.00  0.00    -0.441 OA
ATOM     36  C   UNL     1      36.884 -26.354 -13.879  0.00  0.00    +0.256 C 
ENDBRANCH  34  35
ENDBRANCH  32  34
ENDBRANCH  23  27
ENDBRANCH  20  22
ENDBRANCH   3  20
TORSDOF 8
ENDMDL
MODEL 6
REMARK VINA RESULT:     -10.4      4.834      8.902
REMARK  Name = 11840913
REMARK  8 active torsions:
REMARK  status: ('A' for Active; 'I' for Inactive)
REMARK    1  A    between atoms: C_2  and  C_13
REMARK    2  A    between atoms: C_3  and  C_20
REMARK    3  A    between atoms: C_10  and  C_15
REMARK    4  A    between atoms: C_15  and  N_16
REMARK    5  A    between atoms: C_20  and  N_22
REMARK    6  A    between atoms: N_23  and  C_27
REMARK    7  A    between atoms: C_32  and  C_34
REMARK    8  A    between atoms: C_34  and  O_35
REMARK                            x       y       z     vdW  Elec       q    Type
REMARK                         _______ _______ _______ _____ _____    ______ ____
ROOT
ATOM      1  N   UNL     1      34.214 -17.191 -23.543  0.00  0.00    +0.393 N 
ATOM      2  C   UNL     1      34.864 -17.769 -22.366  0.00  0.00    +0.017 C 
ATOM      3  C   UNL     1      34.433 -15.746 -23.468  0.00  0.00    -0.041 C 
ATOM      4  C   UNL     1      34.940 -16.655 -21.328  0.00  0.00    -0.015 C 
ATOM      5  C   UNL     1      34.249 -15.469 -21.986  0.00  0.00    -0.021 C 
ATOM      6  H   UNL     1      33.216 -17.398 -23.531  0.00  0.00    -0.084 HD
ATOM      7  H   UNL     1      34.598 -17.579 -24.405  0.00  0.00    -0.084 HD
ENDROOT
BRANCH   2  13
ATOM      8  O   UNL     1      32.911 -19.102 -22.451  0.00  0.00    -0.277 OA
ATOM      9  N   UNL     1      34.520 -19.675 -20.891  0.00  0.00    -0.285 N 
ATOM     10  C   UNL     1      33.852 -20.881 -20.397  0.00  0.00    +0.054 C 
ATOM     11  C   UNL     1      34.951 -21.615 -19.623  0.00  0.00    +0.019 C 
ATOM     12  C   UNL     1      35.808 -19.475 -20.231  0.00  0.00    +0.093 C 
ATOM     13  C   UNL     1      34.003 -18.903 -21.918  0.00  0.00    +0.205 C 
ATOM     14  C   UNL     1      35.823 -20.484 -19.092  0.00  0.00    +0.023 C 
BRANCH  10  15
ATOM     15  C   UNL     1      32.657 -20.534 -19.512  0.00  0.00    -0.066 C 
BRANCH  15  16
ATOM     16  N   UNL     1      32.273 -21.654 -18.707  0.00  0.00    +0.382 N 
ATOM     17  H   UNL     1      31.837 -22.364 -19.298  0.00  0.00    -0.089 HD
ATOM     18  H   UNL     1      31.610 -21.351 -17.995  0.00  0.00    -0.089 HD
ATOM     19  H   UNL     1      33.099 -22.049 -18.256  0.00  0.00    -0.089 HD
ENDBRANCH  15  16
ENDBRANCH  10  15
ENDBRANCH   2  13
BRANCH   3  20
ATOM     20  C   UNL     1      33.451 -14.987 -24.344  0.00  0.00    +0.070 C 
BRANCH  20  22
ATOM     21  O   UNL     1      33.828 -12.227 -23.674  0.00  0.00    -0.252 OA
ATOM     22  N   UNL     1      32.575 -14.168 -23.557  0.00  0.00    -0.291 N 
ATOM     23  N   UNL     1      31.804 -12.278 -22.487  0.00  0.00    -0.268 N 
ATOM     24  C   UNL     1      32.828 -12.817 -23.270  0.00  0.00    +0.304 C 
ATOM     25  H   UNL     1      31.752 -14.574 -23.199  0.00  0.00    +0.151 HD
ATOM     26  H   UNL     1      31.072 -12.893 -22.249  0.00  0.00    +0.156 HD
BRANCH  23  27
ATOM     27  C   UNL     1      31.692 -10.958 -21.992  0.00  0.00    +0.052 C 
ATOM     28  C   UNL     1      31.258 -10.756 -20.692  0.00  0.00    +0.015 C 
ATOM     29  C   UNL     1      32.017  -9.894 -22.817  0.00  0.00    +0.015 C 
ATOM     30  C   UNL     1      31.147  -9.455 -20.204  0.00  0.00    +0.008 C 
ATOM     31  C   UNL     1      31.907  -8.592 -22.329  0.00  0.00    +0.008 C 
ATOM     32  C   UNL     1      31.472  -8.373 -21.022  0.00  0.00    +0.076 C 
BRANCH  32  34
ATOM     33  O   UNL     1      31.738  -6.678 -19.389  0.00  0.00    -0.245 OA
ATOM     34  C   UNL     1      31.358  -7.015 -20.512  0.00  0.00    +0.341 C 
BRANCH  34  35
ATOM     35  O   UNL     1      30.783  -6.143 -21.404  0.00  0.00    -0.441 OA
ATOM     36  C   UNL     1      30.486  -4.832 -20.910  0.00  0.00    +0.256 C 
ENDBRANCH  34  35
ENDBRANCH  32  34
ENDBRANCH  23  27
ENDBRANCH  20  22
ENDBRANCH   3  20
TORSDOF 8
ENDMDL
MODEL 7
REMARK VINA RESULT:     -10.4      3.177     11.209
REMARK  Name = 11840913
REMARK  8 active torsions:
REMARK  status: ('A' for Active; 'I' for Inactive)
REMARK    1  A    between atoms: C_2  and  C_13
REMARK    2  A    between atoms: C_3  and  C_20
REMARK    3  A    between atoms: C_10  and  C_15
REMARK    4  A    between atoms: C_15  and  N_16
REMARK    5  A    between atoms: C_20  and  N_22
REMARK    6  A    between atoms: N_23  and  C_27
REMARK    7  A    between atoms: C_32  and  C_34
REMARK    8  A    between atoms: C_34  and  O_35
REMARK                            x       y       z     vdW  Elec       q    Type
REMARK                         _______ _______ _______ _____ _____    ______ ____
ROOT
ATOM      1  N   UNL     1      35.786 -17.436 -21.695  0.00  0.00    +0.393 N 
ATOM      2  C   UNL     1      34.868 -16.701 -22.567  0.00  0.00    +0.017 C 
ATOM      3  C   UNL     1      35.605 -18.854 -22.005  0.00  0.00    -0.041 C 
ATOM      4  C   UNL     1      33.760 -17.678 -22.943  0.00  0.00    -0.015 C 
ATOM      5  C   UNL     1      34.099 -18.954 -22.186  0.00  0.00    -0.021 C 
ATOM      6  H   UNL     1      35.561 -17.257 -20.717  0.00  0.00    -0.084 HD
ATOM      7  H   UNL     1      36.752 -17.144 -21.846  0.00  0.00    -0.084 HD
ENDROOT
BRANCH   2  13
ATOM      8  O   UNL     1      34.405 -15.569 -20.541  0.00  0.00    -0.277 OA
ATOM      9  N   UNL     1      33.847 -14.492 -22.511  0.00  0.00    -0.285 N 
ATOM     10  C   UNL     1      33.395 -13.242 -21.896  0.00  0.00    +0.054 C 
ATOM     11  C   UNL     1      33.345 -12.257 -23.067  0.00  0.00    +0.019 C 
ATOM     12  C   UNL     1      33.772 -14.422 -23.969  0.00  0.00    +0.093 C 
ATOM     13  C   UNL     1      34.358 -15.545 -21.772  0.00  0.00    +0.205 C 
ATOM     14  C   UNL     1      33.001 -13.143 -24.258  0.00  0.00    +0.023 C 
BRANCH  10  15
ATOM     15  C   UNL     1      32.033 -13.410 -21.226  0.00  0.00    -0.066 C 
BRANCH  15  16
ATOM     16  N   UNL     1      31.241 -12.227 -21.370  0.00  0.00    +0.382 N 
ATOM     17  H   UNL     1      31.276 -11.910 -22.340  0.00  0.00    -0.089 HD
ATOM     18  H   UNL     1      31.607 -11.496 -20.761  0.00  0.00    -0.089 HD
ATOM     19  H   UNL     1      30.274 -12.430 -21.115  0.00  0.00    -0.089 HD
ENDBRANCH  15  16
ENDBRANCH  10  15
ENDBRANCH   2  13
BRANCH   3  20
ATOM     20  C   UNL     1      36.133 -19.741 -20.891  0.00  0.00    +0.070 C 
BRANCH  20  22
ATOM     21  O   UNL     1      35.987 -20.633 -18.172  0.00  0.00    -0.252 OA
ATOM     22  N   UNL     1      35.081 -20.515 -20.297  0.00  0.00    -0.291 N 
ATOM     23  N   UNL     1      33.931 -21.655 -18.658  0.00  0.00    -0.268 N 
ATOM     24  C   UNL     1      35.080 -20.916 -18.952  0.00  0.00    +0.304 C 
ATOM     25  H   UNL     1      34.319 -20.780 -20.863  0.00  0.00    +0.151 HD
ATOM     26  H   UNL     1      33.301 -21.792 -19.404  0.00  0.00    +0.156 HD
BRANCH  23  27
ATOM     27  C   UNL     1      33.562 -22.234 -17.421  0.00  0.00    +0.052 C 
ATOM     28  C   UNL     1      34.549 -22.583 -16.515  0.00  0.00    +0.015 C 
ATOM     29  C   UNL     1      32.221 -22.439 -17.142  0.00  0.00    +0.015 C 
ATOM     30  C   UNL     1      34.185 -23.153 -15.295  0.00  0.00    +0.008 C 
ATOM     31  C   UNL     1      31.857 -23.009 -15.922  0.00  0.00    +0.008 C 
ATOM     32  C   UNL     1      32.839 -23.366 -14.999  0.00  0.00    +0.076 C 
BRANCH  32  34
ATOM     33  O   UNL     1      33.057 -23.739 -12.670  0.00  0.00    -0.245 OA
ATOM     34  C   UNL     1      32.460 -23.959 -13.726  0.00  0.00    +0.341 C 
BRANCH  34  35
ATOM     35  O   UNL     1      31.371 -24.791 -13.814  0.00  0.00    -0.441 OA
ATOM     36  C   UNL     1      30.249 -24.461 -12.987  0.00  0.00    +0.256 C 
ENDBRANCH  34  35
ENDBRANCH  32  34
ENDBRANCH  23  27
ENDBRANCH  20  22
ENDBRANCH   3  20
TORSDOF 8
ENDMDL
MODEL 8
REMARK VINA RESULT:     -10.2      1.678      2.482
REMARK  Name = 11840913
REMARK  8 active torsions:
REMARK  status: ('A' for Active; 'I' for Inactive)
REMARK    1  A    between atoms: C_2  and  C_13
REMARK    2  A    between atoms: C_3  and  C_20
REMARK    3  A    between atoms: C_10  and  C_15
REMARK    4  A    between atoms: C_15  and  N_16
REMARK    5  A    between atoms: C_20  and  N_22
REMARK    6  A    between atoms: N_23  and  C_27
REMARK    7  A    between atoms: C_32  and  C_34
REMARK    8  A    between atoms: C_34  and  O_35
REMARK                            x       y       z     vdW  Elec       q    Type
REMARK                         _______ _______ _______ _____ _____    ______ ____
ROOT
ATOM      1  N   UNL     1      34.981 -21.350 -17.604  0.00  0.00    +0.393 N 
ATOM      2  C   UNL     1      34.216 -22.105 -16.611  0.00  0.00    +0.017 C 
ATOM      3  C   UNL     1      34.236 -21.448 -18.860  0.00  0.00    -0.041 C 
ATOM      4  C   UNL     1      33.374 -23.109 -17.390  0.00  0.00    -0.015 C 
ATOM      5  C   UNL     1      33.766 -22.893 -18.844  0.00  0.00    -0.021 C 
ATOM      6  H   UNL     1      35.911 -21.753 -17.713  0.00  0.00    -0.084 HD
ATOM      7  H   UNL     1      35.099 -20.378 -17.319  0.00  0.00    -0.084 HD
ENDROOT
BRANCH   2  13
ATOM      8  O   UNL     1      36.390 -22.868 -16.072  0.00  0.00    -0.277 OA
ATOM      9  N   UNL     1      34.715 -23.253 -14.522  0.00  0.00    -0.285 N 
ATOM     10  C   UNL     1      35.573 -23.846 -13.494  0.00  0.00    +0.054 C 
ATOM     11  C   UNL     1      34.704 -23.815 -12.233  0.00  0.00    +0.019 C 
ATOM     12  C   UNL     1      33.330 -23.160 -14.068  0.00  0.00    +0.093 C 
ATOM     13  C   UNL     1      35.213 -22.771 -15.722  0.00  0.00    +0.205 C 
ATOM     14  C   UNL     1      33.288 -23.964 -12.778  0.00  0.00    +0.023 C 
BRANCH  10  15
ATOM     15  C   UNL     1      35.994 -25.265 -13.868  0.00  0.00    -0.066 C 
BRANCH  15  16
ATOM     16  N   UNL     1      35.201 -25.768 -14.948  0.00  0.00    +0.382 N 
ATOM     17  H   UNL     1      35.812 -26.166 -15.663  0.00  0.00    -0.089 HD
ATOM     18  H   UNL     1      34.655 -25.007 -15.354  0.00  0.00    -0.089 HD
ATOM     19  H   UNL     1      34.570 -26.490 -14.600  0.00  0.00    -0.089 HD
ENDBRANCH  15  16
ENDBRANCH  10  15
ENDBRANCH   2  13
BRANCH   3  20
ATOM     20  C   UNL     1      35.113 -21.117 -20.056  0.00  0.00    +0.070 C 
BRANCH  20  22
ATOM     21  O   UNL     1      33.703 -19.224 -21.679  0.00  0.00    -0.252 OA
ATOM     22  N   UNL     1      35.365 -19.707 -20.144  0.00  0.00    -0.291 N 
ATOM     23  N   UNL     1      35.097 -17.529 -20.845  0.00  0.00    -0.268 N 
ATOM     24  C   UNL     1      34.628 -18.840 -20.965  0.00  0.00    +0.304 C 
ATOM     25  H   UNL     1      36.093 -19.329 -19.600  0.00  0.00    +0.151 HD
ATOM     26  H   UNL     1      35.851 -17.395 -20.226  0.00  0.00    +0.156 HD
BRANCH  23  27
ATOM     27  C   UNL     1      34.622 -16.372 -21.505  0.00  0.00    +0.052 C 
ATOM     28  C   UNL     1      34.138 -15.314 -20.754  0.00  0.00    +0.015 C 
ATOM     29  C   UNL     1      34.650 -16.321 -22.888  0.00  0.00    +0.015 C 
ATOM     30  C   UNL     1      33.669 -14.173 -21.404  0.00  0.00    +0.008 C 
ATOM     31  C   UNL     1      34.182 -15.180 -23.540  0.00  0.00    +0.008 C 
ATOM     32  C   UNL     1      33.691 -14.106 -22.797  0.00  0.00    +0.076 C 
BRANCH  32  34
ATOM     33  O   UNL     1      32.846 -12.905 -24.656  0.00  0.00    -0.245 OA
ATOM     34  C   UNL     1      33.204 -12.915 -23.476  0.00  0.00    +0.341 C 
BRANCH  34  35
ATOM     35  O   UNL     1      33.183 -11.800 -22.675  0.00  0.00    -0.441 OA
ATOM     36  C   UNL     1      31.894 -11.244 -22.391  0.00  0.00    +0.256 C 
ENDBRANCH  34  35
ENDBRANCH  32  34
ENDBRANCH  23  27
ENDBRANCH  20  22
ENDBRANCH   3  20
TORSDOF 8
ENDMDL
MODEL 9
REMARK VINA RESULT:     -10.2      2.675     11.433
REMARK  Name = 11840913
REMARK  8 active torsions:
REMARK  status: ('A' for Active; 'I' for Inactive)
REMARK    1  A    between atoms: C_2  and  C_13
REMARK    2  A    between atoms: C_3  and  C_20
REMARK    3  A    between atoms: C_10  and  C_15
REMARK    4  A    between atoms: C_15  and  N_16
REMARK    5  A    between atoms: C_20  and  N_22
REMARK    6  A    between atoms: N_23  and  C_27
REMARK    7  A    between atoms: C_32  and  C_34
REMARK    8  A    between atoms: C_34  and  O_35
REMARK                            x       y       z     vdW  Elec       q    Type
REMARK                         _______ _______ _______ _____ _____    ______ ____
ROOT
ATOM      1  N   UNL     1      34.829 -17.069 -21.927  0.00  0.00    +0.393 N 
ATOM      2  C   UNL     1      34.817 -15.881 -22.782  0.00  0.00    +0.017 C 
ATOM      3  C   UNL     1      34.579 -18.212 -22.806  0.00  0.00    -0.041 C 
ATOM      4  C   UNL     1      33.994 -16.245 -24.012  0.00  0.00    -0.015 C 
ATOM      5  C   UNL     1      33.519 -17.667 -23.750  0.00  0.00    -0.021 C 
ATOM      6  H   UNL     1      34.098 -17.001 -21.220  0.00  0.00    -0.084 HD
ATOM      7  H   UNL     1      35.720 -17.165 -21.440  0.00  0.00    -0.084 HD
ENDROOT
BRANCH   2  13
ATOM      8  O   UNL     1      34.165 -14.852 -20.753  0.00  0.00    -0.277 OA
ATOM      9  N   UNL     1      33.652 -13.744 -22.718  0.00  0.00    -0.285 N 
ATOM     10  C   UNL     1      33.084 -12.548 -22.092  0.00  0.00    +0.054 C 
ATOM     11  C   UNL     1      33.037 -11.527 -23.233  0.00  0.00    +0.019 C 
ATOM     12  C   UNL     1      33.657 -13.628 -24.175  0.00  0.00    +0.093 C 
ATOM     13  C   UNL     1      34.187 -14.788 -21.983  0.00  0.00    +0.205 C 
ATOM     14  C   UNL     1      32.822 -12.391 -24.470  0.00  0.00    +0.023 C 
BRANCH  10  15
ATOM     15  C   UNL     1      31.700 -12.825 -21.511  0.00  0.00    -0.066 C 
BRANCH  15  16
ATOM     16  N   UNL     1      30.885 -11.649 -21.542  0.00  0.00    +0.382 N 
ATOM     17  H   UNL     1      30.349 -11.630 -22.411  0.00  0.00    -0.089 HD
ATOM     18  H   UNL     1      31.478 -10.821 -21.491  0.00  0.00    -0.089 HD
ATOM     19  H   UNL     1      30.244 -11.657 -20.749  0.00  0.00    -0.089 HD
ENDBRANCH  15  16
ENDBRANCH  10  15
ENDBRANCH   2  13
BRANCH   3  20
ATOM     20  C   UNL     1      34.113 -19.427 -22.022  0.00  0.00    +0.070 C 
BRANCH  20  22
ATOM     21  O   UNL     1      33.517 -20.805 -19.582  0.00  0.00    -0.252 OA
ATOM     22  N   UNL     1      35.038 -19.758 -20.976  0.00  0.00    -0.291 N 
ATOM     23  N   UNL     1      35.776 -20.621 -18.971  0.00  0.00    -0.268 N 
ATOM     24  C   UNL     1      34.669 -20.438 -19.804  0.00  0.00    +0.304 C 
ATOM     25  H   UNL     1      35.981 -19.494 -21.085  0.00  0.00    +0.151 HD
ATOM     26  H   UNL     1      36.631 -20.262 -19.303  0.00  0.00    +0.156 HD
BRANCH  23  27
ATOM     27  C   UNL     1      35.817 -21.256 -17.708  0.00  0.00    +0.052 C 
ATOM     28  C   UNL     1      36.942 -21.113 -16.913  0.00  0.00    +0.015 C 
ATOM     29  C   UNL     1      34.732 -22.009 -17.292  0.00  0.00    +0.015 C 
ATOM     30  C   UNL     1      36.983 -21.740 -15.669  0.00  0.00    +0.008 C 
ATOM     31  C   UNL     1      34.772 -22.636 -16.047  0.00  0.00    +0.008 C 
ATOM     32  C   UNL     1      35.898 -22.501 -15.235  0.00  0.00    +0.076 C 
BRANCH  32  34
ATOM     33  O   UNL     1      35.044 -23.889 -13.517  0.00  0.00    -0.245 OA
ATOM     34  C   UNL     1      35.939 -23.153 -13.936  0.00  0.00    +0.341 C 
BRANCH  34  35
ATOM     35  O   UNL     1      37.074 -22.868 -13.217  0.00  0.00    -0.441 OA
ATOM     36  C   UNL     1      37.852 -23.990 -12.783  0.00  0.00    +0.256 C 
ENDBRANCH  34  35
ENDBRANCH  32  34
ENDBRANCH  23  27
ENDBRANCH  20  22
ENDBRANCH   3  20
TORSDOF 8
ENDMDL
