MODEL 1
REMARK VINA RESULT:     -11.9      0.000      0.000
REMARK  Name = 16102897
REMARK  8 active torsions:
REMARK  status: ('A' for Active; 'I' for Inactive)
REMARK    1  A    between atoms: C_2  and  C_19
REMARK    2  A    between atoms: C_7  and  C_9
REMARK    3  A    between atoms: C_10  and  C_16
REMARK    4  A    between atoms: C_16  and  O_17
REMARK    5  A    between atoms: C_19  and  N_22
REMARK    6  A    between atoms: C_23  and  C_25
REMARK    7  A    between atoms: C_25  and  N_29
REMARK    8  A    between atoms: C_30  and  C_35
REMARK                            x       y       z     vdW  Elec       q    Type
REMARK                         _______ _______ _______ _____ _____    ______ ____
ROOT
ATOM      1  F   UNL     1      35.916 -21.633 -19.075  0.00  0.00    -0.204 F 
ATOM      2  C   UNL     1      33.579 -21.278 -18.856  0.00  0.00    +0.023 C 
ATOM      3  C   UNL     1      34.788 -21.058 -19.515  0.00  0.00    +0.138 C 
ATOM      4  C   UNL     1      32.411 -20.676 -19.323  0.00  0.00    -0.000 C 
ATOM      5  C   UNL     1      34.830 -20.235 -20.641  0.00  0.00    +0.029 C 
ATOM      6  C   UNL     1      32.452 -19.853 -20.448  0.00  0.00    -0.000 C 
ATOM      7  C   UNL     1      33.661 -19.632 -21.107  0.00  0.00    +0.002 C 
ENDROOT
BRANCH   7   9
ATOM      8 CL   UNL     1      35.002 -15.131 -23.362  0.00  0.00    -0.082 Cl
ATOM      9  C   UNL     1      33.704 -18.779 -22.274  0.00  0.00    +0.007 C 
ATOM     10  C   UNL     1      34.277 -17.508 -22.227  0.00  0.00    +0.086 C 
ATOM     11  C   UNL     1      33.156 -19.253 -23.466  0.00  0.00    +0.000 C 
ATOM     12  C   UNL     1      34.301 -16.710 -23.371  0.00  0.00    +0.064 C 
ATOM     13  C   UNL     1      33.180 -18.455 -24.611  0.00  0.00    +0.001 C 
ATOM     14  C   UNL     1      33.754 -17.184 -24.563  0.00  0.00    +0.012 C 
BRANCH  10  16
ATOM     15  O   UNL     1      34.341 -16.139 -20.276  0.00  0.00    -0.245 OA
ATOM     16  C   UNL     1      34.853 -17.016 -20.975  0.00  0.00    +0.342 C 
BRANCH  16  17
ATOM     17  O   UNL     1      36.024 -17.655 -20.685  0.00  0.00    -0.441 OA
ATOM     18  C   UNL     1      36.851 -18.010 -21.798  0.00  0.00    +0.256 C 
ENDBRANCH  16  17
ENDBRANCH  10  16
ENDBRANCH   7   9
BRANCH   2  19
ATOM     19  C   UNL     1      33.532 -22.158 -17.652  0.00  0.00    +0.096 C 
ATOM     20  C   UNL     1      33.043 -23.581 -17.955  0.00  0.00    +0.026 C 
BRANCH  19  22
ATOM     21  O   UNL     1      34.019 -22.528 -14.809  0.00  0.00    -0.273 OA
ATOM     22  N   UNL     1      34.816 -22.236 -16.976  0.00  0.00    -0.301 N 
ATOM     23  C   UNL     1      34.935 -22.415 -15.615  0.00  0.00    +0.238 C 
ATOM     24  H   UNL     1      35.636 -22.160 -17.514  0.00  0.00    +0.150 HD
BRANCH  23  25
ATOM     25  C   UNL     1      36.347 -22.469 -15.137  0.00  0.00    +0.126 C 
ATOM     26  C   UNL     1      37.160 -21.213 -15.248  0.00  0.00    +0.029 C 
ATOM     27  C   UNL     1      37.428 -22.364 -16.172  0.00  0.00    +0.029 C 
BRANCH  25  29
ATOM     28  O   UNL     1      36.314 -25.349 -15.142  0.00  0.00    -0.266 OA
ATOM     29  N   UNL     1      36.538 -23.330 -14.010  0.00  0.00    -0.293 N 
ATOM     30  C   UNL     1      36.505 -24.713 -14.109  0.00  0.00    +0.318 C 
ATOM     31  H   UNL     1      36.698 -22.924 -13.128  0.00  0.00    +0.150 HD
BRANCH  30  35
ATOM     32  F   UNL     1      36.686 -26.738 -12.893  0.00  0.00    -0.162 F 
ATOM     33  F   UNL     1      35.788 -25.032 -11.874  0.00  0.00    -0.162 F 
ATOM     34  F   UNL     1      37.933 -25.070 -12.252  0.00  0.00    -0.162 F 
ATOM     35  C   UNL     1      36.727 -25.385 -12.787  0.00  0.00    +0.469 C 
ENDBRANCH  30  35
ENDBRANCH  25  29
ENDBRANCH  23  25
ENDBRANCH  19  22
ENDBRANCH   2  19
TORSDOF 8
ENDMDL
MODEL 2
REMARK VINA RESULT:     -11.3      4.325      9.899
REMARK  Name = 16102897
REMARK  8 active torsions:
REMARK  status: ('A' for Active; 'I' for Inactive)
REMARK    1  A    between atoms: C_2  and  C_19
REMARK    2  A    between atoms: C_7  and  C_9
REMARK    3  A    between atoms: C_10  and  C_16
REMARK    4  A    between atoms: C_16  and  O_17
REMARK    5  A    between atoms: C_19  and  N_22
REMARK    6  A    between atoms: C_23  and  C_25
REMARK    7  A    between atoms: C_25  and  N_29
REMARK    8  A    between atoms: C_30  and  C_35
REMARK                            x       y       z     vdW  Elec       q    Type
REMARK                         _______ _______ _______ _____ _____    ______ ____
ROOT
ATOM      1  F   UNL     1      32.324 -22.567 -18.099  0.00  0.00    -0.204 F 
ATOM      2  C   UNL     1      34.351 -21.423 -18.571  0.00  0.00    +0.023 C 
ATOM      3  C   UNL     1      33.591 -22.274 -17.769  0.00  0.00    +0.138 C 
ATOM      4  C   UNL     1      35.667 -21.125 -18.220  0.00  0.00    -0.000 C 
ATOM      5  C   UNL     1      34.146 -22.827 -16.614  0.00  0.00    +0.029 C 
ATOM      6  C   UNL     1      36.223 -21.677 -17.066  0.00  0.00    -0.000 C 
ATOM      7  C   UNL     1      35.463 -22.528 -16.263  0.00  0.00    +0.002 C 
ENDROOT
BRANCH   7   9
ATOM      8 CL   UNL     1      34.904 -24.408 -11.437  0.00  0.00    -0.082 Cl
ATOM      9  C   UNL     1      36.039 -23.101 -15.067  0.00  0.00    +0.007 C 
ATOM     10  C   UNL     1      35.251 -23.431 -13.964  0.00  0.00    +0.086 C 
ATOM     11  C   UNL     1      37.416 -23.323 -15.031  0.00  0.00    +0.000 C 
ATOM     12  C   UNL     1      35.839 -23.982 -12.825  0.00  0.00    +0.064 C 
ATOM     13  C   UNL     1      38.004 -23.874 -13.892  0.00  0.00    +0.001 C 
ATOM     14  C   UNL     1      37.215 -24.204 -12.790  0.00  0.00    +0.012 C 
BRANCH  10  16
ATOM     15  O   UNL     1      33.283 -22.086 -13.928  0.00  0.00    -0.245 OA
ATOM     16  C   UNL     1      33.807 -23.199 -14.007  0.00  0.00    +0.342 C 
BRANCH  16  17
ATOM     17  O   UNL     1      33.122 -24.371 -14.147  0.00  0.00    -0.441 OA
ATOM     18  C   UNL     1      31.789 -24.400 -13.626  0.00  0.00    +0.256 C 
ENDBRANCH  16  17
ENDBRANCH  10  16
ENDBRANCH   7   9
BRANCH   2  19
ATOM     19  C   UNL     1      33.759 -20.831 -19.805  0.00  0.00    +0.096 C 
ATOM     20  C   UNL     1      32.335 -20.294 -19.602  0.00  0.00    +0.026 C 
BRANCH  19  22
ATOM     21  O   UNL     1      33.342 -19.371 -22.286  0.00  0.00    -0.273 OA
ATOM     22  N   UNL     1      34.585 -19.771 -20.360  0.00  0.00    -0.301 N 
ATOM     23  C   UNL     1      34.294 -19.142 -21.551  0.00  0.00    +0.238 C 
ATOM     24  H   UNL     1      35.386 -19.491 -19.863  0.00  0.00    +0.150 HD
BRANCH  23  25
ATOM     25  C   UNL     1      35.276 -18.083 -21.927  0.00  0.00    +0.126 C 
ATOM     26  C   UNL     1      36.610 -18.535 -22.446  0.00  0.00    +0.029 C 
ATOM     27  C   UNL     1      36.501 -17.946 -21.071  0.00  0.00    +0.029 C 
BRANCH  25  29
ATOM     28  O   UNL     1      34.417 -15.747 -20.480  0.00  0.00    -0.266 OA
ATOM     29  N   UNL     1      34.670 -16.910 -22.477  0.00  0.00    -0.293 N 
ATOM     30  C   UNL     1      34.288 -15.828 -21.698  0.00  0.00    +0.318 C 
ATOM     31  H   UNL     1      34.518 -16.869 -23.449  0.00  0.00    +0.150 HD
BRANCH  30  35
ATOM     32  F   UNL     1      32.731 -14.047 -21.812  0.00  0.00    -0.162 F 
ATOM     33  F   UNL     1      33.069 -15.201 -23.631  0.00  0.00    -0.162 F 
ATOM     34  F   UNL     1      34.595 -13.819 -22.917  0.00  0.00    -0.162 F 
ATOM     35  C   UNL     1      33.673 -14.729 -22.512  0.00  0.00    +0.469 C 
ENDBRANCH  30  35
ENDBRANCH  25  29
ENDBRANCH  23  25
ENDBRANCH  19  22
ENDBRANCH   2  19
TORSDOF 8
ENDMDL
MODEL 3
REMARK VINA RESULT:     -11.2      4.159      9.725
REMARK  Name = 16102897
REMARK  8 active torsions:
REMARK  status: ('A' for Active; 'I' for Inactive)
REMARK    1  A    between atoms: C_2  and  C_19
REMARK    2  A    between atoms: C_7  and  C_9
REMARK    3  A    between atoms: C_10  and  C_16
REMARK    4  A    between atoms: C_16  and  O_17
REMARK    5  A    between atoms: C_19  and  N_22
REMARK    6  A    between atoms: C_23  and  C_25
REMARK    7  A    between atoms: C_25  and  N_29
REMARK    8  A    between atoms: C_30  and  C_35
REMARK                            x       y       z     vdW  Elec       q    Type
REMARK                         _______ _______ _______ _____ _____    ______ ____
ROOT
ATOM      1  F   UNL     1      36.429 -20.894 -18.066  0.00  0.00    -0.204 F 
ATOM      2  C   UNL     1      34.249 -21.837 -18.046  0.00  0.00    +0.023 C 
ATOM      3  C   UNL     1      35.473 -21.583 -17.426  0.00  0.00    +0.138 C 
ATOM      4  C   UNL     1      33.261 -22.553 -17.372  0.00  0.00    -0.000 C 
ATOM      5  C   UNL     1      35.709 -22.047 -16.131  0.00  0.00    +0.029 C 
ATOM      6  C   UNL     1      33.497 -23.018 -16.078  0.00  0.00    -0.000 C 
ATOM      7  C   UNL     1      34.721 -22.765 -15.458  0.00  0.00    +0.002 C 
ENDROOT
BRANCH   7   9
ATOM      8 CL   UNL     1      37.419 -25.759 -12.157  0.00  0.00    -0.082 Cl
ATOM      9  C   UNL     1      34.965 -23.246 -14.116  0.00  0.00    +0.007 C 
ATOM     10  C   UNL     1      35.973 -24.172 -13.846  0.00  0.00    +0.086 C 
ATOM     11  C   UNL     1      34.166 -22.763 -13.079  0.00  0.00    +0.000 C 
ATOM     12  C   UNL     1      36.182 -24.615 -12.540  0.00  0.00    +0.064 C 
ATOM     13  C   UNL     1      34.375 -23.207 -11.772  0.00  0.00    +0.001 C 
ATOM     14  C   UNL     1      35.384 -24.132 -11.504  0.00  0.00    +0.012 C 
BRANCH  10  16
ATOM     15  O   UNL     1      36.519 -25.640 -15.643  0.00  0.00    -0.245 OA
ATOM     16  C   UNL     1      36.810 -24.674 -14.936  0.00  0.00    +0.342 C 
BRANCH  16  17
ATOM     17  O   UNL     1      37.949 -23.932 -15.066  0.00  0.00    -0.441 OA
ATOM     18  C   UNL     1      39.188 -24.622 -14.868  0.00  0.00    +0.256 C 
ENDBRANCH  16  17
ENDBRANCH  10  16
ENDBRANCH   7   9
BRANCH   2  19
ATOM     19  C   UNL     1      33.995 -21.342 -19.430  0.00  0.00    +0.096 C 
ATOM     20  C   UNL     1      32.513 -21.050 -19.711  0.00  0.00    +0.026 C 
BRANCH  19  22
ATOM     21  O   UNL     1      33.560 -19.457 -21.602  0.00  0.00    -0.273 OA
ATOM     22  N   UNL     1      34.774 -20.156 -19.744  0.00  0.00    -0.301 N 
ATOM     23  C   UNL     1      34.479 -19.326 -20.804  0.00  0.00    +0.238 C 
ATOM     24  H   UNL     1      35.547 -19.936 -19.174  0.00  0.00    +0.150 HD
BRANCH  23  25
ATOM     25  C   UNL     1      35.411 -18.168 -20.937  0.00  0.00    +0.126 C 
ATOM     26  C   UNL     1      36.453 -18.243 -22.014  0.00  0.00    +0.029 C 
ATOM     27  C   UNL     1      36.849 -18.397 -20.575  0.00  0.00    +0.029 C 
BRANCH  25  29
ATOM     28  O   UNL     1      34.407 -16.242 -22.828  0.00  0.00    -0.266 OA
ATOM     29  N   UNL     1      34.804 -16.908 -20.636  0.00  0.00    -0.293 N 
ATOM     30  C   UNL     1      34.348 -16.041 -21.618  0.00  0.00    +0.318 C 
ATOM     31  H   UNL     1      34.707 -16.645 -19.692  0.00  0.00    +0.150 HD
BRANCH  30  35
ATOM     32  F   UNL     1      33.310 -14.974 -19.775  0.00  0.00    -0.162 F 
ATOM     33  F   UNL     1      32.707 -14.339 -21.773  0.00  0.00    -0.162 F 
ATOM     34  F   UNL     1      34.662 -13.776 -20.995  0.00  0.00    -0.162 F 
ATOM     35  C   UNL     1      33.759 -14.788 -21.043  0.00  0.00    +0.469 C 
ENDBRANCH  30  35
ENDBRANCH  25  29
ENDBRANCH  23  25
ENDBRANCH  19  22
ENDBRANCH   2  19
TORSDOF 8
ENDMDL
MODEL 4
REMARK VINA RESULT:     -11.1     10.524     15.339
REMARK  Name = 16102897
REMARK  8 active torsions:
REMARK  status: ('A' for Active; 'I' for Inactive)
REMARK    1  A    between atoms: C_2  and  C_19
REMARK    2  A    between atoms: C_7  and  C_9
REMARK    3  A    between atoms: C_10  and  C_16
REMARK    4  A    between atoms: C_16  and  O_17
REMARK    5  A    between atoms: C_19  and  N_22
REMARK    6  A    between atoms: C_23  and  C_25
REMARK    7  A    between atoms: C_25  and  N_29
REMARK    8  A    between atoms: C_30  and  C_35
REMARK                            x       y       z     vdW  Elec       q    Type
REMARK                         _______ _______ _______ _____ _____    ______ ____
ROOT
ATOM      1  F   UNL     1      30.028 -10.779 -21.237  0.00  0.00    -0.204 F 
ATOM      2  C   UNL     1      31.827  -9.856 -22.484  0.00  0.00    +0.023 C 
ATOM      3  C   UNL     1      31.135 -10.955 -21.974  0.00  0.00    +0.138 C 
ATOM      4  C   UNL     1      32.975 -10.050 -23.250  0.00  0.00    -0.000 C 
ATOM      5  C   UNL     1      31.592 -12.248 -22.232  0.00  0.00    +0.029 C 
ATOM      6  C   UNL     1      33.433 -11.342 -23.506  0.00  0.00    -0.000 C 
ATOM      7  C   UNL     1      32.741 -12.441 -22.997  0.00  0.00    +0.002 C 
ENDROOT
BRANCH   7   9
ATOM      8 CL   UNL     1      34.899 -16.882 -21.332  0.00  0.00    -0.082 Cl
ATOM      9  C   UNL     1      33.216 -13.781 -23.264  0.00  0.00    +0.007 C 
ATOM     10  C   UNL     1      33.765 -14.574 -22.256  0.00  0.00    +0.086 C 
ATOM     11  C   UNL     1      33.114 -14.278 -24.564  0.00  0.00    +0.000 C 
ATOM     12  C   UNL     1      34.213 -15.863 -22.548  0.00  0.00    +0.064 C 
ATOM     13  C   UNL     1      33.562 -15.567 -24.855  0.00  0.00    +0.001 C 
ATOM     14  C   UNL     1      34.111 -16.359 -23.847  0.00  0.00    +0.012 C 
BRANCH  10  16
ATOM     15  O   UNL     1      34.542 -13.067 -20.580  0.00  0.00    -0.245 OA
ATOM     16  C   UNL     1      33.868 -14.050 -20.894  0.00  0.00    +0.342 C 
BRANCH  16  17
ATOM     17  O   UNL     1      33.121 -14.789 -20.023  0.00  0.00    -0.441 OA
ATOM     18  C   UNL     1      31.904 -14.194 -19.558  0.00  0.00    +0.256 C 
ENDBRANCH  16  17
ENDBRANCH  10  16
ENDBRANCH   7   9
BRANCH   2  19
ATOM     19  C   UNL     1      31.340  -8.473 -22.210  0.00  0.00    +0.096 C 
ATOM     20  C   UNL     1      31.507  -8.046 -20.744  0.00  0.00    +0.026 C 
BRANCH  19  22
ATOM     21  O   UNL     1      30.155  -7.012 -24.428  0.00  0.00    -0.273 OA
ATOM     22  N   UNL     1      31.979  -7.484 -23.062  0.00  0.00    -0.301 N 
ATOM     23  C   UNL     1      31.321  -6.847 -24.091  0.00  0.00    +0.238 C 
ATOM     24  H   UNL     1      32.923  -7.260 -22.895  0.00  0.00    +0.150 HD
BRANCH  23  25
ATOM     25  C   UNL     1      32.170  -5.869 -24.833  0.00  0.00    +0.126 C 
ATOM     26  C   UNL     1      32.660  -6.274 -26.192  0.00  0.00    +0.029 C 
ATOM     27  C   UNL     1      33.613  -6.226 -25.035  0.00  0.00    +0.029 C 
BRANCH  25  29
ATOM     28  O   UNL     1      31.797  -4.606 -22.272  0.00  0.00    -0.266 OA
ATOM     29  N   UNL     1      31.812  -4.504 -24.595  0.00  0.00    -0.293 N 
ATOM     30  C   UNL     1      31.654  -3.982 -23.320  0.00  0.00    +0.318 C 
ATOM     31  H   UNL     1      31.672  -3.912 -25.369  0.00  0.00    +0.150 HD
BRANCH  30  35
ATOM     32  F   UNL     1      30.048  -2.338 -23.893  0.00  0.00    -0.162 F 
ATOM     33  F   UNL     1      32.151  -1.786 -24.057  0.00  0.00    -0.162 F 
ATOM     34  F   UNL     1      31.231  -1.998 -22.094  0.00  0.00    -0.162 F 
ATOM     35  C   UNL     1      31.273  -2.532 -23.341  0.00  0.00    +0.469 C 
ENDBRANCH  30  35
ENDBRANCH  25  29
ENDBRANCH  23  25
ENDBRANCH  19  22
ENDBRANCH   2  19
TORSDOF 8
ENDMDL
MODEL 5
REMARK VINA RESULT:     -10.9     10.375     15.185
REMARK  Name = 16102897
REMARK  8 active torsions:
REMARK  status: ('A' for Active; 'I' for Inactive)
REMARK    1  A    between atoms: C_2  and  C_19
REMARK    2  A    between atoms: C_7  and  C_9
REMARK    3  A    between atoms: C_10  and  C_16
REMARK    4  A    between atoms: C_16  and  O_17
REMARK    5  A    between atoms: C_19  and  N_22
REMARK    6  A    between atoms: C_23  and  C_25
REMARK    7  A    between atoms: C_25  and  N_29
REMARK    8  A    between atoms: C_30  and  C_35
REMARK                            x       y       z     vdW  Elec       q    Type
REMARK                         _______ _______ _______ _____ _____    ______ ____
ROOT
ATOM      1  F   UNL     1      30.037 -10.096 -20.660  0.00  0.00    -0.204 F 
ATOM      2  C   UNL     1      31.682  -8.965 -21.945  0.00  0.00    +0.023 C 
ATOM      3  C   UNL     1      31.036 -10.137 -21.554  0.00  0.00    +0.138 C 
ATOM      4  C   UNL     1      32.719  -9.017 -22.876  0.00  0.00    -0.000 C 
ATOM      5  C   UNL     1      31.427 -11.363 -22.093  0.00  0.00    +0.029 C 
ATOM      6  C   UNL     1      33.111 -10.243 -23.415  0.00  0.00    -0.000 C 
ATOM      7  C   UNL     1      32.465 -11.415 -23.023  0.00  0.00    +0.002 C 
ENDROOT
BRANCH   7   9
ATOM      8 CL   UNL     1      34.591 -16.135 -22.433  0.00  0.00    -0.082 Cl
ATOM      9  C   UNL     1      32.871 -12.686 -23.583  0.00  0.00    +0.007 C 
ATOM     10  C   UNL     1      33.469 -13.670 -22.796  0.00  0.00    +0.086 C 
ATOM     11  C   UNL     1      32.652 -12.917 -24.941  0.00  0.00    +0.000 C 
ATOM     12  C   UNL     1      33.849 -14.886 -23.367  0.00  0.00    +0.064 C 
ATOM     13  C   UNL     1      33.032 -14.132 -25.512  0.00  0.00    +0.001 C 
ATOM     14  C   UNL     1      33.630 -15.116 -24.725  0.00  0.00    +0.012 C 
BRANCH  10  16
ATOM     15  O   UNL     1      34.418 -12.531 -20.929  0.00  0.00    -0.245 OA
ATOM     16  C   UNL     1      33.695 -13.426 -21.371  0.00  0.00    +0.342 C 
BRANCH  16  17
ATOM     17  O   UNL     1      32.999 -14.313 -20.601  0.00  0.00    -0.441 OA
ATOM     18  C   UNL     1      31.879 -13.790 -19.878  0.00  0.00    +0.256 C 
ENDBRANCH  16  17
ENDBRANCH  10  16
ENDBRANCH   7   9
BRANCH   2  19
ATOM     19  C   UNL     1      31.265  -7.653 -21.370  0.00  0.00    +0.096 C 
ATOM     20  C   UNL     1      31.806  -7.408 -19.954  0.00  0.00    +0.026 C 
BRANCH  19  22
ATOM     21  O   UNL     1      29.768  -5.206 -21.850  0.00  0.00    -0.273 OA
ATOM     22  N   UNL     1      31.643  -6.534 -22.217  0.00  0.00    -0.301 N 
ATOM     23  C   UNL     1      30.855  -5.415 -22.374  0.00  0.00    +0.238 C 
ATOM     24  H   UNL     1      32.501  -6.577 -22.698  0.00  0.00    +0.150 HD
BRANCH  23  25
ATOM     25  C   UNL     1      31.441  -4.390 -23.287  0.00  0.00    +0.126 C 
ATOM     26  C   UNL     1      31.244  -2.948 -22.920  0.00  0.00    +0.029 C 
ATOM     27  C   UNL     1      30.484  -3.540 -24.071  0.00  0.00    +0.029 C 
BRANCH  25  29
ATOM     28  O   UNL     1      31.754  -6.156 -25.540  0.00  0.00    -0.266 OA
ATOM     29  N   UNL     1      32.672  -4.798 -23.891  0.00  0.00    -0.293 N 
ATOM     30  C   UNL     1      32.725  -5.656 -24.979  0.00  0.00    +0.318 C 
ATOM     31  H   UNL     1      33.516  -4.456 -23.518  0.00  0.00    +0.150 HD
BRANCH  30  35
ATOM     32  F   UNL     1      34.224  -6.059 -26.769  0.00  0.00    -0.162 F 
ATOM     33  F   UNL     1      34.617  -7.078 -24.881  0.00  0.00    -0.162 F 
ATOM     34  F   UNL     1      34.982  -4.938 -25.060  0.00  0.00    -0.162 F 
ATOM     35  C   UNL     1      34.132  -5.932 -25.420  0.00  0.00    +0.469 C 
ENDBRANCH  30  35
ENDBRANCH  25  29
ENDBRANCH  23  25
ENDBRANCH  19  22
ENDBRANCH   2  19
TORSDOF 8
ENDMDL
MODEL 6
REMARK VINA RESULT:     -10.8      3.568      4.777
REMARK  Name = 16102897
REMARK  8 active torsions:
REMARK  status: ('A' for Active; 'I' for Inactive)
REMARK    1  A    between atoms: C_2  and  C_19
REMARK    2  A    between atoms: C_7  and  C_9
REMARK    3  A    between atoms: C_10  and  C_16
REMARK    4  A    between atoms: C_16  and  O_17
REMARK    5  A    between atoms: C_19  and  N_22
REMARK    6  A    between atoms: C_23  and  C_25
REMARK    7  A    between atoms: C_25  and  N_29
REMARK    8  A    between atoms: C_30  and  C_35
REMARK                            x       y       z     vdW  Elec       q    Type
REMARK                         _______ _______ _______ _____ _____    ______ ____
ROOT
ATOM      1  F   UNL     1      31.630 -21.101 -18.410  0.00  0.00    -0.204 F 
ATOM      2  C   UNL     1      33.957 -21.451 -18.729  0.00  0.00    +0.023 C 
ATOM      3  C   UNL     1      32.748 -20.871 -19.114  0.00  0.00    +0.138 C 
ATOM      4  C   UNL     1      35.114 -21.206 -19.466  0.00  0.00    -0.000 C 
ATOM      5  C   UNL     1      32.697 -20.046 -20.237  0.00  0.00    +0.029 C 
ATOM      6  C   UNL     1      35.063 -20.381 -20.591  0.00  0.00    -0.000 C 
ATOM      7  C   UNL     1      33.855 -19.801 -20.975  0.00  0.00    +0.002 C 
ENDROOT
BRANCH   7   9
ATOM      8 CL   UNL     1      34.941 -15.266 -23.298  0.00  0.00    -0.082 Cl
ATOM      9  C   UNL     1      33.802 -18.946 -22.140  0.00  0.00    +0.007 C 
ATOM     10  C   UNL     1      34.347 -17.662 -22.126  0.00  0.00    +0.086 C 
ATOM     11  C   UNL     1      33.190 -19.430 -23.297  0.00  0.00    +0.000 C 
ATOM     12  C   UNL     1      34.279 -16.862 -23.268  0.00  0.00    +0.064 C 
ATOM     13  C   UNL     1      33.122 -18.630 -24.438  0.00  0.00    +0.001 C 
ATOM     14  C   UNL     1      33.667 -17.346 -24.423  0.00  0.00    +0.012 C 
BRANCH  10  16
ATOM     15  O   UNL     1      34.531 -16.256 -20.209  0.00  0.00    -0.245 OA
ATOM     16  C   UNL     1      34.990 -17.158 -20.913  0.00  0.00    +0.342 C 
BRANCH  16  17
ATOM     17  O   UNL     1      36.159 -17.817 -20.663  0.00  0.00    -0.441 OA
ATOM     18  C   UNL     1      37.027 -18.028 -21.782  0.00  0.00    +0.256 C 
ENDBRANCH  16  17
ENDBRANCH  10  16
ENDBRANCH   7   9
BRANCH   2  19
ATOM     19  C   UNL     1      34.015 -22.334 -17.528  0.00  0.00    +0.096 C 
ATOM     20  C   UNL     1      35.310 -22.178 -16.717  0.00  0.00    +0.026 C 
BRANCH  19  22
ATOM     21  O   UNL     1      33.167 -24.031 -15.323  0.00  0.00    -0.273 OA
ATOM     22  N   UNL     1      32.880 -22.136 -16.642  0.00  0.00    -0.301 N 
ATOM     23  C   UNL     1      32.566 -23.007 -15.622  0.00  0.00    +0.238 C 
ATOM     24  H   UNL     1      32.311 -21.344 -16.777  0.00  0.00    +0.150 HD
BRANCH  23  25
ATOM     25  C   UNL     1      31.361 -22.605 -14.837  0.00  0.00    +0.126 C 
ATOM     26  C   UNL     1      31.552 -21.577 -13.761  0.00  0.00    +0.029 C 
ATOM     27  C   UNL     1      31.314 -23.012 -13.394  0.00  0.00    +0.029 C 
BRANCH  25  29
ATOM     28  O   UNL     1      29.162 -24.449 -14.600  0.00  0.00    -0.266 OA
ATOM     29  N   UNL     1      30.154 -22.601 -15.605  0.00  0.00    -0.293 N 
ATOM     30  C   UNL     1      29.145 -23.534 -15.419  0.00  0.00    +0.318 C 
ATOM     31  H   UNL     1      30.035 -21.907 -16.293  0.00  0.00    +0.150 HD
BRANCH  30  35
ATOM     32  F   UNL     1      28.314 -22.488 -17.376  0.00  0.00    -0.162 F 
ATOM     33  F   UNL     1      26.925 -22.761 -15.717  0.00  0.00    -0.162 F 
ATOM     34  F   UNL     1      27.556 -24.476 -16.904  0.00  0.00    -0.162 F 
ATOM     35  C   UNL     1      27.989 -23.316 -16.350  0.00  0.00    +0.469 C 
ENDBRANCH  30  35
ENDBRANCH  25  29
ENDBRANCH  23  25
ENDBRANCH  19  22
ENDBRANCH   2  19
TORSDOF 8
ENDMDL
MODEL 7
REMARK VINA RESULT:     -10.5     10.216     15.354
REMARK  Name = 16102897
REMARK  8 active torsions:
REMARK  status: ('A' for Active; 'I' for Inactive)
REMARK    1  A    between atoms: C_2  and  C_19
REMARK    2  A    between atoms: C_7  and  C_9
REMARK    3  A    between atoms: C_10  and  C_16
REMARK    4  A    between atoms: C_16  and  O_17
REMARK    5  A    between atoms: C_19  and  N_22
REMARK    6  A    between atoms: C_23  and  C_25
REMARK    7  A    between atoms: C_25  and  N_29
REMARK    8  A    between atoms: C_30  and  C_35
REMARK                            x       y       z     vdW  Elec       q    Type
REMARK                         _______ _______ _______ _____ _____    ______ ____
ROOT
ATOM      1  F   UNL     1      30.046 -10.794 -21.261  0.00  0.00    -0.204 F 
ATOM      2  C   UNL     1      31.850  -9.874 -22.503  0.00  0.00    +0.023 C 
ATOM      3  C   UNL     1      31.159 -10.972 -21.988  0.00  0.00    +0.138 C 
ATOM      4  C   UNL     1      33.005 -10.070 -23.259  0.00  0.00    -0.000 C 
ATOM      5  C   UNL     1      31.624 -12.265 -22.229  0.00  0.00    +0.029 C 
ATOM      6  C   UNL     1      33.471 -11.363 -23.499  0.00  0.00    -0.000 C 
ATOM      7  C   UNL     1      32.781 -12.460 -22.984  0.00  0.00    +0.002 C 
ENDROOT
BRANCH   7   9
ATOM      8 CL   UNL     1      34.904 -16.890 -21.248  0.00  0.00    -0.082 Cl
ATOM      9  C   UNL     1      33.264 -13.800 -23.234  0.00  0.00    +0.007 C 
ATOM     10  C   UNL     1      33.789 -14.587 -22.209  0.00  0.00    +0.086 C 
ATOM     11  C   UNL     1      33.194 -14.303 -24.533  0.00  0.00    +0.000 C 
ATOM     12  C   UNL     1      34.247 -15.877 -22.484  0.00  0.00    +0.064 C 
ATOM     13  C   UNL     1      33.651 -15.592 -24.808  0.00  0.00    +0.001 C 
ATOM     14  C   UNL     1      34.177 -16.379 -23.783  0.00  0.00    +0.012 C 
BRANCH  10  16
ATOM     15  O   UNL     1      34.554 -13.097 -20.513  0.00  0.00    -0.245 OA
ATOM     16  C   UNL     1      33.858 -14.058 -20.847  0.00  0.00    +0.342 C 
BRANCH  16  17
ATOM     17  O   UNL     1      33.052 -14.764 -20.001  0.00  0.00    -0.441 OA
ATOM     18  C   UNL     1      31.813 -14.148 -19.635  0.00  0.00    +0.256 C 
ENDBRANCH  16  17
ENDBRANCH  10  16
ENDBRANCH   7   9
BRANCH   2  19
ATOM     19  C   UNL     1      31.354  -8.491 -22.248  0.00  0.00    +0.096 C 
ATOM     20  C   UNL     1      31.214  -8.159 -20.755  0.00  0.00    +0.026 C 
BRANCH  19  22
ATOM     21  O   UNL     1      30.848  -7.067 -24.732  0.00  0.00    -0.273 OA
ATOM     22  N   UNL     1      32.188  -7.480 -22.876  0.00  0.00    -0.301 N 
ATOM     23  C   UNL     1      31.852  -6.864 -24.062  0.00  0.00    +0.238 C 
ATOM     24  H   UNL     1      33.030  -7.225 -22.434  0.00  0.00    +0.150 HD
BRANCH  23  25
ATOM     25  C   UNL     1      32.853  -5.858 -24.521  0.00  0.00    +0.126 C 
ATOM     26  C   UNL     1      33.941  -5.481 -23.559  0.00  0.00    +0.029 C 
ATOM     27  C   UNL     1      32.833  -4.514 -23.854  0.00  0.00    +0.029 C 
BRANCH  25  29
ATOM     28  O   UNL     1      32.298  -3.866 -26.525  0.00  0.00    -0.266 OA
ATOM     29  N   UNL     1      33.151  -5.942 -25.918  0.00  0.00    -0.293 N 
ATOM     30  C   UNL     1      32.845  -4.928 -26.812  0.00  0.00    +0.318 C 
ATOM     31  H   UNL     1      33.591  -6.755 -26.258  0.00  0.00    +0.150 HD
BRANCH  30  35
ATOM     32  F   UNL     1      32.640  -6.387 -28.667  0.00  0.00    -0.162 F 
ATOM     33  F   UNL     1      34.590  -5.473 -28.319  0.00  0.00    -0.162 F 
ATOM     34  F   UNL     1      32.944  -4.270 -29.087  0.00  0.00    -0.162 F 
ATOM     35  C   UNL     1      33.254  -5.262 -28.215  0.00  0.00    +0.469 C 
ENDBRANCH  30  35
ENDBRANCH  25  29
ENDBRANCH  23  25
ENDBRANCH  19  22
ENDBRANCH   2  19
TORSDOF 8
ENDMDL
MODEL 8
REMARK VINA RESULT:     -10.3      7.959     11.458
REMARK  Name = 16102897
REMARK  8 active torsions:
REMARK  status: ('A' for Active; 'I' for Inactive)
REMARK    1  A    between atoms: C_2  and  C_19
REMARK    2  A    between atoms: C_7  and  C_9
REMARK    3  A    between atoms: C_10  and  C_16
REMARK    4  A    between atoms: C_16  and  O_17
REMARK    5  A    between atoms: C_19  and  N_22
REMARK    6  A    between atoms: C_23  and  C_25
REMARK    7  A    between atoms: C_25  and  N_29
REMARK    8  A    between atoms: C_30  and  C_35
REMARK                            x       y       z     vdW  Elec       q    Type
REMARK                         _______ _______ _______ _____ _____    ______ ____
ROOT
ATOM      1  F   UNL     1      33.966 -11.468 -23.468  0.00  0.00    -0.204 F 
ATOM      2  C   UNL     1      32.286 -11.284 -21.799  0.00  0.00    +0.023 C 
ATOM      3  C   UNL     1      32.984 -10.761 -22.888  0.00  0.00    +0.138 C 
ATOM      4  C   UNL     1      31.267 -10.543 -21.203  0.00  0.00    -0.000 C 
ATOM      5  C   UNL     1      32.663  -9.496 -23.381  0.00  0.00    +0.029 C 
ATOM      6  C   UNL     1      30.946  -9.277 -21.695  0.00  0.00    -0.000 C 
ATOM      7  C   UNL     1      31.644  -8.755 -22.784  0.00  0.00    +0.002 C 
ENDROOT
BRANCH   7   9
ATOM      8 CL   UNL     1      31.693  -3.569 -22.283  0.00  0.00    -0.082 Cl
ATOM      9  C   UNL     1      31.311  -7.443 -23.294  0.00  0.00    +0.007 C 
ATOM     10  C   UNL     1      31.640  -6.283 -22.593  0.00  0.00    +0.086 C 
ATOM     11  C   UNL     1      30.645  -7.353 -24.517  0.00  0.00    +0.000 C 
ATOM     12  C   UNL     1      31.304  -5.033 -23.114  0.00  0.00    +0.064 C 
ATOM     13  C   UNL     1      30.309  -6.103 -25.038  0.00  0.00    +0.001 C 
ATOM     14  C   UNL     1      30.639  -4.943 -24.336  0.00  0.00    +0.012 C 
BRANCH  10  16
ATOM     15  O   UNL     1      33.552  -6.577 -21.199  0.00  0.00    -0.245 OA
ATOM     16  C   UNL     1      32.340  -6.381 -21.312  0.00  0.00    +0.342 C 
BRANCH  16  17
ATOM     17  O   UNL     1      31.479  -6.225 -20.265  0.00  0.00    -0.441 OA
ATOM     18  C   UNL     1      31.550  -7.207 -19.226  0.00  0.00    +0.256 C 
ENDBRANCH  16  17
ENDBRANCH  10  16
ENDBRANCH   7   9
BRANCH   2  19
ATOM     19  C   UNL     1      32.628 -12.637 -21.270  0.00  0.00    +0.096 C 
ATOM     20  C   UNL     1      31.501 -13.270 -20.442  0.00  0.00    +0.026 C 
BRANCH  19  22
ATOM     21  O   UNL     1      34.348 -14.971 -21.044  0.00  0.00    -0.273 OA
ATOM     22  N   UNL     1      33.012 -13.561 -22.325  0.00  0.00    -0.301 N 
ATOM     23  C   UNL     1      33.837 -14.642 -22.107  0.00  0.00    +0.238 C 
ATOM     24  H   UNL     1      32.666 -13.407 -23.233  0.00  0.00    +0.150 HD
BRANCH  23  25
ATOM     25  C   UNL     1      34.095 -15.457 -23.331  0.00  0.00    +0.126 C 
ATOM     26  C   UNL     1      34.604 -14.734 -24.544  0.00  0.00    +0.029 C 
ATOM     27  C   UNL     1      33.191 -15.236 -24.507  0.00  0.00    +0.029 C 
BRANCH  25  29
ATOM     28  O   UNL     1      32.879 -17.936 -24.145  0.00  0.00    -0.266 OA
ATOM     29  N   UNL     1      34.571 -16.776 -23.051  0.00  0.00    -0.293 N 
ATOM     30  C   UNL     1      33.916 -17.918 -23.487  0.00  0.00    +0.318 C 
ATOM     31  H   UNL     1      35.398 -16.878 -22.526  0.00  0.00    +0.150 HD
BRANCH  30  35
ATOM     32  F   UNL     1      34.016 -19.741 -21.978  0.00  0.00    -0.162 F 
ATOM     33  F   UNL     1      35.907 -18.948 -22.721  0.00  0.00    -0.162 F 
ATOM     34  F   UNL     1      34.621 -20.112 -24.039  0.00  0.00    -0.162 F 
ATOM     35  C   UNL     1      34.613 -19.174 -23.058  0.00  0.00    +0.469 C 
ENDBRANCH  30  35
ENDBRANCH  25  29
ENDBRANCH  23  25
ENDBRANCH  19  22
ENDBRANCH   2  19
TORSDOF 8
ENDMDL
MODEL 9
REMARK VINA RESULT:     -10.2      7.482     10.679
REMARK  Name = 16102897
REMARK  8 active torsions:
REMARK  status: ('A' for Active; 'I' for Inactive)
REMARK    1  A    between atoms: C_2  and  C_19
REMARK    2  A    between atoms: C_7  and  C_9
REMARK    3  A    between atoms: C_10  and  C_16
REMARK    4  A    between atoms: C_16  and  O_17
REMARK    5  A    between atoms: C_19  and  N_22
REMARK    6  A    between atoms: C_23  and  C_25
REMARK    7  A    between atoms: C_25  and  N_29
REMARK    8  A    between atoms: C_30  and  C_35
REMARK                            x       y       z     vdW  Elec       q    Type
REMARK                         _______ _______ _______ _____ _____    ______ ____
ROOT
ATOM      1  F   UNL     1      31.428 -10.743 -19.614  0.00  0.00    -0.204 F 
ATOM      2  C   UNL     1      32.410 -11.604 -21.597  0.00  0.00    +0.023 C 
ATOM      3  C   UNL     1      31.783 -10.575 -20.896  0.00  0.00    +0.138 C 
ATOM      4  C   UNL     1      32.776 -11.419 -22.930  0.00  0.00    -0.000 C 
ATOM      5  C   UNL     1      31.520  -9.359 -21.528  0.00  0.00    +0.029 C 
ATOM      6  C   UNL     1      32.512 -10.204 -23.562  0.00  0.00    -0.000 C 
ATOM      7  C   UNL     1      31.885  -9.174 -22.861  0.00  0.00    +0.002 C 
ENDROOT
BRANCH   7   9
ATOM      8 CL   UNL     1      33.453  -4.441 -24.374  0.00  0.00    -0.082 Cl
ATOM      9  C   UNL     1      31.613  -7.914 -23.517  0.00  0.00    +0.007 C 
ATOM     10  C   UNL     1      32.581  -6.913 -23.603  0.00  0.00    +0.086 C 
ATOM     11  C   UNL     1      30.349  -7.711 -24.073  0.00  0.00    +0.000 C 
ATOM     12  C   UNL     1      32.286  -5.709 -24.243  0.00  0.00    +0.064 C 
ATOM     13  C   UNL     1      30.054  -6.506 -24.713  0.00  0.00    +0.001 C 
ATOM     14  C   UNL     1      31.023  -5.506 -24.798  0.00  0.00    +0.012 C 
BRANCH  10  16
ATOM     15  O   UNL     1      34.738  -7.919 -23.472  0.00  0.00    -0.245 OA
ATOM     16  C   UNL     1      33.905  -7.131 -23.021  0.00  0.00    +0.342 C 
BRANCH  16  17
ATOM     17  O   UNL     1      34.096  -6.347 -21.919  0.00  0.00    -0.441 OA
ATOM     18  C   UNL     1      33.085  -6.407 -20.908  0.00  0.00    +0.256 C 
ENDBRANCH  16  17
ENDBRANCH  10  16
ENDBRANCH   7   9
BRANCH   2  19
ATOM     19  C   UNL     1      32.692 -12.905 -20.923  0.00  0.00    +0.096 C 
ATOM     20  C   UNL     1      31.454 -13.533 -20.267  0.00  0.00    +0.026 C 
BRANCH  19  22
ATOM     21  O   UNL     1      34.215 -15.279 -20.217  0.00  0.00    -0.273 OA
ATOM     22  N   UNL     1      33.289 -13.876 -21.825  0.00  0.00    -0.301 N 
ATOM     23  C   UNL     1      33.995 -14.973 -21.381  0.00  0.00    +0.238 C 
ATOM     24  H   UNL     1      33.184 -13.744 -22.795  0.00  0.00    +0.150 HD
BRANCH  23  25
ATOM     25  C   UNL     1      34.516 -15.837 -22.481  0.00  0.00    +0.126 C 
ATOM     26  C   UNL     1      34.650 -15.214 -23.840  0.00  0.00    +0.029 C 
ATOM     27  C   UNL     1      33.559 -16.209 -23.575  0.00  0.00    +0.029 C 
BRANCH  25  29
ATOM     28  O   UNL     1      34.006 -18.345 -21.162  0.00  0.00    -0.266 OA
ATOM     29  N   UNL     1      35.491 -16.790 -22.048  0.00  0.00    -0.293 N 
ATOM     30  C   UNL     1      35.150 -17.977 -21.418  0.00  0.00    +0.318 C 
ATOM     31  H   UNL     1      36.443 -16.594 -22.203  0.00  0.00    +0.150 HD
BRANCH  30  35
ATOM     32  F   UNL     1      37.345 -18.670 -21.977  0.00  0.00    -0.162 F 
ATOM     33  F   UNL     1      36.059 -20.120 -20.977  0.00  0.00    -0.162 F 
ATOM     34  F   UNL     1      36.876 -18.438 -19.861  0.00  0.00    -0.162 F 
ATOM     35  C   UNL     1      36.352 -18.798 -21.059  0.00  0.00    +0.469 C 
ENDBRANCH  30  35
ENDBRANCH  25  29
ENDBRANCH  23  25
ENDBRANCH  19  22
ENDBRANCH   2  19
TORSDOF 8
ENDMDL
