MODEL 1
REMARK VINA RESULT:     -11.4      0.000      0.000
REMARK  Name = 5330812
REMARK  6 active torsions:
REMARK  status: ('A' for Active; 'I' for Inactive)
REMARK    1  A    between atoms: N_1  and  C_11
REMARK    2  A    between atoms: N_2  and  C_24
REMARK    3  A    between atoms: C_12  and  S_17
REMARK    4  A    between atoms: S_17  and  N_20
REMARK    5  A    between atoms: C_24  and  N_25
REMARK    6  A    between atoms: N_25  and  C_29
REMARK                            x       y       z     vdW  Elec       q    Type
REMARK                         _______ _______ _______ _____ _____    ______ ____
ROOT
ATOM      1  N   UNL     1      32.152 -22.226 -17.707  0.00  0.00    -0.246 N 
ATOM      2  N   UNL     1      33.463 -23.613 -14.898  0.00  0.00    -0.120 N 
ATOM      3  N   UNL     1      33.692 -22.855 -15.981  0.00  0.00    -0.089 NA
ATOM      4  N   UNL     1      31.520 -23.569 -15.896  0.00  0.00    -0.304 NA
ATOM      5  N   UNL     1      31.734 -24.812 -13.838  0.00  0.00    -0.319 N 
ATOM      6  C   UNL     1      32.498 -22.882 -16.509  0.00  0.00    +0.167 C 
ATOM      7  C   UNL     1      32.170 -24.033 -14.854  0.00  0.00    +0.272 C 
ATOM      8  H   UNL     1      31.210 -22.346 -17.966  0.00  0.00    +0.165 HD
ATOM      9  H   UNL     1      32.354 -25.078 -13.122  0.00  0.00    +0.146 HD
ATOM     10  H   UNL     1      30.797 -25.111 -13.815  0.00  0.00    +0.146 HD
ENDROOT
BRANCH   1  11
ATOM     11  C   UNL     1      32.891 -21.431 -18.606  0.00  0.00    +0.058 C 
ATOM     12  C   UNL     1      34.353 -19.856 -20.387  0.00  0.00    +0.122 C 
ATOM     13  C   UNL     1      32.229 -20.558 -19.471  0.00  0.00    +0.017 C 
ATOM     14  C   UNL     1      34.283 -21.516 -18.633  0.00  0.00    +0.017 C 
ATOM     15  C   UNL     1      32.960 -19.770 -20.360  0.00  0.00    +0.021 C 
ATOM     16  C   UNL     1      35.013 -20.730 -19.523  0.00  0.00    +0.021 C 
BRANCH  12  17
ATOM     17  S   UNL     1      35.267 -18.871 -21.500  0.00  0.00    +0.057 S 
ATOM     18  O   UNL     1      36.684 -19.078 -21.240  0.00  0.00    -0.153 OA
ATOM     19  O   UNL     1      34.739 -19.079 -22.843  0.00  0.00    -0.153 OA
BRANCH  17  20
ATOM     20  N   UNL     1      34.834 -17.302 -20.979  0.00  0.00    -0.203 NA
ATOM     21  H   UNL     1      35.358 -16.610 -21.514  0.00  0.00    +0.144 HD
ATOM     22  H   UNL     1      35.052 -17.202 -19.988  0.00  0.00    +0.144 HD
ENDBRANCH  17  20
ENDBRANCH  12  17
ENDBRANCH   1  11
BRANCH   2  24
ATOM     23  S   UNL     1      34.536 -23.329 -12.419  0.00  0.00    -0.016 S 
ATOM     24  C   UNL     1      34.498 -23.855 -14.021  0.00  0.00    +0.166 C 
BRANCH  24  25
ATOM     25  N   UNL     1      35.434 -24.680 -14.648  0.00  0.00    -0.291 N 
ATOM     26  H   UNL     1      35.045 -25.354 -15.252  0.00  0.00    +0.154 HD
BRANCH  25  29
ATOM     27  F   UNL     1      36.753 -26.833 -13.500  0.00  0.00    -0.203 F 
ATOM     28  F   UNL     1      36.975 -22.592 -15.627  0.00  0.00    -0.203 F 
ATOM     29  C   UNL     1      36.852 -24.712 -14.563  0.00  0.00    +0.105 C 
ATOM     30  C   UNL     1      37.466 -25.806 -13.983  0.00  0.00    +0.156 C 
ATOM     31  C   UNL     1      37.579 -23.648 -15.064  0.00  0.00    +0.156 C 
ATOM     32  C   UNL     1      38.858 -25.837 -13.900  0.00  0.00    +0.031 C 
ATOM     33  C   UNL     1      38.971 -23.680 -14.982  0.00  0.00    +0.031 C 
ATOM     34  C   UNL     1      39.610 -24.774 -14.400  0.00  0.00    +0.005 C 
ENDBRANCH  25  29
ENDBRANCH  24  25
ENDBRANCH   2  24
TORSDOF 6
ENDMDL
MODEL 2
REMARK VINA RESULT:     -11.3      0.026      1.564
REMARK  Name = 5330812
REMARK  6 active torsions:
REMARK  status: ('A' for Active; 'I' for Inactive)
REMARK    1  A    between atoms: N_1  and  C_11
REMARK    2  A    between atoms: N_2  and  C_24
REMARK    3  A    between atoms: C_12  and  S_17
REMARK    4  A    between atoms: S_17  and  N_20
REMARK    5  A    between atoms: C_24  and  N_25
REMARK    6  A    between atoms: N_25  and  C_29
REMARK                            x       y       z     vdW  Elec       q    Type
REMARK                         _______ _______ _______ _____ _____    ______ ____
ROOT
ATOM      1  N   UNL     1      32.171 -22.220 -17.715  0.00  0.00    -0.246 N 
ATOM      2  N   UNL     1      33.488 -23.604 -14.907  0.00  0.00    -0.120 N 
ATOM      3  N   UNL     1      33.714 -22.845 -15.991  0.00  0.00    -0.089 NA
ATOM      4  N   UNL     1      31.544 -23.565 -15.904  0.00  0.00    -0.304 NA
ATOM      5  N   UNL     1      31.763 -24.807 -13.846  0.00  0.00    -0.319 N 
ATOM      6  C   UNL     1      32.519 -22.876 -16.518  0.00  0.00    +0.167 C 
ATOM      7  C   UNL     1      32.196 -24.027 -14.862  0.00  0.00    +0.272 C 
ATOM      8  H   UNL     1      31.229 -22.343 -17.973  0.00  0.00    +0.165 HD
ATOM      9  H   UNL     1      32.384 -25.072 -13.130  0.00  0.00    +0.146 HD
ATOM     10  H   UNL     1      30.827 -25.109 -13.822  0.00  0.00    +0.146 HD
ENDROOT
BRANCH   1  11
ATOM     11  C   UNL     1      32.907 -21.423 -18.615  0.00  0.00    +0.058 C 
ATOM     12  C   UNL     1      34.363 -19.845 -20.398  0.00  0.00    +0.122 C 
ATOM     13  C   UNL     1      32.242 -20.556 -19.483  0.00  0.00    +0.017 C 
ATOM     14  C   UNL     1      34.299 -21.501 -18.639  0.00  0.00    +0.017 C 
ATOM     15  C   UNL     1      32.970 -19.767 -20.373  0.00  0.00    +0.021 C 
ATOM     16  C   UNL     1      35.027 -20.714 -19.530  0.00  0.00    +0.021 C 
BRANCH  12  17
ATOM     17  S   UNL     1      35.274 -18.858 -21.512  0.00  0.00    +0.057 S 
ATOM     18  O   UNL     1      36.692 -19.060 -21.252  0.00  0.00    -0.153 OA
ATOM     19  O   UNL     1      34.746 -19.068 -22.853  0.00  0.00    -0.153 OA
BRANCH  17  20
ATOM     20  N   UNL     1      34.837 -17.290 -20.991  0.00  0.00    -0.203 NA
ATOM     21  H   UNL     1      35.493 -16.974 -20.277  0.00  0.00    +0.144 HD
ATOM     22  H   UNL     1      33.894 -17.313 -20.600  0.00  0.00    +0.144 HD
ENDBRANCH  17  20
ENDBRANCH  12  17
ENDBRANCH   1  11
BRANCH   2  24
ATOM     23  S   UNL     1      34.566 -23.311 -12.432  0.00  0.00    -0.016 S 
ATOM     24  C   UNL     1      34.524 -23.843 -14.032  0.00  0.00    +0.166 C 
BRANCH  24  25
ATOM     25  N   UNL     1      35.458 -24.673 -14.657  0.00  0.00    -0.291 N 
ATOM     26  H   UNL     1      35.067 -25.350 -15.255  0.00  0.00    +0.154 HD
BRANCH  25  29
ATOM     27  F   UNL     1      36.996 -22.584 -15.640  0.00  0.00    -0.203 F 
ATOM     28  F   UNL     1      36.781 -26.825 -13.510  0.00  0.00    -0.203 F 
ATOM     29  C   UNL     1      36.876 -24.704 -14.576  0.00  0.00    +0.105 C 
ATOM     30  C   UNL     1      37.602 -23.641 -15.079  0.00  0.00    +0.156 C 
ATOM     31  C   UNL     1      37.492 -25.798 -13.996  0.00  0.00    +0.156 C 
ATOM     32  C   UNL     1      38.994 -23.672 -15.000  0.00  0.00    +0.031 C 
ATOM     33  C   UNL     1      38.884 -25.829 -13.917  0.00  0.00    +0.031 C 
ATOM     34  C   UNL     1      39.635 -24.766 -14.419  0.00  0.00    +0.005 C 
ENDBRANCH  25  29
ENDBRANCH  24  25
ENDBRANCH   2  24
TORSDOF 6
ENDMDL
MODEL 3
REMARK VINA RESULT:     -10.9      4.253      6.477
REMARK  Name = 5330812
REMARK  6 active torsions:
REMARK  status: ('A' for Active; 'I' for Inactive)
REMARK    1  A    between atoms: N_1  and  C_11
REMARK    2  A    between atoms: N_2  and  C_24
REMARK    3  A    between atoms: C_12  and  S_17
REMARK    4  A    between atoms: S_17  and  N_20
REMARK    5  A    between atoms: C_24  and  N_25
REMARK    6  A    between atoms: N_25  and  C_29
REMARK                            x       y       z     vdW  Elec       q    Type
REMARK                         _______ _______ _______ _____ _____    ______ ____
ROOT
ATOM      1  N   UNL     1      31.879 -24.075 -12.777  0.00  0.00    -0.246 N 
ATOM      2  N   UNL     1      35.118 -23.530 -13.637  0.00  0.00    -0.120 N 
ATOM      3  N   UNL     1      33.831 -23.394 -13.989  0.00  0.00    -0.089 NA
ATOM      4  N   UNL     1      34.044 -24.422 -11.957  0.00  0.00    -0.304 NA
ATOM      5  N   UNL     1      36.456 -24.375 -11.892  0.00  0.00    -0.319 N 
ATOM      6  C   UNL     1      33.271 -23.944 -12.946  0.00  0.00    +0.167 C 
ATOM      7  C   UNL     1      35.237 -24.142 -12.428  0.00  0.00    +0.272 C 
ATOM      8  H   UNL     1      31.622 -24.512 -11.934  0.00  0.00    +0.165 HD
ATOM      9  H   UNL     1      37.267 -24.101 -12.376  0.00  0.00    +0.146 HD
ATOM     10  H   UNL     1      36.532 -24.818 -11.017  0.00  0.00    +0.146 HD
ENDROOT
BRANCH   1  11
ATOM     11  C   UNL     1      30.782 -23.703 -13.581  0.00  0.00    +0.058 C 
ATOM     12  C   UNL     1      28.610 -22.966 -15.171  0.00  0.00    +0.122 C 
ATOM     13  C   UNL     1      30.681 -22.397 -14.063  0.00  0.00    +0.017 C 
ATOM     14  C   UNL     1      29.796 -24.639 -13.893  0.00  0.00    +0.017 C 
ATOM     15  C   UNL     1      29.596 -22.030 -14.859  0.00  0.00    +0.021 C 
ATOM     16  C   UNL     1      28.711 -24.271 -14.688  0.00  0.00    +0.021 C 
BRANCH  12  17
ATOM     17  S   UNL     1      27.253 -22.506 -16.167  0.00  0.00    +0.057 S 
ATOM     18  O   UNL     1      26.071 -22.416 -15.321  0.00  0.00    -0.153 OA
ATOM     19  O   UNL     1      27.645 -21.365 -16.985  0.00  0.00    -0.153 OA
BRANCH  17  20
ATOM     20  N   UNL     1      27.106 -23.878 -17.174  0.00  0.00    -0.203 NA
ATOM     21  H   UNL     1      26.139 -23.971 -17.483  0.00  0.00    +0.144 HD
ATOM     22  H   UNL     1      27.380 -24.711 -16.654  0.00  0.00    +0.144 HD
ENDBRANCH  17  20
ENDBRANCH  12  17
ENDBRANCH   1  11
BRANCH   2  24
ATOM     23  S   UNL     1      37.599 -23.798 -14.710  0.00  0.00    -0.016 S 
ATOM     24  C   UNL     1      36.097 -23.064 -14.488  0.00  0.00    +0.166 C 
BRANCH  24  25
ATOM     25  N   UNL     1      35.595 -21.968 -15.193  0.00  0.00    -0.291 N 
ATOM     26  H   UNL     1      35.321 -21.210 -14.627  0.00  0.00    +0.154 HD
BRANCH  25  29
ATOM     27  F   UNL     1      33.316 -22.870 -16.491  0.00  0.00    -0.203 F 
ATOM     28  F   UNL     1      37.508 -20.647 -16.706  0.00  0.00    -0.203 F 
ATOM     29  C   UNL     1      35.413 -21.761 -16.587  0.00  0.00    +0.105 C 
ATOM     30  C   UNL     1      34.261 -22.228 -17.191  0.00  0.00    +0.156 C 
ATOM     31  C   UNL     1      36.394 -21.098 -17.301  0.00  0.00    +0.156 C 
ATOM     32  C   UNL     1      34.083 -22.024 -18.559  0.00  0.00    +0.031 C 
ATOM     33  C   UNL     1      36.215 -20.894 -18.668  0.00  0.00    +0.031 C 
ATOM     34  C   UNL     1      35.060 -21.357 -19.298  0.00  0.00    +0.005 C 
ENDBRANCH  25  29
ENDBRANCH  24  25
ENDBRANCH   2  24
TORSDOF 6
ENDMDL
MODEL 4
REMARK VINA RESULT:     -10.8      4.248      6.499
REMARK  Name = 5330812
REMARK  6 active torsions:
REMARK  status: ('A' for Active; 'I' for Inactive)
REMARK    1  A    between atoms: N_1  and  C_11
REMARK    2  A    between atoms: N_2  and  C_24
REMARK    3  A    between atoms: C_12  and  S_17
REMARK    4  A    between atoms: S_17  and  N_20
REMARK    5  A    between atoms: C_24  and  N_25
REMARK    6  A    between atoms: N_25  and  C_29
REMARK                            x       y       z     vdW  Elec       q    Type
REMARK                         _______ _______ _______ _____ _____    ______ ____
ROOT
ATOM      1  N   UNL     1      31.934 -24.105 -12.740  0.00  0.00    -0.246 N 
ATOM      2  N   UNL     1      35.198 -23.600 -13.528  0.00  0.00    -0.120 N 
ATOM      3  N   UNL     1      33.922 -23.482 -13.925  0.00  0.00    -0.089 NA
ATOM      4  N   UNL     1      34.073 -24.410 -11.840  0.00  0.00    -0.304 NA
ATOM      5  N   UNL     1      36.483 -24.358 -11.705  0.00  0.00    -0.319 N 
ATOM      6  C   UNL     1      33.331 -23.981 -12.873  0.00  0.00    +0.167 C 
ATOM      7  C   UNL     1      35.280 -24.152 -12.288  0.00  0.00    +0.272 C 
ATOM      8  H   UNL     1      31.651 -24.500 -11.884  0.00  0.00    +0.165 HD
ATOM      9  H   UNL     1      37.308 -24.107 -12.178  0.00  0.00    +0.146 HD
ATOM     10  H   UNL     1      36.532 -24.758 -10.807  0.00  0.00    +0.146 HD
ENDROOT
BRANCH   1  11
ATOM     11  C   UNL     1      30.862 -23.773 -13.593  0.00  0.00    +0.058 C 
ATOM     12  C   UNL     1      28.739 -23.119 -15.282  0.00  0.00    +0.122 C 
ATOM     13  C   UNL     1      29.951 -24.757 -13.984  0.00  0.00    +0.017 C 
ATOM     14  C   UNL     1      30.710 -22.463 -14.048  0.00  0.00    +0.017 C 
ATOM     15  C   UNL     1      28.890 -24.429 -14.827  0.00  0.00    +0.021 C 
ATOM     16  C   UNL     1      29.650 -22.136 -14.892  0.00  0.00    +0.021 C 
BRANCH  12  17
ATOM     17  S   UNL     1      27.411 -22.709 -16.338  0.00  0.00    +0.057 S 
ATOM     18  O   UNL     1      27.753 -21.489 -17.056  0.00  0.00    -0.153 OA
ATOM     19  O   UNL     1      27.025 -23.902 -17.080  0.00  0.00    -0.153 OA
BRANCH  17  20
ATOM     20  N   UNL     1      26.187 -22.353 -15.199  0.00  0.00    -0.203 NA
ATOM     21  H   UNL     1      25.715 -21.490 -15.468  0.00  0.00    +0.144 HD
ATOM     22  H   UNL     1      26.606 -22.238 -14.276  0.00  0.00    +0.144 HD
ENDBRANCH  17  20
ENDBRANCH  12  17
ENDBRANCH   1  11
BRANCH   2  24
ATOM     23  S   UNL     1      37.657 -23.993 -14.612  0.00  0.00    -0.016 S 
ATOM     24  C   UNL     1      36.202 -23.176 -14.371  0.00  0.00    +0.166 C 
BRANCH  24  25
ATOM     25  N   UNL     1      35.766 -22.037 -15.052  0.00  0.00    -0.291 N 
ATOM     26  H   UNL     1      35.608 -21.253 -14.477  0.00  0.00    +0.154 HD
BRANCH  25  29
ATOM     27  F   UNL     1      37.610 -20.726 -16.656  0.00  0.00    -0.203 F 
ATOM     28  F   UNL     1      33.410 -22.905 -16.233  0.00  0.00    -0.203 F 
ATOM     29  C   UNL     1      35.513 -21.817 -16.433  0.00  0.00    +0.105 C 
ATOM     30  C   UNL     1      36.461 -21.160 -17.193  0.00  0.00    +0.156 C 
ATOM     31  C   UNL     1      34.324 -22.267 -16.978  0.00  0.00    +0.156 C 
ATOM     32  C   UNL     1      36.212 -20.944 -18.548  0.00  0.00    +0.031 C 
ATOM     33  C   UNL     1      34.076 -22.052 -18.333  0.00  0.00    +0.031 C 
ATOM     34  C   UNL     1      35.020 -21.391 -19.118  0.00  0.00    +0.005 C 
ENDBRANCH  25  29
ENDBRANCH  24  25
ENDBRANCH   2  24
TORSDOF 6
ENDMDL
MODEL 5
REMARK VINA RESULT:     -10.7      3.983      7.008
REMARK  Name = 5330812
REMARK  6 active torsions:
REMARK  status: ('A' for Active; 'I' for Inactive)
REMARK    1  A    between atoms: N_1  and  C_11
REMARK    2  A    between atoms: N_2  and  C_24
REMARK    3  A    between atoms: C_12  and  S_17
REMARK    4  A    between atoms: S_17  and  N_20
REMARK    5  A    between atoms: C_24  and  N_25
REMARK    6  A    between atoms: N_25  and  C_29
REMARK                            x       y       z     vdW  Elec       q    Type
REMARK                         _______ _______ _______ _____ _____    ______ ____
ROOT
ATOM      1  N   UNL     1      34.379 -24.313 -12.775  0.00  0.00    -0.246 N 
ATOM      2  N   UNL     1      32.051 -23.248 -15.006  0.00  0.00    -0.120 N 
ATOM      3  N   UNL     1      33.338 -23.570 -14.802  0.00  0.00    -0.089 NA
ATOM      4  N   UNL     1      32.097 -23.804 -12.894  0.00  0.00    -0.304 NA
ATOM      5  N   UNL     1      29.996 -23.115 -13.863  0.00  0.00    -0.319 N 
ATOM      6  C   UNL     1      33.274 -23.884 -13.536  0.00  0.00    +0.167 C 
ATOM      7  C   UNL     1      31.320 -23.391 -13.869  0.00  0.00    +0.272 C 
ATOM      8  H   UNL     1      34.160 -24.511 -11.836  0.00  0.00    +0.165 HD
ATOM      9  H   UNL     1      29.554 -22.810 -14.687  0.00  0.00    +0.146 HD
ATOM     10  H   UNL     1      29.476 -23.221 -13.035  0.00  0.00    +0.146 HD
ENDROOT
BRANCH   1  11
ATOM     11  C   UNL     1      35.738 -24.513 -13.095  0.00  0.00    +0.058 C 
ATOM     12  C   UNL     1      38.426 -24.909 -13.728  0.00  0.00    +0.122 C 
ATOM     13  C   UNL     1      36.088 -25.340 -14.162  0.00  0.00    +0.017 C 
ATOM     14  C   UNL     1      36.732 -23.884 -12.344  0.00  0.00    +0.017 C 
ATOM     15  C   UNL     1      37.432 -25.537 -14.479  0.00  0.00    +0.021 C 
ATOM     16  C   UNL     1      38.075 -24.082 -12.660  0.00  0.00    +0.021 C 
BRANCH  12  17
ATOM     17  S   UNL     1      40.108 -25.155 -14.125  0.00  0.00    +0.057 S 
ATOM     18  O   UNL     1      40.796 -23.876 -14.027  0.00  0.00    -0.153 OA
ATOM     19  O   UNL     1      40.598 -26.301 -13.370  0.00  0.00    -0.153 OA
BRANCH  17  20
ATOM     20  N   UNL     1      39.993 -25.594 -15.773  0.00  0.00    -0.203 NA
ATOM     21  H   UNL     1      40.454 -24.888 -16.345  0.00  0.00    +0.144 HD
ATOM     22  H   UNL     1      39.010 -25.660 -16.039  0.00  0.00    +0.144 HD
ENDBRANCH  17  20
ENDBRANCH  12  17
ENDBRANCH   1  11
BRANCH   2  24
ATOM     23  S   UNL     1      30.220 -22.022 -16.593  0.00  0.00    -0.016 S 
ATOM     24  C   UNL     1      31.657 -22.841 -16.262  0.00  0.00    +0.166 C 
BRANCH  24  25
ATOM     25  N   UNL     1      32.679 -23.124 -17.169  0.00  0.00    -0.291 N 
ATOM     26  H   UNL     1      32.793 -24.082 -17.371  0.00  0.00    +0.154 HD
BRANCH  25  29
ATOM     27  F   UNL     1      35.295 -22.816 -16.300  0.00  0.00    -0.203 F 
ATOM     28  F   UNL     1      31.887 -21.703 -19.416  0.00  0.00    -0.203 F 
ATOM     29  C   UNL     1      33.584 -22.266 -17.852  0.00  0.00    +0.105 C 
ATOM     30  C   UNL     1      34.878 -22.144 -17.382  0.00  0.00    +0.156 C 
ATOM     31  C   UNL     1      33.144 -21.577 -18.967  0.00  0.00    +0.156 C 
ATOM     32  C   UNL     1      35.765 -21.302 -18.052  0.00  0.00    +0.031 C 
ATOM     33  C   UNL     1      34.031 -20.736 -19.637  0.00  0.00    +0.031 C 
ATOM     34  C   UNL     1      35.342 -20.598 -19.180  0.00  0.00    +0.005 C 
ENDBRANCH  25  29
ENDBRANCH  24  25
ENDBRANCH   2  24
TORSDOF 6
ENDMDL
MODEL 6
REMARK VINA RESULT:     -10.5      4.910      9.496
REMARK  Name = 5330812
REMARK  6 active torsions:
REMARK  status: ('A' for Active; 'I' for Inactive)
REMARK    1  A    between atoms: N_1  and  C_11
REMARK    2  A    between atoms: N_2  and  C_24
REMARK    3  A    between atoms: C_12  and  S_17
REMARK    4  A    between atoms: S_17  and  N_20
REMARK    5  A    between atoms: C_24  and  N_25
REMARK    6  A    between atoms: N_25  and  C_29
REMARK                            x       y       z     vdW  Elec       q    Type
REMARK                         _______ _______ _______ _____ _____    ______ ____
ROOT
ATOM      1  N   UNL     1      33.774 -21.618 -18.647  0.00  0.00    -0.246 N 
ATOM      2  N   UNL     1      34.646 -19.090 -20.738  0.00  0.00    -0.120 N 
ATOM      3  N   UNL     1      34.972 -19.800 -19.648  0.00  0.00    -0.089 NA
ATOM      4  N   UNL     1      33.004 -20.519 -20.565  0.00  0.00    -0.304 NA
ATOM      5  N   UNL     1      32.970 -18.936 -22.386  0.00  0.00    -0.319 N 
ATOM      6  C   UNL     1      33.953 -20.617 -19.621  0.00  0.00    +0.167 C 
ATOM      7  C   UNL     1      33.476 -19.523 -21.278  0.00  0.00    +0.272 C 
ATOM      8  H   UNL     1      32.954 -22.148 -18.770  0.00  0.00    +0.165 HD
ATOM      9  H   UNL     1      33.450 -18.189 -22.810  0.00  0.00    +0.146 HD
ATOM     10  H   UNL     1      32.122 -19.256 -22.769  0.00  0.00    +0.146 HD
ENDROOT
BRANCH   1  11
ATOM     11  C   UNL     1      34.539 -22.010 -17.529  0.00  0.00    +0.058 C 
ATOM     12  C   UNL     1      36.053 -22.785 -15.317  0.00  0.00    +0.122 C 
ATOM     13  C   UNL     1      33.951 -22.758 -16.509  0.00  0.00    +0.017 C 
ATOM     14  C   UNL     1      35.884 -21.649 -17.442  0.00  0.00    +0.017 C 
ATOM     15  C   UNL     1      34.708 -23.146 -15.403  0.00  0.00    +0.021 C 
ATOM     16  C   UNL     1      36.640 -22.036 -16.337  0.00  0.00    +0.021 C 
BRANCH  12  17
ATOM     17  S   UNL     1      37.000 -23.271 -13.933  0.00  0.00    +0.057 S 
ATOM     18  O   UNL     1      37.273 -22.091 -13.125  0.00  0.00    -0.153 OA
ATOM     19  O   UNL     1      36.366 -24.434 -13.325  0.00  0.00    -0.153 OA
BRANCH  17  20
ATOM     20  N   UNL     1      38.449 -23.770 -14.689  0.00  0.00    -0.203 NA
ATOM     21  H   UNL     1      39.133 -23.014 -14.642  0.00  0.00    +0.144 HD
ATOM     22  H   UNL     1      38.261 -23.999 -15.665  0.00  0.00    +0.144 HD
ENDBRANCH  17  20
ENDBRANCH  12  17
ENDBRANCH   1  11
BRANCH   2  24
ATOM     23  S   UNL     1      36.951 -18.311 -21.947  0.00  0.00    -0.016 S 
ATOM     24  C   UNL     1      35.483 -18.075 -21.150  0.00  0.00    +0.166 C 
BRANCH  24  25
ATOM     25  N   UNL     1      34.866 -16.850 -20.890  0.00  0.00    -0.291 N 
ATOM     26  H   UNL     1      34.721 -16.660 -19.935  0.00  0.00    +0.154 HD
BRANCH  25  29
ATOM     27  F   UNL     1      33.918 -14.432 -19.916  0.00  0.00    -0.203 F 
ATOM     28  F   UNL     1      34.901 -17.212 -23.641  0.00  0.00    -0.203 F 
ATOM     29  C   UNL     1      34.412 -15.831 -21.771  0.00  0.00    +0.105 C 
ATOM     30  C   UNL     1      33.949 -14.642 -21.240  0.00  0.00    +0.156 C 
ATOM     31  C   UNL     1      34.448 -16.056 -23.134  0.00  0.00    +0.156 C 
ATOM     32  C   UNL     1      33.504 -13.642 -22.104  0.00  0.00    +0.031 C 
ATOM     33  C   UNL     1      34.004 -15.056 -23.998  0.00  0.00    +0.031 C 
ATOM     34  C   UNL     1      33.532 -13.849 -23.483  0.00  0.00    +0.005 C 
ENDBRANCH  25  29
ENDBRANCH  24  25
ENDBRANCH   2  24
TORSDOF 6
ENDMDL
MODEL 7
REMARK VINA RESULT:     -10.2      4.514      8.893
REMARK  Name = 5330812
REMARK  6 active torsions:
REMARK  status: ('A' for Active; 'I' for Inactive)
REMARK    1  A    between atoms: N_1  and  C_11
REMARK    2  A    between atoms: N_2  and  C_24
REMARK    3  A    between atoms: C_12  and  S_17
REMARK    4  A    between atoms: S_17  and  N_20
REMARK    5  A    between atoms: C_24  and  N_25
REMARK    6  A    between atoms: N_25  and  C_29
REMARK                            x       y       z     vdW  Elec       q    Type
REMARK                         _______ _______ _______ _____ _____    ______ ____
ROOT
ATOM      1  N   UNL     1      33.631 -22.577 -16.966  0.00  0.00    -0.246 N 
ATOM      2  N   UNL     1      34.004 -20.527 -19.648  0.00  0.00    -0.120 N 
ATOM      3  N   UNL     1      34.613 -21.171 -18.641  0.00  0.00    -0.089 NA
ATOM      4  N   UNL     1      32.357 -21.549 -18.641  0.00  0.00    -0.304 NA
ATOM      5  N   UNL     1      31.865 -20.197 -20.578  0.00  0.00    -0.319 N 
ATOM      6  C   UNL     1      33.571 -21.745 -18.102  0.00  0.00    +0.167 C 
ATOM      7  C   UNL     1      32.664 -20.757 -19.642  0.00  0.00    +0.272 C 
ATOM      8  H   UNL     1      32.756 -22.930 -16.689  0.00  0.00    +0.165 HD
ATOM      9  H   UNL     1      32.253 -19.618 -21.273  0.00  0.00    +0.146 HD
ATOM     10  H   UNL     1      30.897 -20.369 -20.566  0.00  0.00    +0.146 HD
ENDROOT
BRANCH   1  11
ATOM     11  C   UNL     1      34.699 -23.001 -16.150  0.00  0.00    +0.058 C 
ATOM     12  C   UNL     1      36.812 -23.841 -14.533  0.00  0.00    +0.122 C 
ATOM     13  C   UNL     1      34.577 -24.167 -15.393  0.00  0.00    +0.017 C 
ATOM     14  C   UNL     1      35.877 -22.255 -16.097  0.00  0.00    +0.017 C 
ATOM     15  C   UNL     1      35.634 -24.587 -14.585  0.00  0.00    +0.021 C 
ATOM     16  C   UNL     1      36.933 -22.675 -15.289  0.00  0.00    +0.021 C 
BRANCH  12  17
ATOM     17  S   UNL     1      38.135 -24.367 -13.523  0.00  0.00    +0.057 S 
ATOM     18  O   UNL     1      38.252 -23.445 -12.402  0.00  0.00    -0.153 OA
ATOM     19  O   UNL     1      37.985 -25.795 -13.272  0.00  0.00    -0.153 OA
BRANCH  17  20
ATOM     20  N   UNL     1      39.462 -24.131 -14.572  0.00  0.00    -0.203 NA
ATOM     21  H   UNL     1      39.136 -24.138 -15.539  0.00  0.00    +0.144 HD
ATOM     22  H   UNL     1      40.140 -24.881 -14.436  0.00  0.00    +0.144 HD
ENDBRANCH  17  20
ENDBRANCH  12  17
ENDBRANCH   1  11
BRANCH   2  24
ATOM     23  S   UNL     1      36.439 -19.605 -20.419  0.00  0.00    -0.016 S 
ATOM     24  C   UNL     1      34.762 -19.763 -20.508  0.00  0.00    +0.166 C 
BRANCH  24  25
ATOM     25  N   UNL     1      33.930 -19.243 -21.501  0.00  0.00    -0.291 N 
ATOM     26  H   UNL     1      33.115 -19.771 -21.668  0.00  0.00    +0.154 HD
BRANCH  25  29
ATOM     27  F   UNL     1      33.449 -19.340 -24.231  0.00  0.00    -0.203 F 
ATOM     28  F   UNL     1      34.668 -16.805 -20.404  0.00  0.00    -0.203 F 
ATOM     29  C   UNL     1      34.058 -18.083 -22.311  0.00  0.00    +0.105 C 
ATOM     30  C   UNL     1      33.808 -18.178 -23.667  0.00  0.00    +0.156 C 
ATOM     31  C   UNL     1      34.429 -16.889 -21.720  0.00  0.00    +0.156 C 
ATOM     32  C   UNL     1      33.934 -17.039 -24.461  0.00  0.00    +0.031 C 
ATOM     33  C   UNL     1      34.554 -15.750 -22.515  0.00  0.00    +0.031 C 
ATOM     34  C   UNL     1      34.307 -15.825 -23.885  0.00  0.00    +0.005 C 
ENDBRANCH  25  29
ENDBRANCH  24  25
ENDBRANCH   2  24
TORSDOF 6
ENDMDL
MODEL 8
REMARK VINA RESULT:     -10.2      4.405      8.990
REMARK  Name = 5330812
REMARK  6 active torsions:
REMARK  status: ('A' for Active; 'I' for Inactive)
REMARK    1  A    between atoms: N_1  and  C_11
REMARK    2  A    between atoms: N_2  and  C_24
REMARK    3  A    between atoms: C_12  and  S_17
REMARK    4  A    between atoms: S_17  and  N_20
REMARK    5  A    between atoms: C_24  and  N_25
REMARK    6  A    between atoms: N_25  and  C_29
REMARK                            x       y       z     vdW  Elec       q    Type
REMARK                         _______ _______ _______ _____ _____    ______ ____
ROOT
ATOM      1  N   UNL     1      33.601 -22.461 -17.096  0.00  0.00    -0.246 N 
ATOM      2  N   UNL     1      33.993 -20.423 -19.783  0.00  0.00    -0.120 N 
ATOM      3  N   UNL     1      34.594 -21.055 -18.764  0.00  0.00    -0.089 NA
ATOM      4  N   UNL     1      32.342 -21.455 -18.794  0.00  0.00    -0.304 NA
ATOM      5  N   UNL     1      31.865 -20.118 -20.746  0.00  0.00    -0.319 N 
ATOM      6  C   UNL     1      33.550 -21.636 -18.236  0.00  0.00    +0.167 C 
ATOM      7  C   UNL     1      32.656 -20.666 -19.795  0.00  0.00    +0.272 C 
ATOM      8  H   UNL     1      32.725 -22.821 -16.828  0.00  0.00    +0.165 HD
ATOM      9  H   UNL     1      32.258 -19.540 -21.438  0.00  0.00    +0.146 HD
ATOM     10  H   UNL     1      30.898 -20.299 -20.746  0.00  0.00    +0.146 HD
ENDROOT
BRANCH   1  11
ATOM     11  C   UNL     1      34.661 -22.871 -16.261  0.00  0.00    +0.058 C 
ATOM     12  C   UNL     1      36.760 -23.681 -14.611  0.00  0.00    +0.122 C 
ATOM     13  C   UNL     1      35.865 -22.165 -16.266  0.00  0.00    +0.017 C 
ATOM     14  C   UNL     1      34.508 -23.982 -15.432  0.00  0.00    +0.017 C 
ATOM     15  C   UNL     1      36.913 -22.570 -15.440  0.00  0.00    +0.021 C 
ATOM     16  C   UNL     1      35.557 -24.387 -14.608  0.00  0.00    +0.021 C 
BRANCH  12  17
ATOM     17  S   UNL     1      38.073 -24.187 -13.578  0.00  0.00    +0.057 S 
ATOM     18  O   UNL     1      39.300 -24.188 -14.361  0.00  0.00    -0.153 OA
ATOM     19  O   UNL     1      38.006 -23.425 -12.338  0.00  0.00    -0.153 OA
BRANCH  17  20
ATOM     20  N   UNL     1      37.626 -25.804 -13.251  0.00  0.00    -0.203 NA
ATOM     21  H   UNL     1      38.137 -26.429 -13.873  0.00  0.00    +0.144 HD
ATOM     22  H   UNL     1      36.624 -25.916 -13.403  0.00  0.00    +0.144 HD
ENDBRANCH  17  20
ENDBRANCH  12  17
ENDBRANCH   1  11
BRANCH   2  24
ATOM     23  S   UNL     1      36.430 -19.477 -20.521  0.00  0.00    -0.016 S 
ATOM     24  C   UNL     1      34.757 -19.657 -20.637  0.00  0.00    +0.166 C 
BRANCH  24  25
ATOM     25  N   UNL     1      33.935 -19.156 -21.648  0.00  0.00    -0.291 N 
ATOM     26  H   UNL     1      33.153 -19.717 -21.854  0.00  0.00    +0.154 HD
BRANCH  25  29
ATOM     27  F   UNL     1      34.636 -16.732 -20.497  0.00  0.00    -0.203 F 
ATOM     28  F   UNL     1      33.438 -19.196 -24.378  0.00  0.00    -0.203 F 
ATOM     29  C   UNL     1      34.036 -17.974 -22.430  0.00  0.00    +0.105 C 
ATOM     30  C   UNL     1      34.388 -16.788 -21.813  0.00  0.00    +0.156 C 
ATOM     31  C   UNL     1      33.778 -18.042 -23.787  0.00  0.00    +0.156 C 
ATOM     32  C   UNL     1      34.487 -15.628 -22.581  0.00  0.00    +0.031 C 
ATOM     33  C   UNL     1      33.878 -16.882 -24.554  0.00  0.00    +0.031 C 
ATOM     34  C   UNL     1      34.232 -15.675 -23.952  0.00  0.00    +0.005 C 
ENDBRANCH  25  29
ENDBRANCH  24  25
ENDBRANCH   2  24
TORSDOF 6
ENDMDL
MODEL 9
REMARK VINA RESULT:     -10.1      3.915      7.101
REMARK  Name = 5330812
REMARK  6 active torsions:
REMARK  status: ('A' for Active; 'I' for Inactive)
REMARK    1  A    between atoms: N_1  and  C_11
REMARK    2  A    between atoms: N_2  and  C_24
REMARK    3  A    between atoms: C_12  and  S_17
REMARK    4  A    between atoms: S_17  and  N_20
REMARK    5  A    between atoms: C_24  and  N_25
REMARK    6  A    between atoms: N_25  and  C_29
REMARK                            x       y       z     vdW  Elec       q    Type
REMARK                         _______ _______ _______ _____ _____    ______ ____
ROOT
ATOM      1  N   UNL     1      34.527 -24.276 -12.775  0.00  0.00    -0.246 N 
ATOM      2  N   UNL     1      32.156 -23.217 -14.962  0.00  0.00    -0.120 N 
ATOM      3  N   UNL     1      33.433 -23.590 -14.794  0.00  0.00    -0.089 NA
ATOM      4  N   UNL     1      32.268 -23.663 -12.827  0.00  0.00    -0.304 NA
ATOM      5  N   UNL     1      30.162 -22.923 -13.743  0.00  0.00    -0.319 N 
ATOM      6  C   UNL     1      33.411 -23.834 -13.511  0.00  0.00    +0.167 C 
ATOM      7  C   UNL     1      31.470 -23.263 -13.789  0.00  0.00    +0.272 C 
ATOM      8  H   UNL     1      34.341 -24.414 -11.818  0.00  0.00    +0.165 HD
ATOM      9  H   UNL     1      29.698 -22.640 -14.563  0.00  0.00    +0.146 HD
ATOM     10  H   UNL     1      29.674 -22.959 -12.889  0.00  0.00    +0.146 HD
ENDROOT
BRANCH   1  11
ATOM     11  C   UNL     1      35.859 -24.559 -13.140  0.00  0.00    +0.058 C 
ATOM     12  C   UNL     1      38.496 -25.119 -13.861  0.00  0.00    +0.122 C 
ATOM     13  C   UNL     1      36.914 -24.015 -12.406  0.00  0.00    +0.017 C 
ATOM     14  C   UNL     1      36.124 -25.383 -14.235  0.00  0.00    +0.017 C 
ATOM     15  C   UNL     1      38.232 -24.296 -12.767  0.00  0.00    +0.021 C 
ATOM     16  C   UNL     1      37.441 -25.662 -14.595  0.00  0.00    +0.021 C 
BRANCH  12  17
ATOM     17  S   UNL     1      40.145 -25.470 -14.312  0.00  0.00    +0.057 S 
ATOM     18  O   UNL     1      40.705 -26.389 -13.332  0.00  0.00    -0.153 OA
ATOM     19  O   UNL     1      40.175 -25.815 -15.727  0.00  0.00    -0.153 OA
BRANCH  17  20
ATOM     20  N   UNL     1      40.873 -23.937 -14.108  0.00  0.00    -0.203 NA
ATOM     21  H   UNL     1      41.886 -24.045 -14.067  0.00  0.00    +0.144 HD
ATOM     22  H   UNL     1      40.540 -23.517 -13.240  0.00  0.00    +0.144 HD
ENDBRANCH  17  20
ENDBRANCH  12  17
ENDBRANCH   1  11
BRANCH   2  24
ATOM     23  S   UNL     1      30.256 -22.095 -16.546  0.00  0.00    -0.016 S 
ATOM     24  C   UNL     1      31.725 -22.857 -16.220  0.00  0.00    +0.166 C 
BRANCH  24  25
ATOM     25  N   UNL     1      32.740 -23.132 -17.139  0.00  0.00    -0.291 N 
ATOM     26  H   UNL     1      32.865 -24.088 -17.337  0.00  0.00    +0.154 HD
BRANCH  25  29
ATOM     27  F   UNL     1      31.915 -21.770 -19.410  0.00  0.00    -0.203 F 
ATOM     28  F   UNL     1      35.348 -22.745 -16.275  0.00  0.00    -0.203 F 
ATOM     29  C   UNL     1      33.624 -22.265 -17.837  0.00  0.00    +0.105 C 
ATOM     30  C   UNL     1      33.169 -21.607 -18.964  0.00  0.00    +0.156 C 
ATOM     31  C   UNL     1      34.915 -22.103 -17.369  0.00  0.00    +0.156 C 
ATOM     32  C   UNL     1      34.036 -20.757 -19.649  0.00  0.00    +0.031 C 
ATOM     33  C   UNL     1      35.782 -21.252 -18.054  0.00  0.00    +0.031 C 
ATOM     34  C   UNL     1      35.343 -20.579 -19.194  0.00  0.00    +0.005 C 
ENDBRANCH  25  29
ENDBRANCH  24  25
ENDBRANCH   2  24
TORSDOF 6
ENDMDL
