MODEL 1
REMARK VINA RESULT:     -11.4      0.000      0.000
REMARK  Name = 14611919
REMARK  5 active torsions:
REMARK  status: ('A' for Active; 'I' for Inactive)
REMARK    1  A    between atoms: C_3  and  C_11
REMARK    2  A    between atoms: C_5  and  C_19
REMARK    3  A    between atoms: C_7  and  S_24
REMARK    4  A    between atoms: N_18  and  N_21
REMARK    5  A    between atoms: S_24  and  N_27
REMARK                            x       y       z     vdW  Elec       q    Type
REMARK                         _______ _______ _______ _____ _____    ______ ____
ROOT
ATOM      1  N   UNL     1      33.751 -24.488 -13.545  0.00  0.00    -0.350 N 
ATOM      2  C   UNL     1      32.540 -23.296 -14.990  0.00  0.00    +0.018 A 
ATOM      3  C   UNL     1      33.912 -23.215 -15.357  0.00  0.00    +0.022 A 
ATOM      4  C   UNL     1      32.465 -24.100 -13.852  0.00  0.00    +0.057 A 
ATOM      5  C   UNL     1      34.632 -23.958 -14.448  0.00  0.00    +0.112 A 
ATOM      6  C   UNL     1      31.348 -22.761 -15.521  0.00  0.00    +0.021 C 
ATOM      7  C   UNL     1      30.132 -23.050 -14.893  0.00  0.00    +0.122 C 
ATOM      8  C   UNL     1      31.256 -24.397 -13.213  0.00  0.00    +0.018 C 
ATOM      9  C   UNL     1      30.088 -23.855 -13.757  0.00  0.00    +0.021 C 
ATOM     10  H   UNL     1      34.000 -25.063 -12.786  0.00  0.00    +0.166 HD
ENDROOT
BRANCH   3  11
ATOM     11  C   UNL     1      34.517 -22.511 -16.454  0.00  0.00    +0.002 C 
ATOM     12  C   UNL     1      33.838 -22.396 -17.666  0.00  0.00    +0.000 C 
ATOM     13  C   UNL     1      35.782 -21.945 -16.305  0.00  0.00    +0.000 C 
ATOM     14  C   UNL     1      34.426 -21.712 -18.732  0.00  0.00    +0.000 C 
ATOM     15  C   UNL     1      36.370 -21.262 -17.369  0.00  0.00    +0.000 C 
ATOM     16  C   UNL     1      35.692 -21.145 -18.583  0.00  0.00    +0.000 C 
ENDBRANCH   3  11
BRANCH   5  19
ATOM     17  O   UNL     1      36.842 -23.443 -13.767  0.00  0.00    -0.267 OA
ATOM     18  N   UNL     1      36.539 -25.306 -15.081  0.00  0.00    -0.248 N 
ATOM     19  C   UNL     1      36.043 -24.188 -14.384  0.00  0.00    +0.274 C 
ATOM     20  H   UNL     1      35.918 -25.895 -15.566  0.00  0.00    +0.169 HD
BRANCH  18  21
ATOM     21  N   UNL     1      37.895 -25.583 -15.087  0.00  0.00    -0.254 NA
ATOM     22  H   UNL     1      38.328 -25.135 -15.894  0.00  0.00    +0.140 HD
ATOM     23  H   UNL     1      38.035 -26.591 -15.140  0.00  0.00    +0.140 HD
ENDBRANCH  18  21
ENDBRANCH   5  19
BRANCH   7  24
ATOM     24  S   UNL     1      28.649 -22.392 -15.544  0.00  0.00    +0.057 S 
ATOM     25  O   UNL     1      28.147 -21.389 -14.616  0.00  0.00    -0.153 OA
ATOM     26  O   UNL     1      28.874 -22.040 -16.939  0.00  0.00    -0.153 OA
BRANCH  24  27
ATOM     27  N   UNL     1      27.631 -23.762 -15.481  0.00  0.00    -0.203 NA
ATOM     28  H   UNL     1      26.666 -23.463 -15.335  0.00  0.00    +0.144 HD
ATOM     29  H   UNL     1      27.920 -24.365 -14.710  0.00  0.00    +0.144 HD
ENDBRANCH  24  27
ENDBRANCH   7  24
TORSDOF 5
ENDMDL
MODEL 2
REMARK VINA RESULT:     -10.9      3.212      6.590
REMARK  Name = 14611919
REMARK  5 active torsions:
REMARK  status: ('A' for Active; 'I' for Inactive)
REMARK    1  A    between atoms: C_3  and  C_11
REMARK    2  A    between atoms: C_5  and  C_19
REMARK    3  A    between atoms: C_7  and  S_24
REMARK    4  A    between atoms: N_18  and  N_21
REMARK    5  A    between atoms: S_24  and  N_27
REMARK                            x       y       z     vdW  Elec       q    Type
REMARK                         _______ _______ _______ _____ _____    ______ ____
ROOT
ATOM      1  N   UNL     1      34.287 -24.296 -12.746  0.00  0.00    -0.350 N 
ATOM      2  C   UNL     1      36.021 -24.084 -14.133  0.00  0.00    +0.018 A 
ATOM      3  C   UNL     1      34.875 -23.486 -14.727  0.00  0.00    +0.022 A 
ATOM      4  C   UNL     1      35.626 -24.584 -12.891  0.00  0.00    +0.057 A 
ATOM      5  C   UNL     1      33.824 -23.634 -13.851  0.00  0.00    +0.112 A 
ATOM      6  C   UNL     1      37.362 -24.247 -14.533  0.00  0.00    +0.021 C 
ATOM      7  C   UNL     1      38.255 -24.904 -13.679  0.00  0.00    +0.122 C 
ATOM      8  C   UNL     1      36.507 -25.243 -12.026  0.00  0.00    +0.018 C 
ATOM      9  C   UNL     1      37.832 -25.393 -12.445  0.00  0.00    +0.021 C 
ATOM     10  H   UNL     1      33.741 -24.533 -11.961  0.00  0.00    +0.166 HD
ENDROOT
BRANCH   3  11
ATOM     11  C   UNL     1      34.752 -22.831 -16.001  0.00  0.00    +0.002 C 
ATOM     12  C   UNL     1      35.783 -22.017 -16.468  0.00  0.00    +0.000 C 
ATOM     13  C   UNL     1      33.602 -23.011 -16.768  0.00  0.00    +0.000 C 
ATOM     14  C   UNL     1      35.663 -21.381 -17.704  0.00  0.00    +0.000 C 
ATOM     15  C   UNL     1      33.481 -22.376 -18.003  0.00  0.00    +0.000 C 
ATOM     16  C   UNL     1      34.512 -21.561 -18.472  0.00  0.00    +0.000 C 
ENDBRANCH   3  11
BRANCH   5  19
ATOM     17  O   UNL     1      32.112 -22.002 -13.981  0.00  0.00    -0.267 OA
ATOM     18  N   UNL     1      31.489 -24.212 -14.106  0.00  0.00    -0.248 N 
ATOM     19  C   UNL     1      32.465 -23.205 -13.986  0.00  0.00    +0.274 C 
ATOM     20  H   UNL     1      31.759 -25.158 -14.111  0.00  0.00    +0.169 HD
BRANCH  18  21
ATOM     21  N   UNL     1      30.150 -23.879 -14.216  0.00  0.00    -0.254 NA
ATOM     22  H   UNL     1      29.620 -24.699 -14.511  0.00  0.00    +0.140 HD
ATOM     23  H   UNL     1      30.041 -23.136 -14.907  0.00  0.00    +0.140 HD
ENDBRANCH  18  21
ENDBRANCH   5  19
BRANCH   7  24
ATOM     24  S   UNL     1      39.921 -25.110 -14.166  0.00  0.00    +0.057 S 
ATOM     25  O   UNL     1      40.609 -23.838 -13.994  0.00  0.00    -0.153 OA
ATOM     26  O   UNL     1      40.443 -26.308 -13.528  0.00  0.00    -0.153 OA
BRANCH  24  27
ATOM     27  N   UNL     1      39.734 -25.414 -15.837  0.00  0.00    -0.203 NA
ATOM     28  H   UNL     1      39.728 -26.422 -16.001  0.00  0.00    +0.144 HD
ATOM     29  H   UNL     1      40.508 -24.992 -16.349  0.00  0.00    +0.144 HD
ENDBRANCH  24  27
ENDBRANCH   7  24
TORSDOF 5
ENDMDL
MODEL 3
REMARK VINA RESULT:     -10.5      3.237      4.589
REMARK  Name = 14611919
REMARK  5 active torsions:
REMARK  status: ('A' for Active; 'I' for Inactive)
REMARK    1  A    between atoms: C_3  and  C_11
REMARK    2  A    between atoms: C_5  and  C_19
REMARK    3  A    between atoms: C_7  and  S_24
REMARK    4  A    between atoms: N_18  and  N_21
REMARK    5  A    between atoms: S_24  and  N_27
REMARK                            x       y       z     vdW  Elec       q    Type
REMARK                         _______ _______ _______ _____ _____    ______ ____
ROOT
ATOM      1  N   UNL     1      33.135 -23.154 -13.140  0.00  0.00    -0.350 N 
ATOM      2  C   UNL     1      34.174 -23.248 -15.112  0.00  0.00    +0.018 A 
ATOM      3  C   UNL     1      35.086 -23.627 -14.088  0.00  0.00    +0.022 A 
ATOM      4  C   UNL     1      32.958 -22.956 -14.491  0.00  0.00    +0.057 A 
ATOM      5  C   UNL     1      34.418 -23.558 -12.886  0.00  0.00    +0.112 A 
ATOM      6  C   UNL     1      34.266 -23.125 -16.513  0.00  0.00    +0.021 C 
ATOM      7  C   UNL     1      33.141 -22.715 -17.237  0.00  0.00    +0.122 C 
ATOM      8  C   UNL     1      31.824 -22.545 -15.203  0.00  0.00    +0.018 C 
ATOM      9  C   UNL     1      31.941 -22.430 -16.591  0.00  0.00    +0.021 C 
ATOM     10  H   UNL     1      32.440 -23.022 -12.454  0.00  0.00    +0.166 HD
ENDROOT
BRANCH   3  11
ATOM     11  C   UNL     1      36.463 -24.022 -14.202  0.00  0.00    +0.002 C 
ATOM     12  C   UNL     1      37.373 -23.192 -14.855  0.00  0.00    +0.000 C 
ATOM     13  C   UNL     1      36.888 -25.232 -13.658  0.00  0.00    +0.000 C 
ATOM     14  C   UNL     1      38.711 -23.574 -14.965  0.00  0.00    +0.000 C 
ATOM     15  C   UNL     1      38.224 -25.616 -13.768  0.00  0.00    +0.000 C 
ATOM     16  C   UNL     1      39.136 -24.786 -14.422  0.00  0.00    +0.000 C 
ENDBRANCH   3  11
BRANCH   5  19
ATOM     17  O   UNL     1      34.535 -24.834 -10.893  0.00  0.00    -0.267 OA
ATOM     18  N   UNL     1      35.805 -22.920 -11.010  0.00  0.00    -0.248 N 
ATOM     19  C   UNL     1      34.897 -23.840 -11.567  0.00  0.00    +0.274 C 
ATOM     20  H   UNL     1      36.093 -22.138 -11.533  0.00  0.00    +0.169 HD
BRANCH  18  21
ATOM     21  N   UNL     1      36.296 -23.109  -9.730  0.00  0.00    -0.254 NA
ATOM     22  H   UNL     1      36.072 -24.054  -9.417  0.00  0.00    +0.140 HD
ATOM     23  H   UNL     1      35.868 -22.432  -9.099  0.00  0.00    +0.140 HD
ENDBRANCH  18  21
ENDBRANCH   5  19
BRANCH   7  24
ATOM     24  S   UNL     1      33.246 -22.561 -18.975  0.00  0.00    +0.057 S 
ATOM     25  O   UNL     1      33.342 -23.897 -19.548  0.00  0.00    -0.153 OA
ATOM     26  O   UNL     1      32.197 -21.656 -19.422  0.00  0.00    -0.153 OA
BRANCH  24  27
ATOM     27  N   UNL     1      34.755 -21.779 -19.141  0.00  0.00    -0.203 NA
ATOM     28  H   UNL     1      34.876 -21.474 -20.108  0.00  0.00    +0.144 HD
ATOM     29  H   UNL     1      35.503 -22.426 -18.893  0.00  0.00    +0.144 HD
ENDBRANCH  24  27
ENDBRANCH   7  24
TORSDOF 5
ENDMDL
MODEL 4
REMARK VINA RESULT:     -10.1      3.249      6.455
REMARK  Name = 14611919
REMARK  5 active torsions:
REMARK  status: ('A' for Active; 'I' for Inactive)
REMARK    1  A    between atoms: C_3  and  C_11
REMARK    2  A    between atoms: C_5  and  C_19
REMARK    3  A    between atoms: C_7  and  S_24
REMARK    4  A    between atoms: N_18  and  N_21
REMARK    5  A    between atoms: S_24  and  N_27
REMARK                            x       y       z     vdW  Elec       q    Type
REMARK                         _______ _______ _______ _____ _____    ______ ____
ROOT
ATOM      1  N   UNL     1      34.640 -22.410 -16.568  0.00  0.00    -0.350 N 
ATOM      2  C   UNL     1      34.106 -23.295 -14.591  0.00  0.00    +0.018 A 
ATOM      3  C   UNL     1      32.914 -23.058 -15.331  0.00  0.00    +0.022 A 
ATOM      4  C   UNL     1      35.174 -22.881 -15.389  0.00  0.00    +0.057 A 
ATOM      5  C   UNL     1      33.275 -22.512 -16.542  0.00  0.00    +0.112 A 
ATOM      6  C   UNL     1      34.380 -23.826 -13.314  0.00  0.00    +0.021 C 
ATOM      7  C   UNL     1      35.708 -23.921 -12.886  0.00  0.00    +0.122 C 
ATOM      8  C   UNL     1      36.508 -22.970 -14.973  0.00  0.00    +0.018 C 
ATOM      9  C   UNL     1      36.754 -23.499 -13.704  0.00  0.00    +0.021 C 
ATOM     10  H   UNL     1      35.164 -22.052 -17.321  0.00  0.00    +0.166 HD
ENDROOT
BRANCH   3  11
ATOM     11  C   UNL     1      31.549 -23.310 -14.957  0.00  0.00    +0.002 C 
ATOM     12  C   UNL     1      31.045 -24.609 -14.998  0.00  0.00    +0.000 C 
ATOM     13  C   UNL     1      30.732 -22.256 -14.553  0.00  0.00    +0.000 C 
ATOM     14  C   UNL     1      29.720 -24.854 -14.635  0.00  0.00    +0.000 C 
ATOM     15  C   UNL     1      29.408 -22.500 -14.190  0.00  0.00    +0.000 C 
ATOM     16  C   UNL     1      28.902 -23.799 -14.231  0.00  0.00    +0.000 C 
ENDBRANCH   3  11
BRANCH   5  19
ATOM     17  O   UNL     1      31.194 -22.187 -17.626  0.00  0.00    -0.267 OA
ATOM     18  N   UNL     1      33.096 -21.589 -18.771  0.00  0.00    -0.248 N 
ATOM     19  C   UNL     1      32.445 -22.098 -17.631  0.00  0.00    +0.274 C 
ATOM     20  H   UNL     1      34.077 -21.516 -18.782  0.00  0.00    +0.169 HD
BRANCH  18  21
ATOM     21  N   UNL     1      32.364 -21.190 -19.875  0.00  0.00    -0.254 NA
ATOM     22  H   UNL     1      31.380 -21.415 -19.730  0.00  0.00    +0.140 HD
ATOM     23  H   UNL     1      32.706 -21.677 -20.703  0.00  0.00    +0.140 HD
ENDBRANCH  18  21
ENDBRANCH   5  19
BRANCH   7  24
ATOM     24  S   UNL     1      36.058 -24.579 -11.304  0.00  0.00    +0.057 S 
ATOM     25  O   UNL     1      37.194 -23.857 -10.749  0.00  0.00    -0.153 OA
ATOM     26  O   UNL     1      34.814 -24.660 -10.553  0.00  0.00    -0.153 OA
BRANCH  24  27
ATOM     27  N   UNL     1      36.556 -26.161 -11.715  0.00  0.00    -0.203 NA
ATOM     28  H   UNL     1      35.736 -26.760 -11.817  0.00  0.00    +0.144 HD
ATOM     29  H   UNL     1      37.157 -26.530 -10.978  0.00  0.00    +0.144 HD
ENDBRANCH  24  27
ENDBRANCH   7  24
TORSDOF 5
ENDMDL
MODEL 5
REMARK VINA RESULT:     -10.0      3.347      5.520
REMARK  Name = 14611919
REMARK  5 active torsions:
REMARK  status: ('A' for Active; 'I' for Inactive)
REMARK    1  A    between atoms: C_3  and  C_11
REMARK    2  A    between atoms: C_5  and  C_19
REMARK    3  A    between atoms: C_7  and  S_24
REMARK    4  A    between atoms: N_18  and  N_21
REMARK    5  A    between atoms: S_24  and  N_27
REMARK                            x       y       z     vdW  Elec       q    Type
REMARK                         _______ _______ _______ _____ _____    ______ ____
ROOT
ATOM      1  N   UNL     1      36.308 -22.789 -13.787  0.00  0.00    -0.350 N 
ATOM      2  C   UNL     1      34.691 -22.585 -15.310  0.00  0.00    +0.018 A 
ATOM      3  C   UNL     1      34.126 -23.064 -14.095  0.00  0.00    +0.022 A 
ATOM      4  C   UNL     1      36.059 -22.421 -15.091  0.00  0.00    +0.057 A 
ATOM      5  C   UNL     1      35.146 -23.181 -13.178  0.00  0.00    +0.112 A 
ATOM      6  C   UNL     1      34.166 -22.273 -16.580  0.00  0.00    +0.021 C 
ATOM      7  C   UNL     1      35.028 -21.810 -17.580  0.00  0.00    +0.122 C 
ATOM      8  C   UNL     1      36.934 -21.959 -16.081  0.00  0.00    +0.018 C 
ATOM      9  C   UNL     1      36.391 -21.656 -17.333  0.00  0.00    +0.021 C 
ATOM     10  H   UNL     1      37.193 -22.775 -13.356  0.00  0.00    +0.166 HD
ENDROOT
BRANCH   3  11
ATOM     11  C   UNL     1      32.759 -23.391 -13.798  0.00  0.00    +0.002 C 
ATOM     12  C   UNL     1      31.881 -22.394 -13.374  0.00  0.00    +0.000 C 
ATOM     13  C   UNL     1      32.312 -24.704 -13.933  0.00  0.00    +0.000 C 
ATOM     14  C   UNL     1      30.553 -22.712 -13.085  0.00  0.00    +0.000 C 
ATOM     15  C   UNL     1      30.985 -25.022 -13.644  0.00  0.00    +0.000 C 
ATOM     16  C   UNL     1      30.105 -24.026 -13.220  0.00  0.00    +0.000 C 
ENDBRANCH   3  11
BRANCH   5  19
ATOM     17  O   UNL     1      34.249 -24.440 -11.383  0.00  0.00    -0.267 OA
ATOM     18  N   UNL     1      36.039 -23.069 -10.932  0.00  0.00    -0.248 N 
ATOM     19  C   UNL     1      35.094 -23.621 -11.817  0.00  0.00    +0.274 C 
ATOM     20  H   UNL     1      36.704 -22.425 -11.265  0.00  0.00    +0.169 HD
BRANCH  18  21
ATOM     21  N   UNL     1      36.037 -23.425  -9.595  0.00  0.00    -0.254 NA
ATOM     22  H   UNL     1      36.997 -23.455  -9.251  0.00  0.00    +0.140 HD
ATOM     23  H   UNL     1      35.608 -24.344  -9.489  0.00  0.00    +0.140 HD
ENDBRANCH  18  21
ENDBRANCH   5  19
BRANCH   7  24
ATOM     24  S   UNL     1      34.386 -21.419 -19.158  0.00  0.00    +0.057 S 
ATOM     25  O   UNL     1      35.009 -20.184 -19.613  0.00  0.00    -0.153 OA
ATOM     26  O   UNL     1      34.450 -22.612 -19.991  0.00  0.00    -0.153 OA
BRANCH  24  27
ATOM     27  N   UNL     1      32.752 -21.105 -18.774  0.00  0.00    -0.203 NA
ATOM     28  H   UNL     1      32.251 -21.987 -18.669  0.00  0.00    +0.144 HD
ATOM     29  H   UNL     1      32.325 -20.559 -19.523  0.00  0.00    +0.144 HD
ENDBRANCH  24  27
ENDBRANCH   7  24
TORSDOF 5
ENDMDL
MODEL 6
REMARK VINA RESULT:      -9.6      2.788      5.967
REMARK  Name = 14611919
REMARK  5 active torsions:
REMARK  status: ('A' for Active; 'I' for Inactive)
REMARK    1  A    between atoms: C_3  and  C_11
REMARK    2  A    between atoms: C_5  and  C_19
REMARK    3  A    between atoms: C_7  and  S_24
REMARK    4  A    between atoms: N_18  and  N_21
REMARK    5  A    between atoms: S_24  and  N_27
REMARK                            x       y       z     vdW  Elec       q    Type
REMARK                         _______ _______ _______ _____ _____    ______ ____
ROOT
ATOM      1  N   UNL     1      32.312 -23.318 -14.543  0.00  0.00    -0.350 N 
ATOM      2  C   UNL     1      34.485 -23.302 -15.050  0.00  0.00    +0.018 A 
ATOM      3  C   UNL     1      33.748 -22.774 -16.147  0.00  0.00    +0.022 A 
ATOM      4  C   UNL     1      33.561 -23.635 -14.057  0.00  0.00    +0.057 A 
ATOM      5  C   UNL     1      32.414 -22.798 -15.805  0.00  0.00    +0.112 A 
ATOM      6  C   UNL     1      35.854 -23.528 -14.805  0.00  0.00    +0.021 C 
ATOM      7  C   UNL     1      36.246 -24.078 -13.580  0.00  0.00    +0.122 C 
ATOM      8  C   UNL     1      33.939 -24.186 -12.827  0.00  0.00    +0.018 C 
ATOM      9  C   UNL     1      35.302 -24.402 -12.608  0.00  0.00    +0.021 C 
ATOM     10  H   UNL     1      31.467 -23.447 -14.054  0.00  0.00    +0.166 HD
ENDROOT
BRANCH   3  11
ATOM     11  C   UNL     1      34.228 -22.287 -17.411  0.00  0.00    +0.002 C 
ATOM     12  C   UNL     1      35.346 -21.455 -17.457  0.00  0.00    +0.000 C 
ATOM     13  C   UNL     1      33.576 -22.646 -18.589  0.00  0.00    +0.000 C 
ATOM     14  C   UNL     1      35.813 -20.982 -18.684  0.00  0.00    +0.000 C 
ATOM     15  C   UNL     1      34.040 -22.173 -19.815  0.00  0.00    +0.000 C 
ATOM     16  C   UNL     1      35.160 -21.341 -19.863  0.00  0.00    +0.000 C 
ENDBRANCH   3  11
BRANCH   5  19
ATOM     17  O   UNL     1      31.359 -21.777 -17.664  0.00  0.00    -0.267 OA
ATOM     18  N   UNL     1      30.010 -22.642 -16.016  0.00  0.00    -0.248 N 
ATOM     19  C   UNL     1      31.278 -22.377 -16.566  0.00  0.00    +0.274 C 
ATOM     20  H   UNL     1      29.938 -23.112 -15.154  0.00  0.00    +0.169 HD
BRANCH  18  21
ATOM     21  N   UNL     1      28.862 -22.244 -16.679  0.00  0.00    -0.254 NA
ATOM     22  H   UNL     1      28.911 -22.545 -17.652  0.00  0.00    +0.140 HD
ATOM     23  H   UNL     1      28.782 -21.228 -16.640  0.00  0.00    +0.140 HD
ENDBRANCH  18  21
ENDBRANCH   5  19
BRANCH   7  24
ATOM     24  S   UNL     1      37.943 -24.361 -13.267  0.00  0.00    +0.057 S 
ATOM     25  O   UNL     1      38.389 -23.405 -12.264  0.00  0.00    -0.153 OA
ATOM     26  O   UNL     1      38.140 -25.787 -13.047  0.00  0.00    -0.153 OA
BRANCH  24  27
ATOM     27  N   UNL     1      38.625 -23.939 -14.774  0.00  0.00    -0.203 NA
ATOM     28  H   UNL     1      39.083 -24.755 -15.182  0.00  0.00    +0.144 HD
ATOM     29  H   UNL     1      39.312 -23.196 -14.642  0.00  0.00    +0.144 HD
ENDBRANCH  24  27
ENDBRANCH   7  24
TORSDOF 5
ENDMDL
MODEL 7
REMARK VINA RESULT:      -9.5      3.354      6.709
REMARK  Name = 14611919
REMARK  5 active torsions:
REMARK  status: ('A' for Active; 'I' for Inactive)
REMARK    1  A    between atoms: C_3  and  C_11
REMARK    2  A    between atoms: C_5  and  C_19
REMARK    3  A    between atoms: C_7  and  S_24
REMARK    4  A    between atoms: N_18  and  N_21
REMARK    5  A    between atoms: S_24  and  N_27
REMARK                            x       y       z     vdW  Elec       q    Type
REMARK                         _______ _______ _______ _____ _____    ______ ____
ROOT
ATOM      1  N   UNL     1      34.909 -22.206 -16.913  0.00  0.00    -0.350 N 
ATOM      2  C   UNL     1      34.742 -22.922 -14.807  0.00  0.00    +0.018 A 
ATOM      3  C   UNL     1      33.441 -22.847 -15.376  0.00  0.00    +0.022 A 
ATOM      4  C   UNL     1      35.645 -22.515 -15.791  0.00  0.00    +0.057 A 
ATOM      5  C   UNL     1      33.576 -22.402 -16.672  0.00  0.00    +0.112 A 
ATOM      6  C   UNL     1      35.242 -23.299 -13.544  0.00  0.00    +0.021 C 
ATOM      7  C   UNL     1      36.621 -23.255 -13.315  0.00  0.00    +0.122 C 
ATOM      8  C   UNL     1      37.028 -22.465 -15.576  0.00  0.00    +0.018 C 
ATOM      9  C   UNL     1      37.499 -22.844 -14.316  0.00  0.00    +0.021 C 
ATOM     10  H   UNL     1      35.287 -21.888 -17.766  0.00  0.00    +0.166 HD
ENDROOT
BRANCH   3  11
ATOM     11  C   UNL     1      32.171 -23.158 -14.779  0.00  0.00    +0.002 C 
ATOM     12  C   UNL     1      31.350 -22.130 -14.315  0.00  0.00    +0.000 C 
ATOM     13  C   UNL     1      31.761 -24.485 -14.665  0.00  0.00    +0.000 C 
ATOM     14  C   UNL     1      30.117 -22.432 -13.735  0.00  0.00    +0.000 C 
ATOM     15  C   UNL     1      30.530 -24.787 -14.086  0.00  0.00    +0.000 C 
ATOM     16  C   UNL     1      29.707 -23.760 -13.621  0.00  0.00    +0.000 C 
ENDBRANCH   3  11
BRANCH   5  19
ATOM     17  O   UNL     1      31.386 -22.578 -17.559  0.00  0.00    -0.267 OA
ATOM     18  N   UNL     1      32.949 -21.435 -18.799  0.00  0.00    -0.248 N 
ATOM     19  C   UNL     1      32.565 -22.161 -17.656  0.00  0.00    +0.274 C 
ATOM     20  H   UNL     1      33.872 -21.105 -18.882  0.00  0.00    +0.169 HD
BRANCH  18  21
ATOM     21  N   UNL     1      32.036 -21.182 -19.807  0.00  0.00    -0.254 NA
ATOM     22  H   UNL     1      32.212 -20.257 -20.200  0.00  0.00    +0.140 HD
ATOM     23  H   UNL     1      31.091 -21.215 -19.426  0.00  0.00    +0.140 HD
ENDBRANCH  18  21
ENDBRANCH   5  19
BRANCH   7  24
ATOM     24  S   UNL     1      37.250 -23.723 -11.752  0.00  0.00    +0.057 S 
ATOM     25  O   UNL     1      36.811 -25.082 -11.471  0.00  0.00    -0.153 OA
ATOM     26  O   UNL     1      38.667 -23.395 -11.708  0.00  0.00    -0.153 OA
BRANCH  24  27
ATOM     27  N   UNL     1      36.406 -22.647 -10.728  0.00  0.00    -0.203 NA
ATOM     28  H   UNL     1      36.920 -22.535  -9.854  0.00  0.00    +0.144 HD
ATOM     29  H   UNL     1      35.478 -23.022 -10.530  0.00  0.00    +0.144 HD
ENDBRANCH  24  27
ENDBRANCH   7  24
TORSDOF 5
ENDMDL
MODEL 8
REMARK VINA RESULT:      -9.4      3.419      4.246
REMARK  Name = 14611919
REMARK  5 active torsions:
REMARK  status: ('A' for Active; 'I' for Inactive)
REMARK    1  A    between atoms: C_3  and  C_11
REMARK    2  A    between atoms: C_5  and  C_19
REMARK    3  A    between atoms: C_7  and  S_24
REMARK    4  A    between atoms: N_18  and  N_21
REMARK    5  A    between atoms: S_24  and  N_27
REMARK                            x       y       z     vdW  Elec       q    Type
REMARK                         _______ _______ _______ _____ _____    ______ ____
ROOT
ATOM      1  N   UNL     1      32.024 -21.940 -18.183  0.00  0.00    -0.350 N 
ATOM      2  C   UNL     1      32.501 -22.716 -16.146  0.00  0.00    +0.018 A 
ATOM      3  C   UNL     1      33.714 -22.393 -16.816  0.00  0.00    +0.022 A 
ATOM      4  C   UNL     1      31.456 -22.422 -17.025  0.00  0.00    +0.057 A 
ATOM      5  C   UNL     1      33.388 -21.920 -18.067  0.00  0.00    +0.112 A 
ATOM      6  C   UNL     1      32.189 -23.229 -14.871  0.00  0.00    +0.021 C 
ATOM      7  C   UNL     1      30.848 -23.430 -14.525  0.00  0.00    +0.122 C 
ATOM      8  C   UNL     1      30.110 -22.618 -16.692  0.00  0.00    +0.018 C 
ATOM      9  C   UNL     1      29.827 -23.129 -15.423  0.00  0.00    +0.021 C 
ATOM     10  H   UNL     1      31.523 -21.653 -18.980  0.00  0.00    +0.166 HD
ENDROOT
BRANCH   3  11
ATOM     11  C   UNL     1      35.067 -22.511 -16.346  0.00  0.00    +0.002 C 
ATOM     12  C   UNL     1      35.416 -23.549 -15.483  0.00  0.00    +0.000 C 
ATOM     13  C   UNL     1      36.028 -21.589 -16.755  0.00  0.00    +0.000 C 
ATOM     14  C   UNL     1      36.731 -23.663 -15.028  0.00  0.00    +0.000 C 
ATOM     15  C   UNL     1      37.341 -21.702 -16.300  0.00  0.00    +0.000 C 
ATOM     16  C   UNL     1      37.693 -22.740 -15.436  0.00  0.00    +0.000 C 
ENDBRANCH   3  11
BRANCH   5  19
ATOM     17  O   UNL     1      35.074 -22.208 -19.706  0.00  0.00    -0.267 OA
ATOM     18  N   UNL     1      34.166 -20.109 -19.469  0.00  0.00    -0.248 N 
ATOM     19  C   UNL     1      34.250 -21.469 -19.116  0.00  0.00    +0.274 C 
ATOM     20  H   UNL     1      33.522 -19.523 -19.010  0.00  0.00    +0.169 HD
BRANCH  18  21
ATOM     21  N   UNL     1      34.984 -19.590 -20.457  0.00  0.00    -0.254 NA
ATOM     22  H   UNL     1      34.468 -18.890 -20.991  0.00  0.00    +0.140 HD
ATOM     23  H   UNL     1      35.282 -20.340 -21.080  0.00  0.00    +0.140 HD
ENDBRANCH  18  21
ENDBRANCH   5  19
BRANCH   7  24
ATOM     24  S   UNL     1      30.452 -24.066 -12.946  0.00  0.00    +0.057 S 
ATOM     25  O   UNL     1      31.489 -25.014 -12.561  0.00  0.00    -0.153 OA
ATOM     26  O   UNL     1      30.128 -22.951 -12.068  0.00  0.00    -0.153 OA
BRANCH  24  27
ATOM     27  N   UNL     1      29.018 -24.926 -13.293  0.00  0.00    -0.203 NA
ATOM     28  H   UNL     1      29.075 -25.317 -14.234  0.00  0.00    +0.144 HD
ATOM     29  H   UNL     1      28.219 -24.295 -13.236  0.00  0.00    +0.144 HD
ENDBRANCH  24  27
ENDBRANCH   7  24
TORSDOF 5
ENDMDL
MODEL 9
REMARK VINA RESULT:      -9.4      2.319      3.982
REMARK  Name = 14611919
REMARK  5 active torsions:
REMARK  status: ('A' for Active; 'I' for Inactive)
REMARK    1  A    between atoms: C_3  and  C_11
REMARK    2  A    between atoms: C_5  and  C_19
REMARK    3  A    between atoms: C_7  and  S_24
REMARK    4  A    between atoms: N_18  and  N_21
REMARK    5  A    between atoms: S_24  and  N_27
REMARK                            x       y       z     vdW  Elec       q    Type
REMARK                         _______ _______ _______ _____ _____    ______ ____
ROOT
ATOM      1  N   UNL     1      34.645 -22.412 -16.491  0.00  0.00    -0.350 N 
ATOM      2  C   UNL     1      33.519 -23.287 -14.776  0.00  0.00    +0.018 A 
ATOM      3  C   UNL     1      34.904 -23.251 -14.452  0.00  0.00    +0.022 A 
ATOM      4  C   UNL     1      33.383 -22.755 -16.060  0.00  0.00    +0.057 A 
ATOM      5  C   UNL     1      35.571 -22.708 -15.528  0.00  0.00    +0.112 A 
ATOM      6  C   UNL     1      32.363 -23.722 -14.098  0.00  0.00    +0.021 C 
ATOM      7  C   UNL     1      31.119 -23.609 -14.728  0.00  0.00    +0.122 C 
ATOM      8  C   UNL     1      32.145 -22.636 -16.703  0.00  0.00    +0.018 C 
ATOM      9  C   UNL     1      31.014 -23.074 -16.010  0.00  0.00    +0.021 C 
ATOM     10  H   UNL     1      34.853 -22.011 -17.367  0.00  0.00    +0.166 HD
ENDROOT
BRANCH   3  11
ATOM     11  C   UNL     1      35.565 -23.681 -13.251  0.00  0.00    +0.002 C 
ATOM     12  C   UNL     1      36.034 -24.990 -13.146  0.00  0.00    +0.000 C 
ATOM     13  C   UNL     1      35.738 -22.790 -12.194  0.00  0.00    +0.000 C 
ATOM     14  C   UNL     1      36.677 -25.408 -11.979  0.00  0.00    +0.000 C 
ATOM     15  C   UNL     1      36.379 -23.206 -11.028  0.00  0.00    +0.000 C 
ATOM     16  C   UNL     1      36.849 -24.516 -10.921  0.00  0.00    +0.000 C 
ENDBRANCH   3  11
BRANCH   5  19
ATOM     17  O   UNL     1      37.441 -21.387 -16.135  0.00  0.00    -0.267 OA
ATOM     18  N   UNL     1      37.846 -23.513 -15.359  0.00  0.00    -0.248 N 
ATOM     19  C   UNL     1      36.971 -22.463 -15.694  0.00  0.00    +0.274 C 
ATOM     20  H   UNL     1      37.484 -24.360 -15.012  0.00  0.00    +0.169 HD
BRANCH  18  21
ATOM     21  N   UNL     1      39.213 -23.363 -15.515  0.00  0.00    -0.254 NA
ATOM     22  H   UNL     1      39.404 -22.488 -16.003  0.00  0.00    +0.140 HD
ATOM     23  H   UNL     1      39.581 -24.143 -16.058  0.00  0.00    +0.140 HD
ENDBRANCH  18  21
ENDBRANCH   5  19
BRANCH   7  24
ATOM     24  S   UNL     1      29.679 -24.144 -13.893  0.00  0.00    +0.057 S 
ATOM     25  O   UNL     1      29.930 -24.080 -12.460  0.00  0.00    -0.153 OA
ATOM     26  O   UNL     1      28.532 -23.450 -14.460  0.00  0.00    -0.153 OA
BRANCH  24  27
ATOM     27  N   UNL     1      29.619 -25.783 -14.369  0.00  0.00    -0.203 NA
ATOM     28  H   UNL     1      29.586 -26.378 -13.541  0.00  0.00    +0.144 HD
ATOM     29  H   UNL     1      30.450 -26.010 -14.917  0.00  0.00    +0.144 HD
ENDBRANCH  24  27
ENDBRANCH   7  24
TORSDOF 5
ENDMDL
