MODEL 1
REMARK VINA RESULT:     -11.8      0.000      0.000
REMARK  Name = 487101
REMARK  4 active torsions:
REMARK  status: ('A' for Active; 'I' for Inactive)
REMARK    1  A    between atoms: C_5  and  N_25
REMARK    2  A    between atoms: C_13  and  C_32
REMARK    3  A    between atoms: C_26  and  O_29
REMARK    4  A    between atoms: C_32  and  O_33
REMARK                            x       y       z     vdW  Elec       q    Type
REMARK                         _______ _______ _______ _____ _____    ______ ____
ROOT
ATOM      1 CL   UNL     1      35.898 -22.208 -16.165  0.00  0.00    -0.080 Cl
ATOM      2  F   UNL     1      32.229 -21.193 -19.447  0.00  0.00    -0.203 F 
ATOM      3  O   UNL     1      29.656 -23.519 -15.821  0.00  0.00    -0.286 OA
ATOM      4  N   UNL     1      33.556 -23.573 -14.545  0.00  0.00    -0.237 N 
ATOM      5  C   UNL     1      33.878 -21.746 -17.832  0.00  0.00    +0.088 C 
ATOM      6  C   UNL     1      34.214 -22.335 -16.608  0.00  0.00    +0.087 C 
ATOM      7  C   UNL     1      33.240 -22.959 -15.806  0.00  0.00    +0.073 C 
ATOM      8  C   UNL     1      32.561 -21.755 -18.276  0.00  0.00    +0.154 C 
ATOM      9  C   UNL     1      31.904 -22.929 -16.266  0.00  0.00    +0.056 C 
ATOM     10  C   UNL     1      31.570 -22.340 -17.493  0.00  0.00    +0.035 C 
ATOM     11  C   UNL     1      30.818 -23.504 -15.435  0.00  0.00    +0.204 C 
ATOM     12  C   UNL     1      32.495 -24.048 -13.777  0.00  0.00    +0.082 C 
ATOM     13  C   UNL     1      31.200 -24.052 -14.114  0.00  0.00    +0.129 C 
ATOM     14  F   UNL     1      34.934 -25.891 -15.123  0.00  0.00    -0.200 F 
ATOM     15  F   UNL     1      38.688 -24.349 -12.680  0.00  0.00    -0.223 F 
ATOM     16  N   UNL     1      35.463 -22.791 -13.304  0.00  0.00    -0.371 NA
ATOM     17  N   UNL     1      37.356 -22.026 -12.079  0.00  0.00    -0.334 N 
ATOM     18  C   UNL     1      34.888 -23.765 -14.056  0.00  0.00    +0.220 C 
ATOM     19  C   UNL     1      35.535 -24.955 -14.379  0.00  0.00    +0.183 C 
ATOM     20  C   UNL     1      36.830 -25.153 -13.910  0.00  0.00    +0.051 C 
ATOM     21  C   UNL     1      36.722 -23.018 -12.866  0.00  0.00    +0.193 C 
ATOM     22  C   UNL     1      37.441 -24.172 -13.138  0.00  0.00    +0.251 C 
ATOM     23  H   UNL     1      36.880 -21.192 -11.862  0.00  0.00    +0.144 HD
ATOM     24  H   UNL     1      38.272 -22.171 -11.748  0.00  0.00    +0.144 HD
ENDROOT
BRANCH   5  25
ATOM     25  N   UNL     1      34.837 -21.130 -18.648  0.00  0.00    -0.300 N 
ATOM     26  C   UNL     1      36.251 -20.292 -19.859  0.00  0.00    +0.150 C 
ATOM     27  C   UNL     1      34.731 -20.473 -19.905  0.00  0.00    +0.122 C 
ATOM     28  C   UNL     1      36.161 -20.682 -18.380  0.00  0.00    +0.122 C 
BRANCH  26  29
ATOM     29  O   UNL     1      36.730 -18.954 -20.126  0.00  0.00    -0.381 OA
ATOM     30  H   UNL     1      36.346 -18.633 -20.956  0.00  0.00    +0.210 HD
ENDBRANCH  26  29
ENDBRANCH   5  25
BRANCH  13  32
ATOM     31  O   UNL     1      30.139 -24.284 -11.999  0.00  0.00    -0.245 OA
ATOM     32  C   UNL     1      30.237 -24.618 -13.167  0.00  0.00    +0.342 C 
BRANCH  32  33
ATOM     33  O   UNL     1      29.487 -25.554 -13.786  0.00  0.00    -0.477 OA
ATOM     34  H   UNL     1      28.631 -25.336 -14.098  0.00  0.00    +0.295 HD
ENDBRANCH  32  33
ENDBRANCH  13  32
TORSDOF 4
ENDMDL
MODEL 2
REMARK VINA RESULT:     -11.0      3.289      5.308
REMARK  Name = 487101
REMARK  4 active torsions:
REMARK  status: ('A' for Active; 'I' for Inactive)
REMARK    1  A    between atoms: C_5  and  N_25
REMARK    2  A    between atoms: C_13  and  C_32
REMARK    3  A    between atoms: C_26  and  O_29
REMARK    4  A    between atoms: C_32  and  O_33
REMARK                            x       y       z     vdW  Elec       q    Type
REMARK                         _______ _______ _______ _____ _____    ______ ____
ROOT
ATOM      1 CL   UNL     1      32.382 -22.645 -16.806  0.00  0.00    -0.080 Cl
ATOM      2  F   UNL     1      37.190 -21.289 -17.362  0.00  0.00    -0.203 F 
ATOM      3  O   UNL     1      37.215 -22.993 -12.643  0.00  0.00    -0.286 OA
ATOM      4  N   UNL     1      33.321 -23.375 -13.880  0.00  0.00    -0.237 N 
ATOM      5  C   UNL     1      34.943 -21.945 -16.973  0.00  0.00    +0.088 C 
ATOM      6  C   UNL     1      33.975 -22.469 -16.110  0.00  0.00    +0.087 C 
ATOM      7  C   UNL     1      34.295 -22.835 -14.789  0.00  0.00    +0.073 C 
ATOM      8  C   UNL     1      36.255 -21.789 -16.543  0.00  0.00    +0.154 C 
ATOM      9  C   UNL     1      35.642 -22.694 -14.385  0.00  0.00    +0.056 C 
ATOM     10  C   UNL     1      36.610 -22.168 -15.251  0.00  0.00    +0.035 C 
ATOM     11  C   UNL     1      36.062 -23.130 -13.031  0.00  0.00    +0.204 C 
ATOM     12  C   UNL     1      33.775 -23.821 -12.641  0.00  0.00    +0.082 C 
ATOM     13  C   UNL     1      35.027 -23.746 -12.171  0.00  0.00    +0.129 C 
ATOM     14  F   UNL     1      31.667 -21.285 -13.169  0.00  0.00    -0.200 F 
ATOM     15  F   UNL     1      27.907 -23.581 -14.908  0.00  0.00    -0.223 F 
ATOM     16  N   UNL     1      31.410 -24.541 -14.762  0.00  0.00    -0.371 NA
ATOM     17  N   UNL     1      29.513 -25.685 -15.633  0.00  0.00    -0.334 N 
ATOM     18  C   UNL     1      31.916 -23.438 -14.151  0.00  0.00    +0.220 C 
ATOM     19  C   UNL     1      31.130 -22.354 -13.770  0.00  0.00    +0.183 C 
ATOM     20  C   UNL     1      29.764 -22.404 -14.028  0.00  0.00    +0.051 C 
ATOM     21  C   UNL     1      30.079 -24.553 -14.997  0.00  0.00    +0.193 C 
ATOM     22  C   UNL     1      29.221 -23.520 -14.653  0.00  0.00    +0.251 C 
ATOM     23  H   UNL     1      30.087 -26.441 -15.893  0.00  0.00    +0.144 HD
ATOM     24  H   UNL     1      28.545 -25.716 -15.813  0.00  0.00    +0.144 HD
ENDROOT
BRANCH   5  25
ATOM     25  N   UNL     1      34.638 -21.565 -18.287  0.00  0.00    -0.300 N 
ATOM     26  C   UNL     1      34.197 -21.074 -20.219  0.00  0.00    +0.150 C 
ATOM     27  C   UNL     1      33.405 -21.244 -18.920  0.00  0.00    +0.122 C 
ATOM     28  C   UNL     1      35.455 -21.078 -19.346  0.00  0.00    +0.122 C 
BRANCH  26  29
ATOM     29  O   UNL     1      33.945 -19.853 -20.950  0.00  0.00    -0.381 OA
ATOM     30  H   UNL     1      33.668 -19.158 -20.333  0.00  0.00    +0.210 HD
ENDBRANCH  26  29
ENDBRANCH   5  25
BRANCH  13  32
ATOM     31  O   UNL     1      34.823 -23.797  -9.803  0.00  0.00    -0.245 OA
ATOM     32  C   UNL     1      35.296 -24.260 -10.826  0.00  0.00    +0.342 C 
BRANCH  32  33
ATOM     33  O   UNL     1      36.138 -25.312 -10.902  0.00  0.00    -0.477 OA
ATOM     34  H   UNL     1      36.156 -25.946 -10.212  0.00  0.00    +0.295 HD
ENDBRANCH  32  33
ENDBRANCH  13  32
TORSDOF 4
ENDMDL
