MODEL 1
REMARK VINA RESULT:     -11.4      0.000      0.000
REMARK  Name = 21102
REMARK  6 active torsions:
REMARK  status: ('A' for Active; 'I' for Inactive)
REMARK    1  A    between atoms: O_1  and  C_2
REMARK    2  A    between atoms: O_1  and  C_14
REMARK    3  A    between atoms: C_3  and  N_9
REMARK    4  A    between atoms: C_14  and  C_15
REMARK    5  A    between atoms: C_16  and  O_21
REMARK    6  A    between atoms: O_21  and  C_23
REMARK                            x       y       z     vdW  Elec       q    Type
REMARK                         _______ _______ _______ _____ _____    ______ ____
ROOT
ATOM      1  O   UNL     1      34.335 -18.569 -22.019  0.00  0.00    -0.421 OA
ENDROOT
BRANCH   1   2
ATOM      2  C   UNL     1      34.110 -19.471 -20.975  0.00  0.00    +0.149 C 
ATOM      3  C   UNL     1      33.666 -21.243 -18.916  0.00  0.00    +0.051 C 
ATOM      4  C   UNL     1      32.587 -20.640 -19.560  0.00  0.00    +0.018 C 
ATOM      5  C   UNL     1      34.970 -20.949 -19.314  0.00  0.00    +0.018 C 
ATOM      6  C   UNL     1      32.812 -19.742 -20.604  0.00  0.00    +0.039 C 
ATOM      7  C   UNL     1      35.195 -20.051 -20.357  0.00  0.00    +0.039 C 
BRANCH   3   9
ATOM      8  O   UNL     1      31.124 -21.971 -17.476  0.00  0.00    -0.275 OA
ATOM      9  N   UNL     1      33.441 -22.141 -17.872  0.00  0.00    -0.284 N 
ATOM     10  C   UNL     1      32.230 -22.442 -17.235  0.00  0.00    +0.227 C 
ATOM     11  C   UNL     1      32.411 -23.472 -16.148  0.00  0.00    +0.095 C 
ATOM     12  H   UNL     1      34.233 -22.624 -17.542  0.00  0.00    +0.155 HD
ENDBRANCH   3   9
ENDBRANCH   1   2
BRANCH   1  14
ATOM     13  O   UNL     1      36.455 -17.747 -21.502  0.00  0.00    -0.244 OA
ATOM     14  C   UNL     1      35.250 -17.565 -21.713  0.00  0.00    +0.349 C 
BRANCH  14  15
ATOM     15  C   UNL     1      34.593 -16.266 -21.655  0.00  0.00    +0.111 C 
ATOM     16  C   UNL     1      34.314 -15.552 -22.820  0.00  0.00    +0.155 C 
ATOM     17  C   UNL     1      34.240 -15.740 -20.412  0.00  0.00    +0.010 C 
ATOM     18  C   UNL     1      33.682 -14.310 -22.744  0.00  0.00    +0.038 C 
ATOM     19  C   UNL     1      33.610 -14.497 -20.335  0.00  0.00    +0.000 C 
ATOM     20  C   UNL     1      33.331 -13.783 -21.501  0.00  0.00    +0.003 C 
BRANCH  16  21
ATOM     21  O   UNL     1      34.650 -16.050 -24.043  0.00  0.00    -0.424 OA
BRANCH  21  23
ATOM     22  O   UNL     1      33.110 -15.391 -25.678  0.00  0.00    -0.250 OA
ATOM     23  C   UNL     1      33.558 -16.229 -24.907  0.00  0.00    +0.322 C 
ATOM     24  C   UNL     1      33.003 -17.614 -24.752  0.00  0.00    +0.122 C 
ENDBRANCH  21  23
ENDBRANCH  16  21
ENDBRANCH  14  15
ENDBRANCH   1  14
TORSDOF 6
ENDMDL
MODEL 2
REMARK VINA RESULT:     -11.3      3.004      9.067
REMARK  Name = 21102
REMARK  6 active torsions:
REMARK  status: ('A' for Active; 'I' for Inactive)
REMARK    1  A    between atoms: O_1  and  C_2
REMARK    2  A    between atoms: O_1  and  C_14
REMARK    3  A    between atoms: C_3  and  N_9
REMARK    4  A    between atoms: C_14  and  C_15
REMARK    5  A    between atoms: C_16  and  O_21
REMARK    6  A    between atoms: O_21  and  C_23
REMARK                            x       y       z     vdW  Elec       q    Type
REMARK                         _______ _______ _______ _____ _____    ______ ____
ROOT
ATOM      1  O   UNL     1      34.035 -22.778 -17.891  0.00  0.00    -0.421 OA
ENDROOT
BRANCH   1   2
ATOM      2  C   UNL     1      34.097 -21.744 -18.828  0.00  0.00    +0.149 C 
ATOM      3  C   UNL     1      34.219 -19.708 -20.678  0.00  0.00    +0.051 C 
ATOM      4  C   UNL     1      32.984 -20.127 -20.183  0.00  0.00    +0.018 C 
ATOM      5  C   UNL     1      35.391 -20.320 -20.236  0.00  0.00    +0.018 C 
ATOM      6  C   UNL     1      32.923 -21.158 -19.245  0.00  0.00    +0.039 C 
ATOM      7  C   UNL     1      35.330 -21.351 -19.299  0.00  0.00    +0.039 C 
BRANCH   3   9
ATOM      8  O   UNL     1      35.081 -16.839 -20.374  0.00  0.00    -0.275 OA
ATOM      9  N   UNL     1      34.280 -18.676 -21.615  0.00  0.00    -0.284 N 
ATOM     10  C   UNL     1      34.690 -17.351 -21.418  0.00  0.00    +0.227 C 
ATOM     11  C   UNL     1      34.609 -16.545 -22.690  0.00  0.00    +0.095 C 
ATOM     12  H   UNL     1      33.999 -18.909 -22.529  0.00  0.00    +0.155 HD
ENDBRANCH   3   9
ENDBRANCH   1   2
BRANCH   1  14
ATOM     13  O   UNL     1      35.451 -21.754 -16.346  0.00  0.00    -0.244 OA
ATOM     14  C   UNL     1      34.433 -22.406 -16.609  0.00  0.00    +0.349 C 
BRANCH  14  15
ATOM     15  C   UNL     1      33.496 -22.904 -15.611  0.00  0.00    +0.111 C 
ATOM     16  C   UNL     1      33.951 -23.551 -14.462  0.00  0.00    +0.155 C 
ATOM     17  C   UNL     1      32.128 -22.726 -15.816  0.00  0.00    +0.010 C 
ATOM     18  C   UNL     1      33.038 -24.020 -13.517  0.00  0.00    +0.038 C 
ATOM     19  C   UNL     1      31.215 -23.195 -14.872  0.00  0.00    +0.000 C 
ATOM     20  C   UNL     1      31.670 -23.842 -13.723  0.00  0.00    +0.003 C 
BRANCH  16  21
ATOM     21  O   UNL     1      35.283 -23.735 -14.243  0.00  0.00    -0.424 OA
BRANCH  21  23
ATOM     22  O   UNL     1      35.418 -25.753 -15.420  0.00  0.00    -0.250 OA
ATOM     23  C   UNL     1      35.724 -25.048 -14.469  0.00  0.00    +0.322 C 
ATOM     24  C   UNL     1      36.639 -25.479 -13.359  0.00  0.00    +0.122 C 
ENDBRANCH  21  23
ENDBRANCH  16  21
ENDBRANCH  14  15
ENDBRANCH   1  14
TORSDOF 6
ENDMDL
MODEL 3
REMARK VINA RESULT:     -11.2      1.552      2.640
REMARK  Name = 21102
REMARK  6 active torsions:
REMARK  status: ('A' for Active; 'I' for Inactive)
REMARK    1  A    between atoms: O_1  and  C_2
REMARK    2  A    between atoms: O_1  and  C_14
REMARK    3  A    between atoms: C_3  and  N_9
REMARK    4  A    between atoms: C_14  and  C_15
REMARK    5  A    between atoms: C_16  and  O_21
REMARK    6  A    between atoms: O_21  and  C_23
REMARK                            x       y       z     vdW  Elec       q    Type
REMARK                         _______ _______ _______ _____ _____    ______ ____
ROOT
ATOM      1  O   UNL     1      35.051 -19.095 -21.604  0.00  0.00    -0.421 OA
ENDROOT
BRANCH   1   2
ATOM      2  C   UNL     1      34.327 -19.856 -20.682  0.00  0.00    +0.149 C 
ATOM      3  C   UNL     1      32.902 -21.353 -18.863  0.00  0.00    +0.051 C 
ATOM      4  C   UNL     1      32.238 -20.459 -19.702  0.00  0.00    +0.018 C 
ATOM      5  C   UNL     1      34.288 -21.489 -18.944  0.00  0.00    +0.018 C 
ATOM      6  C   UNL     1      32.960 -19.701 -20.624  0.00  0.00    +0.039 C 
ATOM      7  C   UNL     1      35.010 -20.731 -19.866  0.00  0.00    +0.039 C 
BRANCH   3   9
ATOM      8  O   UNL     1      33.735 -22.532 -16.220  0.00  0.00    -0.275 OA
ATOM      9  N   UNL     1      32.180 -22.111 -17.941  0.00  0.00    -0.284 N 
ATOM     10  C   UNL     1      32.620 -22.639 -16.720  0.00  0.00    +0.227 C 
ATOM     11  C   UNL     1      31.528 -23.404 -16.014  0.00  0.00    +0.095 C 
ATOM     12  H   UNL     1      31.243 -22.300 -18.178  0.00  0.00    +0.155 HD
ENDBRANCH   3   9
ENDBRANCH   1   2
BRANCH   1  14
ATOM     13  O   UNL     1      35.325 -17.149 -20.347  0.00  0.00    -0.244 OA
ATOM     14  C   UNL     1      34.976 -17.721 -21.388  0.00  0.00    +0.349 C 
BRANCH  14  15
ATOM     15  C   UNL     1      34.411 -17.045 -22.547  0.00  0.00    +0.111 C 
ATOM     16  C   UNL     1      34.192 -15.667 -22.536  0.00  0.00    +0.155 C 
ATOM     17  C   UNL     1      34.091 -17.793 -23.679  0.00  0.00    +0.010 C 
ATOM     18  C   UNL     1      33.652 -15.037 -23.658  0.00  0.00    +0.038 C 
ATOM     19  C   UNL     1      33.550 -17.164 -24.801  0.00  0.00    +0.000 C 
ATOM     20  C   UNL     1      33.330 -15.786 -24.790  0.00  0.00    +0.003 C 
BRANCH  16  21
ATOM     21  O   UNL     1      34.499 -14.919 -21.440  0.00  0.00    -0.424 OA
BRANCH  21  23
ATOM     22  O   UNL     1      33.921 -12.693 -21.877  0.00  0.00    -0.250 OA
ATOM     23  C   UNL     1      33.723 -13.757 -21.305  0.00  0.00    +0.322 C 
ATOM     24  C   UNL     1      32.597 -14.001 -20.343  0.00  0.00    +0.122 C 
ENDBRANCH  21  23
ENDBRANCH  16  21
ENDBRANCH  14  15
ENDBRANCH   1  14
TORSDOF 6
ENDMDL
MODEL 4
REMARK VINA RESULT:     -10.9      1.849      3.115
REMARK  Name = 21102
REMARK  6 active torsions:
REMARK  status: ('A' for Active; 'I' for Inactive)
REMARK    1  A    between atoms: O_1  and  C_2
REMARK    2  A    between atoms: O_1  and  C_14
REMARK    3  A    between atoms: C_3  and  N_9
REMARK    4  A    between atoms: C_14  and  C_15
REMARK    5  A    between atoms: C_16  and  O_21
REMARK    6  A    between atoms: O_21  and  C_23
REMARK                            x       y       z     vdW  Elec       q    Type
REMARK                         _______ _______ _______ _____ _____    ______ ____
ROOT
ATOM      1  O   UNL     1      35.123 -17.522 -22.027  0.00  0.00    -0.421 OA
ENDROOT
BRANCH   1   2
ATOM      2  C   UNL     1      34.868 -18.614 -21.193  0.00  0.00    +0.149 C 
ATOM      3  C   UNL     1      34.364 -20.769 -19.554  0.00  0.00    +0.051 C 
ATOM      4  C   UNL     1      35.666 -20.290 -19.695  0.00  0.00    +0.018 C 
ATOM      5  C   UNL     1      33.317 -20.157 -20.243  0.00  0.00    +0.018 C 
ATOM      6  C   UNL     1      35.921 -19.198 -20.525  0.00  0.00    +0.039 C 
ATOM      7  C   UNL     1      33.572 -19.066 -21.074  0.00  0.00    +0.039 C 
BRANCH   3   9
ATOM      8  O   UNL     1      31.822 -21.640 -18.195  0.00  0.00    -0.275 OA
ATOM      9  N   UNL     1      34.109 -21.860 -18.723  0.00  0.00    -0.284 N 
ATOM     10  C   UNL     1      32.900 -22.219 -18.113  0.00  0.00    +0.227 C 
ATOM     11  C   UNL     1      33.041 -23.474 -17.288  0.00  0.00    +0.095 C 
ATOM     12  H   UNL     1      34.875 -22.452 -18.543  0.00  0.00    +0.155 HD
ENDBRANCH   3   9
ENDBRANCH   1   2
BRANCH   1  14
ATOM     13  O   UNL     1      34.578 -15.975 -20.370  0.00  0.00    -0.244 OA
ATOM     14  C   UNL     1      34.604 -16.318 -21.558  0.00  0.00    +0.349 C 
BRANCH  14  15
ATOM     15  C   UNL     1      34.076 -15.520 -22.656  0.00  0.00    +0.111 C 
ATOM     16  C   UNL     1      33.621 -14.219 -22.441  0.00  0.00    +0.155 C 
ATOM     17  C   UNL     1      34.031 -16.072 -23.936  0.00  0.00    +0.010 C 
ATOM     18  C   UNL     1      33.120 -13.469 -23.506  0.00  0.00    +0.038 C 
ATOM     19  C   UNL     1      33.530 -15.323 -25.001  0.00  0.00    +0.000 C 
ATOM     20  C   UNL     1      33.074 -14.022 -24.786  0.00  0.00    +0.003 C 
BRANCH  16  21
ATOM     21  O   UNL     1      33.657 -13.662 -21.198  0.00  0.00    -0.424 OA
BRANCH  21  23
ATOM     22  O   UNL     1      31.789 -14.220 -19.903  0.00  0.00    -0.250 OA
ATOM     23  C   UNL     1      32.391 -13.443 -20.632  0.00  0.00    +0.322 C 
ATOM     24  C   UNL     1      31.866 -12.102 -21.053  0.00  0.00    +0.122 C 
ENDBRANCH  21  23
ENDBRANCH  16  21
ENDBRANCH  14  15
ENDBRANCH   1  14
TORSDOF 6
ENDMDL
MODEL 5
REMARK VINA RESULT:     -10.6      3.481      8.971
REMARK  Name = 21102
REMARK  6 active torsions:
REMARK  status: ('A' for Active; 'I' for Inactive)
REMARK    1  A    between atoms: O_1  and  C_2
REMARK    2  A    between atoms: O_1  and  C_14
REMARK    3  A    between atoms: C_3  and  N_9
REMARK    4  A    between atoms: C_14  and  C_15
REMARK    5  A    between atoms: C_16  and  O_21
REMARK    6  A    between atoms: O_21  and  C_23
REMARK                            x       y       z     vdW  Elec       q    Type
REMARK                         _______ _______ _______ _____ _____    ______ ____
ROOT
ATOM      1  O   UNL     1      33.641 -23.103 -17.654  0.00  0.00    -0.421 OA
ENDROOT
BRANCH   1   2
ATOM      2  C   UNL     1      33.727 -22.050 -18.569  0.00  0.00    +0.149 C 
ATOM      3  C   UNL     1      33.896 -19.973 -20.369  0.00  0.00    +0.051 C 
ATOM      4  C   UNL     1      35.038 -20.701 -20.036  0.00  0.00    +0.018 C 
ATOM      5  C   UNL     1      32.669 -20.297 -19.791  0.00  0.00    +0.018 C 
ATOM      6  C   UNL     1      34.952 -21.753 -19.124  0.00  0.00    +0.039 C 
ATOM      7  C   UNL     1      32.583 -21.349 -18.879  0.00  0.00    +0.039 C 
BRANCH   3   9
ATOM      8  O   UNL     1      35.759 -17.610 -20.457  0.00  0.00    -0.275 OA
ATOM      9  N   UNL     1      33.982 -18.921 -21.281  0.00  0.00    -0.284 N 
ATOM     10  C   UNL     1      34.873 -17.840 -21.273  0.00  0.00    +0.227 C 
ATOM     11  C   UNL     1      34.639 -16.914 -22.440  0.00  0.00    +0.095 C 
ATOM     12  H   UNL     1      33.335 -18.941 -22.023  0.00  0.00    +0.155 HD
ENDBRANCH   3   9
ENDBRANCH   1   2
BRANCH   1  14
ATOM     13  O   UNL     1      32.887 -22.444 -15.547  0.00  0.00    -0.244 OA
ATOM     14  C   UNL     1      33.809 -22.715 -16.327  0.00  0.00    +0.349 C 
BRANCH  14  15
ATOM     15  C   UNL     1      35.222 -22.651 -15.981  0.00  0.00    +0.111 C 
ATOM     16  C   UNL     1      35.852 -23.722 -15.346  0.00  0.00    +0.155 C 
ATOM     17  C   UNL     1      35.946 -21.501 -16.293  0.00  0.00    +0.010 C 
ATOM     18  C   UNL     1      37.208 -23.643 -15.024  0.00  0.00    +0.038 C 
ATOM     19  C   UNL     1      37.301 -21.421 -15.971  0.00  0.00    +0.000 C 
ATOM     20  C   UNL     1      37.931 -22.492 -15.336  0.00  0.00    +0.003 C 
BRANCH  16  21
ATOM     21  O   UNL     1      35.163 -24.854 -15.033  0.00  0.00    -0.424 OA
BRANCH  21  23
ATOM     22  O   UNL     1      36.181 -26.766 -15.919  0.00  0.00    -0.250 OA
ATOM     23  C   UNL     1      35.955 -26.012 -14.983  0.00  0.00    +0.322 C 
ATOM     24  C   UNL     1      36.497 -26.202 -13.596  0.00  0.00    +0.122 C 
ENDBRANCH  21  23
ENDBRANCH  16  21
ENDBRANCH  14  15
ENDBRANCH   1  14
TORSDOF 6
ENDMDL
MODEL 6
REMARK VINA RESULT:     -10.6      2.475      8.823
REMARK  Name = 21102
REMARK  6 active torsions:
REMARK  status: ('A' for Active; 'I' for Inactive)
REMARK    1  A    between atoms: O_1  and  C_2
REMARK    2  A    between atoms: O_1  and  C_14
REMARK    3  A    between atoms: C_3  and  N_9
REMARK    4  A    between atoms: C_14  and  C_15
REMARK    5  A    between atoms: C_16  and  O_21
REMARK    6  A    between atoms: O_21  and  C_23
REMARK                            x       y       z     vdW  Elec       q    Type
REMARK                         _______ _______ _______ _____ _____    ______ ____
ROOT
ATOM      1  O   UNL     1      33.688 -22.840 -18.259  0.00  0.00    -0.421 OA
ENDROOT
BRANCH   1   2
ATOM      2  C   UNL     1      33.839 -21.756 -19.128  0.00  0.00    +0.149 C 
ATOM      3  C   UNL     1      34.138 -19.623 -20.843  0.00  0.00    +0.051 C 
ATOM      4  C   UNL     1      32.862 -20.040 -20.465  0.00  0.00    +0.018 C 
ATOM      5  C   UNL     1      35.263 -20.287 -20.353  0.00  0.00    +0.018 C 
ATOM      6  C   UNL     1      32.711 -21.121 -19.596  0.00  0.00    +0.039 C 
ATOM      7  C   UNL     1      35.112 -21.367 -19.484  0.00  0.00    +0.039 C 
BRANCH   3   9
ATOM      8  O   UNL     1      35.015 -16.793 -20.311  0.00  0.00    -0.275 OA
ATOM      9  N   UNL     1      34.289 -18.543 -21.713  0.00  0.00    -0.284 N 
ATOM     10  C   UNL     1      34.701 -17.239 -21.409  0.00  0.00    +0.227 C 
ATOM     11  C   UNL     1      34.734 -16.363 -22.637  0.00  0.00    +0.095 C 
ATOM     12  H   UNL     1      34.079 -18.719 -22.659  0.00  0.00    +0.155 HD
ENDBRANCH   3   9
ENDBRANCH   1   2
BRANCH   1  14
ATOM     13  O   UNL     1      31.769 -22.164 -17.120  0.00  0.00    -0.244 OA
ATOM     14  C   UNL     1      32.944 -22.552 -17.117  0.00  0.00    +0.349 C 
BRANCH  14  15
ATOM     15  C   UNL     1      33.741 -22.751 -15.915  0.00  0.00    +0.111 C 
ATOM     16  C   UNL     1      33.223 -23.442 -14.819  0.00  0.00    +0.155 C 
ATOM     17  C   UNL     1      35.038 -22.241 -15.869  0.00  0.00    +0.010 C 
ATOM     18  C   UNL     1      34.002 -23.624 -13.677  0.00  0.00    +0.038 C 
ATOM     19  C   UNL     1      35.818 -22.422 -14.726  0.00  0.00    +0.000 C 
ATOM     20  C   UNL     1      35.300 -23.113 -13.631  0.00  0.00    +0.003 C 
BRANCH  16  21
ATOM     21  O   UNL     1      31.958 -23.948 -14.845  0.00  0.00    -0.424 OA
BRANCH  21  23
ATOM     22  O   UNL     1      30.865 -22.110 -13.895  0.00  0.00    -0.250 OA
ATOM     23  C   UNL     1      31.070 -23.314 -13.962  0.00  0.00    +0.322 C 
ATOM     24  C   UNL     1      30.397 -24.335 -13.092  0.00  0.00    +0.122 C 
ENDBRANCH  21  23
ENDBRANCH  16  21
ENDBRANCH  14  15
ENDBRANCH   1  14
TORSDOF 6
ENDMDL
MODEL 7
REMARK VINA RESULT:     -10.5      2.865      8.701
REMARK  Name = 21102
REMARK  6 active torsions:
REMARK  status: ('A' for Active; 'I' for Inactive)
REMARK    1  A    between atoms: O_1  and  C_2
REMARK    2  A    between atoms: O_1  and  C_14
REMARK    3  A    between atoms: C_3  and  N_9
REMARK    4  A    between atoms: C_14  and  C_15
REMARK    5  A    between atoms: C_16  and  O_21
REMARK    6  A    between atoms: O_21  and  C_23
REMARK                            x       y       z     vdW  Elec       q    Type
REMARK                         _______ _______ _______ _____ _____    ______ ____
ROOT
ATOM      1  O   UNL     1      34.239 -22.520 -18.664  0.00  0.00    -0.421 OA
ENDROOT
BRANCH   1   2
ATOM      2  C   UNL     1      34.313 -21.370 -19.455  0.00  0.00    +0.149 C 
ATOM      3  C   UNL     1      34.457 -19.102 -21.010  0.00  0.00    +0.051 C 
ATOM      4  C   UNL     1      35.624 -19.682 -20.514  0.00  0.00    +0.018 C 
ATOM      5  C   UNL     1      33.217 -19.670 -20.718  0.00  0.00    +0.018 C 
ATOM      6  C   UNL     1      35.551 -20.831 -19.727  0.00  0.00    +0.039 C 
ATOM      7  C   UNL     1      33.144 -20.819 -19.931  0.00  0.00    +0.039 C 
BRANCH   3   9
ATOM      8  O   UNL     1      34.570 -16.198 -20.225  0.00  0.00    -0.275 OA
ATOM      9  N   UNL     1      34.530 -17.953 -21.797  0.00  0.00    -0.284 N 
ATOM     10  C   UNL     1      34.579 -16.617 -21.377  0.00  0.00    +0.227 C 
ATOM     11  C   UNL     1      34.654 -15.665 -22.545  0.00  0.00    +0.095 C 
ATOM     12  H   UNL     1      34.550 -18.099 -22.771  0.00  0.00    +0.155 HD
ENDBRANCH   3   9
ENDBRANCH   1   2
BRANCH   1  14
ATOM     13  O   UNL     1      32.472 -22.057 -17.215  0.00  0.00    -0.244 OA
ATOM     14  C   UNL     1      33.667 -22.310 -17.412  0.00  0.00    +0.349 C 
BRANCH  14  15
ATOM     15  C   UNL     1      34.669 -22.412 -16.361  0.00  0.00    +0.111 C 
ATOM     16  C   UNL     1      34.419 -23.149 -15.202  0.00  0.00    +0.155 C 
ATOM     17  C   UNL     1      35.892 -21.762 -16.524  0.00  0.00    +0.010 C 
ATOM     18  C   UNL     1      35.393 -23.235 -14.207  0.00  0.00    +0.038 C 
ATOM     19  C   UNL     1      36.866 -21.848 -15.529  0.00  0.00    +0.000 C 
ATOM     20  C   UNL     1      36.616 -22.584 -14.371  0.00  0.00    +0.003 C 
BRANCH  16  21
ATOM     21  O   UNL     1      33.231 -23.791 -15.024  0.00  0.00    -0.424 OA
BRANCH  21  23
ATOM     22  O   UNL     1      32.797 -24.034 -12.737  0.00  0.00    -0.250 OA
ATOM     23  C   UNL     1      32.592 -23.486 -13.812  0.00  0.00    +0.322 C 
ATOM     24  C   UNL     1      31.603 -22.377 -14.019  0.00  0.00    +0.122 C 
ENDBRANCH  21  23
ENDBRANCH  16  21
ENDBRANCH  14  15
ENDBRANCH   1  14
TORSDOF 6
ENDMDL
MODEL 8
REMARK VINA RESULT:     -10.5      5.031      9.053
REMARK  Name = 21102
REMARK  6 active torsions:
REMARK  status: ('A' for Active; 'I' for Inactive)
REMARK    1  A    between atoms: O_1  and  C_2
REMARK    2  A    between atoms: O_1  and  C_14
REMARK    3  A    between atoms: C_3  and  N_9
REMARK    4  A    between atoms: C_14  and  C_15
REMARK    5  A    between atoms: C_16  and  O_21
REMARK    6  A    between atoms: O_21  and  C_23
REMARK                            x       y       z     vdW  Elec       q    Type
REMARK                         _______ _______ _______ _____ _____    ______ ____
ROOT
ATOM      1  O   UNL     1      32.113 -13.456 -21.104  0.00  0.00    -0.421 OA
ENDROOT
BRANCH   1   2
ATOM      2  C   UNL     1      31.860 -12.082 -21.161  0.00  0.00    +0.149 C 
ATOM      3  C   UNL     1      31.365  -9.376 -21.269  0.00  0.00    +0.051 C 
ATOM      4  C   UNL     1      31.718 -10.067 -22.428  0.00  0.00    +0.018 C 
ATOM      5  C   UNL     1      31.263 -10.055 -20.056  0.00  0.00    +0.018 C 
ATOM      6  C   UNL     1      31.968 -11.438 -22.373  0.00  0.00    +0.039 C 
ATOM      7  C   UNL     1      31.514 -11.426 -20.000  0.00  0.00    +0.039 C 
BRANCH   3   9
ATOM      8  O   UNL     1      32.510  -7.112 -19.648  0.00  0.00    -0.275 OA
ATOM      9  N   UNL     1      31.114  -8.005 -21.325  0.00  0.00    -0.284 N 
ATOM     10  C   UNL     1      31.678  -6.990 -20.541  0.00  0.00    +0.227 C 
ATOM     11  C   UNL     1      31.140  -5.631 -20.914  0.00  0.00    +0.095 C 
ATOM     12  H   UNL     1      30.459  -7.714 -22.000  0.00  0.00    +0.155 HD
ENDBRANCH   3   9
ENDBRANCH   1   2
BRANCH   1  14
ATOM     13  O   UNL     1      34.342 -13.386 -20.423  0.00  0.00    -0.244 OA
ATOM     14  C   UNL     1      33.463 -13.787 -21.195  0.00  0.00    +0.349 C 
BRANCH  14  15
ATOM     15  C   UNL     1      33.706 -14.659 -22.336  0.00  0.00    +0.111 C 
ATOM     16  C   UNL     1      34.302 -15.909 -22.168  0.00  0.00    +0.155 C 
ATOM     17  C   UNL     1      33.334 -14.229 -23.610  0.00  0.00    +0.010 C 
ATOM     18  C   UNL     1      34.525 -16.730 -23.273  0.00  0.00    +0.038 C 
ATOM     19  C   UNL     1      33.559 -15.049 -24.716  0.00  0.00    +0.000 C 
ATOM     20  C   UNL     1      34.154 -16.299 -24.547  0.00  0.00    +0.003 C 
BRANCH  16  21
ATOM     21  O   UNL     1      34.671 -16.347 -20.932  0.00  0.00    -0.424 OA
BRANCH  21  23
ATOM     22  O   UNL     1      36.432 -17.886 -20.843  0.00  0.00    -0.250 OA
ATOM     23  C   UNL     1      35.239 -17.631 -20.926  0.00  0.00    +0.322 C 
ATOM     24  C   UNL     1      34.160 -18.668 -21.040  0.00  0.00    +0.122 C 
ENDBRANCH  21  23
ENDBRANCH  16  21
ENDBRANCH  14  15
ENDBRANCH   1  14
TORSDOF 6
ENDMDL
MODEL 9
REMARK VINA RESULT:     -10.4      3.603      8.662
REMARK  Name = 21102
REMARK  6 active torsions:
REMARK  status: ('A' for Active; 'I' for Inactive)
REMARK    1  A    between atoms: O_1  and  C_2
REMARK    2  A    between atoms: O_1  and  C_14
REMARK    3  A    between atoms: C_3  and  N_9
REMARK    4  A    between atoms: C_14  and  C_15
REMARK    5  A    between atoms: C_16  and  O_21
REMARK    6  A    between atoms: O_21  and  C_23
REMARK                            x       y       z     vdW  Elec       q    Type
REMARK                         _______ _______ _______ _____ _____    ______ ____
ROOT
ATOM      1  O   UNL     1      35.655 -21.509 -19.070  0.00  0.00    -0.421 OA
ENDROOT
BRANCH   1   2
ATOM      2  C   UNL     1      35.402 -20.388 -19.865  0.00  0.00    +0.149 C 
ATOM      3  C   UNL     1      34.902 -18.178 -21.429  0.00  0.00    +0.051 C 
ATOM      4  C   UNL     1      36.202 -18.451 -21.003  0.00  0.00    +0.018 C 
ATOM      5  C   UNL     1      33.856 -19.024 -21.063  0.00  0.00    +0.018 C 
ATOM      6  C   UNL     1      36.455 -19.571 -20.211  0.00  0.00    +0.039 C 
ATOM      7  C   UNL     1      34.109 -20.144 -20.271  0.00  0.00    +0.039 C 
BRANCH   3   9
ATOM      8  O   UNL     1      34.321 -15.327 -20.655  0.00  0.00    -0.275 OA
ATOM      9  N   UNL     1      34.649 -17.058 -22.221  0.00  0.00    -0.284 N 
ATOM     10  C   UNL     1      34.381 -15.747 -21.806  0.00  0.00    +0.227 C 
ATOM     11  C   UNL     1      34.162 -14.822 -22.977  0.00  0.00    +0.095 C 
ATOM     12  H   UNL     1      34.660 -17.207 -23.194  0.00  0.00    +0.155 HD
ENDBRANCH   3   9
ENDBRANCH   1   2
BRANCH   1  14
ATOM     13  O   UNL     1      36.705 -20.365 -17.329  0.00  0.00    -0.244 OA
ATOM     14  C   UNL     1      35.896 -21.211 -17.731  0.00  0.00    +0.349 C 
BRANCH  14  15
ATOM     15  C   UNL     1      35.078 -22.044 -16.859  0.00  0.00    +0.111 C 
ATOM     16  C   UNL     1      35.638 -22.694 -15.759  0.00  0.00    +0.155 C 
ATOM     17  C   UNL     1      33.719 -22.186 -17.137  0.00  0.00    +0.010 C 
ATOM     18  C   UNL     1      34.838 -23.487 -14.936  0.00  0.00    +0.038 C 
ATOM     19  C   UNL     1      32.919 -22.979 -16.314  0.00  0.00    +0.000 C 
ATOM     20  C   UNL     1      33.478 -23.629 -15.214  0.00  0.00    +0.003 C 
BRANCH  16  21
ATOM     21  O   UNL     1      36.963 -22.568 -15.472  0.00  0.00    -0.424 OA
BRANCH  21  23
ATOM     22  O   UNL     1      37.162 -22.545 -13.140  0.00  0.00    -0.250 OA
ATOM     23  C   UNL     1      37.330 -23.091 -14.221  0.00  0.00    +0.322 C 
ATOM     24  C   UNL     1      37.971 -24.437 -14.397  0.00  0.00    +0.122 C 
ENDBRANCH  21  23
ENDBRANCH  16  21
ENDBRANCH  14  15
ENDBRANCH   1  14
TORSDOF 6
ENDMDL
