MODEL 1
REMARK VINA RESULT:     -12.2      0.000      0.000
REMARK  Name = 5288679
REMARK  6 active torsions:
REMARK  status: ('A' for Active; 'I' for Inactive)
REMARK    1  A    between atoms: N_3  and  C_24
REMARK    2  A    between atoms: C_4  and  C_8
REMARK    3  A    between atoms: C_5  and  N_14
REMARK    4  A    between atoms: N_14  and  C_16
REMARK    5  A    between atoms: C_21  and  O_22
REMARK    6  A    between atoms: C_24  and  C_25
REMARK                            x       y       z     vdW  Elec       q    Type
REMARK                         _______ _______ _______ _____ _____    ______ ____
ROOT
ATOM      1  O   UNL     1      32.679 -23.165 -12.902  0.00  0.00    -0.269 OA
ATOM      2  O   UNL     1      35.669 -22.690 -16.358  0.00  0.00    -0.268 OA
ATOM      3  N   UNL     1      34.493 -22.929 -14.352  0.00  0.00    -0.217 N 
ATOM      4  C   UNL     1      32.418 -23.125 -15.286  0.00  0.00    +0.072 C 
ATOM      5  C   UNL     1      33.294 -22.987 -16.293  0.00  0.00    +0.107 C 
ATOM      6  C   UNL     1      33.179 -23.086 -14.012  0.00  0.00    +0.257 C 
ATOM      7  C   UNL     1      34.649 -22.848 -15.708  0.00  0.00    +0.269 C 
ENDROOT
BRANCH   4   8
ATOM      8  C   UNL     1      30.970 -23.307 -15.387  0.00  0.00    +0.006 C 
ATOM      9  C   UNL     1      30.352 -24.406 -14.779  0.00  0.00    +0.000 C 
ATOM     10  C   UNL     1      30.187 -22.386 -16.093  0.00  0.00    +0.000 C 
ATOM     11  C   UNL     1      28.971 -24.581 -14.874  0.00  0.00    +0.000 C 
ATOM     12  C   UNL     1      28.807 -22.562 -16.189  0.00  0.00    +0.000 C 
ATOM     13  C   UNL     1      28.198 -23.658 -15.580  0.00  0.00    +0.000 C 
ENDBRANCH   4   8
BRANCH   5  14
ATOM     14  N   UNL     1      33.141 -22.977 -17.639  0.00  0.00    -0.309 N 
ATOM     15  H   UNL     1      32.812 -23.815 -18.037  0.00  0.00    +0.152 HD
BRANCH  14  16
ATOM     16  C   UNL     1      33.390 -21.929 -18.544  0.00  0.00    +0.049 C 
ATOM     17  C   UNL     1      32.334 -21.153 -19.026  0.00  0.00    +0.018 C 
ATOM     18  C   UNL     1      34.694 -21.661 -18.964  0.00  0.00    +0.018 C 
ATOM     19  C   UNL     1      32.580 -20.115 -19.924  0.00  0.00    +0.038 C 
ATOM     20  C   UNL     1      34.941 -20.622 -19.863  0.00  0.00    +0.038 C 
ATOM     21  C   UNL     1      33.884 -19.849 -20.342  0.00  0.00    +0.139 C 
BRANCH  21  22
ATOM     22  O   UNL     1      34.125 -18.836 -21.218  0.00  0.00    -0.471 OA
ATOM     23  C   UNL     1      35.471 -18.375 -21.323  0.00  0.00    +0.252 C 
ENDBRANCH  21  22
ENDBRANCH  14  16
ENDBRANCH   5  14
BRANCH   3  24
ATOM     24  C   UNL     1      35.579 -22.833 -13.395  0.00  0.00    +0.128 C 
BRANCH  24  25
ATOM     25  C   UNL     1      36.526 -23.967 -13.598  0.00  0.00    -0.002 C 
ATOM     26  C   UNL     1      37.851 -23.715 -13.955  0.00  0.00    -0.003 C 
ATOM     27  C   UNL     1      36.087 -25.281 -13.432  0.00  0.00    -0.003 C 
ATOM     28  C   UNL     1      38.737 -24.776 -14.145  0.00  0.00    -0.000 C 
ATOM     29  C   UNL     1      36.972 -26.342 -13.623  0.00  0.00    -0.000 C 
ATOM     30  C   UNL     1      38.297 -26.090 -13.978  0.00  0.00    -0.000 C 
ENDBRANCH  24  25
ENDBRANCH   3  24
TORSDOF 6
ENDMDL
MODEL 2
REMARK VINA RESULT:     -10.8      2.068      7.449
REMARK  Name = 5288679
REMARK  6 active torsions:
REMARK  status: ('A' for Active; 'I' for Inactive)
REMARK    1  A    between atoms: N_3  and  C_24
REMARK    2  A    between atoms: C_4  and  C_8
REMARK    3  A    between atoms: C_5  and  N_14
REMARK    4  A    between atoms: N_14  and  C_16
REMARK    5  A    between atoms: C_21  and  O_22
REMARK    6  A    between atoms: C_24  and  C_25
REMARK                            x       y       z     vdW  Elec       q    Type
REMARK                         _______ _______ _______ _____ _____    ______ ____
ROOT
ATOM      1  O   UNL     1      31.348 -23.314 -17.017  0.00  0.00    -0.269 OA
ATOM      2  O   UNL     1      32.772 -23.847 -12.681  0.00  0.00    -0.268 OA
ATOM      3  N   UNL     1      31.702 -23.787 -14.759  0.00  0.00    -0.217 N 
ATOM      4  C   UNL     1      33.394 -22.758 -15.896  0.00  0.00    +0.072 C 
ATOM      5  C   UNL     1      33.808 -22.917 -14.629  0.00  0.00    +0.107 C 
ATOM      6  C   UNL     1      32.023 -23.316 -16.001  0.00  0.00    +0.257 C 
ATOM      7  C   UNL     1      32.718 -23.574 -13.869  0.00  0.00    +0.269 C 
ENDROOT
BRANCH   4   8
ATOM      8  C   UNL     1      34.142 -22.169 -17.007  0.00  0.00    +0.006 C 
ATOM      9  C   UNL     1      35.489 -21.824 -16.848  0.00  0.00    +0.000 C 
ATOM     10  C   UNL     1      33.518 -21.943 -18.240  0.00  0.00    +0.000 C 
ATOM     11  C   UNL     1      36.203 -21.262 -17.907  0.00  0.00    +0.000 C 
ATOM     12  C   UNL     1      34.232 -21.380 -19.298  0.00  0.00    +0.000 C 
ATOM     13  C   UNL     1      35.574 -21.040 -19.133  0.00  0.00    +0.000 C 
ENDBRANCH   4   8
BRANCH   5  14
ATOM     14  N   UNL     1      34.970 -22.611 -14.005  0.00  0.00    -0.309 N 
ATOM     15  H   UNL     1      35.041 -21.690 -13.663  0.00  0.00    +0.152 HD
BRANCH  14  16
ATOM     16  C   UNL     1      36.090 -23.431 -13.782  0.00  0.00    +0.049 C 
ATOM     17  C   UNL     1      36.380 -24.477 -14.662  0.00  0.00    +0.018 C 
ATOM     18  C   UNL     1      36.917 -23.205 -12.680  0.00  0.00    +0.018 C 
ATOM     19  C   UNL     1      37.491 -25.291 -14.441  0.00  0.00    +0.038 C 
ATOM     20  C   UNL     1      38.028 -24.020 -12.458  0.00  0.00    +0.038 C 
ATOM     21  C   UNL     1      38.315 -25.063 -13.339  0.00  0.00    +0.139 C 
BRANCH  21  22
ATOM     22  O   UNL     1      39.398 -25.857 -13.123  0.00  0.00    -0.471 OA
ATOM     23  C   UNL     1      40.347 -25.964 -14.183  0.00  0.00    +0.252 C 
ENDBRANCH  21  22
ENDBRANCH  14  16
ENDBRANCH   5  14
BRANCH   3  24
ATOM     24  C   UNL     1      30.435 -24.408 -14.422  0.00  0.00    +0.128 C 
BRANCH  24  25
ATOM     25  C   UNL     1      29.319 -23.628 -15.031  0.00  0.00    -0.002 C 
ATOM     26  C   UNL     1      28.536 -24.197 -16.035  0.00  0.00    -0.003 C 
ATOM     27  C   UNL     1      29.058 -22.328 -14.597  0.00  0.00    -0.003 C 
ATOM     28  C   UNL     1      27.492 -23.468 -16.605  0.00  0.00    -0.000 C 
ATOM     29  C   UNL     1      28.014 -21.598 -15.166  0.00  0.00    -0.000 C 
ATOM     30  C   UNL     1      27.231 -22.168 -16.170  0.00  0.00    -0.000 C 
ENDBRANCH  24  25
ENDBRANCH   3  24
TORSDOF 6
ENDMDL
MODEL 3
REMARK VINA RESULT:     -10.7      1.772      5.279
REMARK  Name = 5288679
REMARK  6 active torsions:
REMARK  status: ('A' for Active; 'I' for Inactive)
REMARK    1  A    between atoms: N_3  and  C_24
REMARK    2  A    between atoms: C_4  and  C_8
REMARK    3  A    between atoms: C_5  and  N_14
REMARK    4  A    between atoms: N_14  and  C_16
REMARK    5  A    between atoms: C_21  and  O_22
REMARK    6  A    between atoms: C_24  and  C_25
REMARK                            x       y       z     vdW  Elec       q    Type
REMARK                         _______ _______ _______ _____ _____    ______ ____
ROOT
ATOM      1  O   UNL     1      36.985 -21.038 -16.220  0.00  0.00    -0.269 OA
ATOM      2  O   UNL     1      34.416 -24.062 -13.902  0.00  0.00    -0.268 OA
ATOM      3  N   UNL     1      35.969 -22.527 -14.736  0.00  0.00    -0.217 N 
ATOM      4  C   UNL     1      34.888 -22.100 -16.701  0.00  0.00    +0.072 C 
ATOM      5  C   UNL     1      34.139 -22.982 -16.021  0.00  0.00    +0.107 C 
ATOM      6  C   UNL     1      36.087 -21.793 -15.883  0.00  0.00    +0.257 C 
ATOM      7  C   UNL     1      34.829 -23.282 -14.745  0.00  0.00    +0.269 C 
ENDROOT
BRANCH   4   8
ATOM      8  C   UNL     1      34.595 -21.506 -18.007  0.00  0.00    +0.006 C 
ATOM      9  C   UNL     1      35.635 -21.039 -18.819  0.00  0.00    +0.000 C 
ATOM     10  C   UNL     1      33.274 -21.397 -18.456  0.00  0.00    +0.000 C 
ATOM     11  C   UNL     1      35.358 -20.472 -20.063  0.00  0.00    +0.000 C 
ATOM     12  C   UNL     1      32.997 -20.830 -19.699  0.00  0.00    +0.000 C 
ATOM     13  C   UNL     1      34.038 -20.368 -20.504  0.00  0.00    +0.000 C 
ENDBRANCH   4   8
BRANCH   5  14
ATOM     14  N   UNL     1      32.950 -23.568 -16.294  0.00  0.00    -0.309 N 
ATOM     15  H   UNL     1      32.992 -24.375 -16.857  0.00  0.00    +0.152 HD
BRANCH  14  16
ATOM     16  C   UNL     1      31.662 -23.179 -15.883  0.00  0.00    +0.049 C 
ATOM     17  C   UNL     1      31.218 -23.478 -14.594  0.00  0.00    +0.018 C 
ATOM     18  C   UNL     1      30.823 -22.492 -16.763  0.00  0.00    +0.018 C 
ATOM     19  C   UNL     1      29.941 -23.092 -14.185  0.00  0.00    +0.038 C 
ATOM     20  C   UNL     1      29.546 -22.106 -16.354  0.00  0.00    +0.038 C 
ATOM     21  C   UNL     1      29.105 -22.407 -15.066  0.00  0.00    +0.139 C 
BRANCH  21  22
ATOM     22  O   UNL     1      27.859 -22.030 -14.668  0.00  0.00    -0.471 OA
ATOM     23  C   UNL     1      26.843 -21.988 -15.668  0.00  0.00    +0.252 C 
ENDBRANCH  21  22
ENDBRANCH  14  16
ENDBRANCH   5  14
BRANCH   3  24
ATOM     24  C   UNL     1      36.944 -22.526 -13.661  0.00  0.00    +0.128 C 
BRANCH  24  25
ATOM     25  C   UNL     1      37.876 -23.677 -13.831  0.00  0.00    -0.002 C 
ATOM     26  C   UNL     1      37.861 -24.729 -12.915  0.00  0.00    -0.003 C 
ATOM     27  C   UNL     1      38.766 -23.702 -14.906  0.00  0.00    -0.003 C 
ATOM     28  C   UNL     1      38.734 -25.806 -13.073  0.00  0.00    -0.000 C 
ATOM     29  C   UNL     1      39.639 -24.779 -15.064  0.00  0.00    -0.000 C 
ATOM     30  C   UNL     1      39.622 -25.831 -14.149  0.00  0.00    -0.000 C 
ENDBRANCH  24  25
ENDBRANCH   3  24
TORSDOF 6
ENDMDL
MODEL 4
REMARK VINA RESULT:     -10.7      1.917      6.864
REMARK  Name = 5288679
REMARK  6 active torsions:
REMARK  status: ('A' for Active; 'I' for Inactive)
REMARK    1  A    between atoms: N_3  and  C_24
REMARK    2  A    between atoms: C_4  and  C_8
REMARK    3  A    between atoms: C_5  and  N_14
REMARK    4  A    between atoms: N_14  and  C_16
REMARK    5  A    between atoms: C_21  and  O_22
REMARK    6  A    between atoms: C_24  and  C_25
REMARK                            x       y       z     vdW  Elec       q    Type
REMARK                         _______ _______ _______ _____ _____    ______ ____
ROOT
ATOM      1  O   UNL     1      32.022 -22.041 -19.007  0.00  0.00    -0.269 OA
ATOM      2  O   UNL     1      36.493 -21.813 -17.970  0.00  0.00    -0.268 OA
ATOM      3  N   UNL     1      34.345 -21.834 -18.891  0.00  0.00    -0.217 N 
ATOM      4  C   UNL     1      33.225 -22.214 -16.938  0.00  0.00    +0.072 C 
ATOM      5  C   UNL     1      34.531 -22.146 -16.638  0.00  0.00    +0.107 C 
ATOM      6  C   UNL     1      33.082 -22.017 -18.402  0.00  0.00    +0.257 C 
ATOM      7  C   UNL     1      35.279 -21.910 -17.896  0.00  0.00    +0.269 C 
ENDROOT
BRANCH   4   8
ATOM      8  C   UNL     1      32.110 -22.420 -16.012  0.00  0.00    +0.006 C 
ATOM      9  C   UNL     1      30.792 -22.426 -16.484  0.00  0.00    +0.000 C 
ATOM     10  C   UNL     1      32.350 -22.611 -14.646  0.00  0.00    +0.000 C 
ATOM     11  C   UNL     1      29.729 -22.622 -15.602  0.00  0.00    +0.000 C 
ATOM     12  C   UNL     1      31.287 -22.806 -13.765  0.00  0.00    +0.000 C 
ATOM     13  C   UNL     1      29.976 -22.813 -14.242  0.00  0.00    +0.000 C 
ENDBRANCH   4   8
BRANCH   5  14
ATOM     14  N   UNL     1      35.202 -22.233 -15.465  0.00  0.00    -0.309 N 
ATOM     15  H   UNL     1      35.036 -21.505 -14.824  0.00  0.00    +0.152 HD
BRANCH  14  16
ATOM     16  C   UNL     1      36.105 -23.225 -15.041  0.00  0.00    +0.049 C 
ATOM     17  C   UNL     1      37.478 -22.966 -15.034  0.00  0.00    +0.018 C 
ATOM     18  C   UNL     1      35.634 -24.472 -14.627  0.00  0.00    +0.018 C 
ATOM     19  C   UNL     1      38.374 -23.948 -14.614  0.00  0.00    +0.038 C 
ATOM     20  C   UNL     1      36.531 -25.455 -14.207  0.00  0.00    +0.038 C 
ATOM     21  C   UNL     1      37.900 -25.193 -14.201  0.00  0.00    +0.139 C 
BRANCH  21  22
ATOM     22  O   UNL     1      38.774 -26.153 -13.791  0.00  0.00    -0.471 OA
ATOM     23  C   UNL     1      40.160 -25.916 -14.034  0.00  0.00    +0.252 C 
ENDBRANCH  21  22
ENDBRANCH  14  16
ENDBRANCH   5  14
BRANCH   3  24
ATOM     24  C   UNL     1      34.655 -21.616 -20.292  0.00  0.00    +0.128 C 
BRANCH  24  25
ATOM     25  C   UNL     1      34.860 -20.160 -20.537  0.00  0.00    -0.002 C 
ATOM     26  C   UNL     1      33.769 -19.340 -20.826  0.00  0.00    -0.003 C 
ATOM     27  C   UNL     1      36.143 -19.615 -20.478  0.00  0.00    -0.003 C 
ATOM     28  C   UNL     1      33.959 -17.978 -21.056  0.00  0.00    -0.000 C 
ATOM     29  C   UNL     1      36.335 -18.253 -20.708  0.00  0.00    -0.000 C 
ATOM     30  C   UNL     1      35.243 -17.434 -20.996  0.00  0.00    -0.000 C 
ENDBRANCH  24  25
ENDBRANCH   3  24
TORSDOF 6
ENDMDL
MODEL 5
REMARK VINA RESULT:     -10.0     11.686     16.287
REMARK  Name = 5288679
REMARK  6 active torsions:
REMARK  status: ('A' for Active; 'I' for Inactive)
REMARK    1  A    between atoms: N_3  and  C_24
REMARK    2  A    between atoms: C_4  and  C_8
REMARK    3  A    between atoms: C_5  and  N_14
REMARK    4  A    between atoms: N_14  and  C_16
REMARK    5  A    between atoms: C_21  and  O_22
REMARK    6  A    between atoms: C_24  and  C_25
REMARK                            x       y       z     vdW  Elec       q    Type
REMARK                         _______ _______ _______ _____ _____    ______ ____
ROOT
ATOM      1  O   UNL     1      30.070  -9.875 -21.867  0.00  0.00    -0.269 OA
ATOM      2  O   UNL     1      34.065 -10.579 -24.026  0.00  0.00    -0.268 OA
ATOM      3  N   UNL     1      31.949 -10.623 -23.034  0.00  0.00    -0.217 N 
ATOM      4  C   UNL     1      31.919  -8.435 -22.381  0.00  0.00    +0.072 C 
ATOM      5  C   UNL     1      33.084  -8.643 -23.014  0.00  0.00    +0.107 C 
ATOM      6  C   UNL     1      31.165  -9.714 -22.380  0.00  0.00    +0.257 C 
ATOM      7  C   UNL     1      33.129 -10.063 -23.437  0.00  0.00    +0.269 C 
ENDROOT
BRANCH   4   8
ATOM      8  C   UNL     1      31.433  -7.181 -21.805  0.00  0.00    +0.006 C 
ATOM      9  C   UNL     1      30.473  -6.418 -22.480  0.00  0.00    +0.000 C 
ATOM     10  C   UNL     1      31.923  -6.730 -20.574  0.00  0.00    +0.000 C 
ATOM     11  C   UNL     1      30.009  -5.222 -21.932  0.00  0.00    +0.000 C 
ATOM     12  C   UNL     1      31.460  -5.534 -20.026  0.00  0.00    +0.000 C 
ATOM     13  C   UNL     1      30.502  -4.780 -20.704  0.00  0.00    +0.000 C 
ENDBRANCH   4   8
BRANCH   5  14
ATOM     14  N   UNL     1      34.119  -7.822 -23.310  0.00  0.00    -0.309 N 
ATOM     15  H   UNL     1      34.987  -8.071 -22.918  0.00  0.00    +0.152 HD
BRANCH  14  16
ATOM     16  C   UNL     1      34.120  -6.660 -24.102  0.00  0.00    +0.049 C 
ATOM     17  C   UNL     1      34.537  -6.719 -25.434  0.00  0.00    +0.018 C 
ATOM     18  C   UNL     1      33.705  -5.442 -23.561  0.00  0.00    +0.018 C 
ATOM     19  C   UNL     1      34.538  -5.567 -26.220  0.00  0.00    +0.038 C 
ATOM     20  C   UNL     1      33.706  -4.289 -24.347  0.00  0.00    +0.038 C 
ATOM     21  C   UNL     1      34.123  -4.352 -25.676  0.00  0.00    +0.139 C 
BRANCH  21  22
ATOM     22  O   UNL     1      34.124  -3.227 -26.443  0.00  0.00    -0.471 OA
ATOM     23  C   UNL     1      33.168  -2.220 -26.118  0.00  0.00    +0.252 C 
ENDBRANCH  21  22
ENDBRANCH  14  16
ENDBRANCH   5  14
BRANCH   3  24
ATOM     24  C   UNL     1      31.586 -12.011 -23.247  0.00  0.00    +0.128 C 
BRANCH  24  25
ATOM     25  C   UNL     1      32.277 -12.869 -22.243  0.00  0.00    -0.002 C 
ATOM     26  C   UNL     1      33.339 -13.684 -22.634  0.00  0.00    -0.003 C 
ATOM     27  C   UNL     1      31.862 -12.857 -20.911  0.00  0.00    -0.003 C 
ATOM     28  C   UNL     1      33.987 -14.487 -21.694  0.00  0.00    -0.000 C 
ATOM     29  C   UNL     1      32.508 -13.660 -19.971  0.00  0.00    -0.000 C 
ATOM     30  C   UNL     1      33.571 -14.475 -20.362  0.00  0.00    -0.000 C 
ENDBRANCH  24  25
ENDBRANCH   3  24
TORSDOF 6
ENDMDL
MODEL 6
REMARK VINA RESULT:      -9.5      1.816      5.332
REMARK  Name = 5288679
REMARK  6 active torsions:
REMARK  status: ('A' for Active; 'I' for Inactive)
REMARK    1  A    between atoms: N_3  and  C_24
REMARK    2  A    between atoms: C_4  and  C_8
REMARK    3  A    between atoms: C_5  and  N_14
REMARK    4  A    between atoms: N_14  and  C_16
REMARK    5  A    between atoms: C_21  and  O_22
REMARK    6  A    between atoms: C_24  and  C_25
REMARK                            x       y       z     vdW  Elec       q    Type
REMARK                         _______ _______ _______ _____ _____    ______ ____
ROOT
ATOM      1  O   UNL     1      37.047 -21.152 -17.000  0.00  0.00    -0.269 OA
ATOM      2  O   UNL     1      34.704 -24.285 -14.590  0.00  0.00    -0.268 OA
ATOM      3  N   UNL     1      36.193 -22.740 -15.517  0.00  0.00    -0.217 N 
ATOM      4  C   UNL     1      34.843 -22.071 -17.233  0.00  0.00    +0.072 C 
ATOM      5  C   UNL     1      34.161 -22.985 -16.526  0.00  0.00    +0.107 C 
ATOM      6  C   UNL     1      36.172 -21.899 -16.594  0.00  0.00    +0.257 C 
ATOM      7  C   UNL     1      35.024 -23.442 -15.412  0.00  0.00    +0.269 C 
ENDROOT
BRANCH   4   8
ATOM      8  C   UNL     1      34.385 -21.336 -18.413  0.00  0.00    +0.006 C 
ATOM      9  C   UNL     1      33.016 -21.199 -18.671  0.00  0.00    +0.000 C 
ATOM     10  C   UNL     1      35.309 -20.765 -19.295  0.00  0.00    +0.000 C 
ATOM     11  C   UNL     1      32.577 -20.499 -19.796  0.00  0.00    +0.000 C 
ATOM     12  C   UNL     1      34.871 -20.066 -20.420  0.00  0.00    +0.000 C 
ATOM     13  C   UNL     1      33.505 -19.932 -20.670  0.00  0.00    +0.000 C 
ENDBRANCH   4   8
BRANCH   5  14
ATOM     14  N   UNL     1      32.912 -23.492 -16.658  0.00  0.00    -0.309 N 
ATOM     15  H   UNL     1      32.836 -24.301 -17.214  0.00  0.00    +0.152 HD
BRANCH  14  16
ATOM     16  C   UNL     1      31.708 -23.016 -16.108  0.00  0.00    +0.049 C 
ATOM     17  C   UNL     1      31.610 -22.781 -14.734  0.00  0.00    +0.018 C 
ATOM     18  C   UNL     1      30.607 -22.777 -16.932  0.00  0.00    +0.018 C 
ATOM     19  C   UNL     1      30.417 -22.308 -14.188  0.00  0.00    +0.038 C 
ATOM     20  C   UNL     1      29.412 -22.305 -16.385  0.00  0.00    +0.038 C 
ATOM     21  C   UNL     1      29.318 -22.071 -15.014  0.00  0.00    +0.139 C 
BRANCH  21  22
ATOM     22  O   UNL     1      28.153 -21.611 -14.482  0.00  0.00    -0.471 OA
ATOM     23  C   UNL     1      26.954 -21.892 -15.202  0.00  0.00    +0.252 C 
ENDBRANCH  21  22
ENDBRANCH  14  16
ENDBRANCH   5  14
BRANCH   3  24
ATOM     24  C   UNL     1      37.322 -22.888 -14.618  0.00  0.00    +0.128 C 
BRANCH  24  25
ATOM     25  C   UNL     1      36.849 -23.410 -13.304  0.00  0.00    -0.002 C 
ATOM     26  C   UNL     1      36.123 -22.586 -12.445  0.00  0.00    -0.003 C 
ATOM     27  C   UNL     1      37.133 -24.725 -12.932  0.00  0.00    -0.003 C 
ATOM     28  C   UNL     1      35.680 -23.073 -11.215  0.00  0.00    -0.000 C 
ATOM     29  C   UNL     1      36.691 -25.214 -11.702  0.00  0.00    -0.000 C 
ATOM     30  C   UNL     1      35.964 -24.388 -10.844  0.00  0.00    -0.000 C 
ENDBRANCH  24  25
ENDBRANCH   3  24
TORSDOF 6
ENDMDL
