MODEL 1
REMARK VINA RESULT:     -11.0      0.000      0.000
REMARK  Name = 9952125
REMARK  8 active torsions:
REMARK  status: ('A' for Active; 'I' for Inactive)
REMARK    1  A    between atoms: C_5  and  C_12
REMARK    2  A    between atoms: C_6  and  O_22
REMARK    3  A    between atoms: C_10  and  O_24
REMARK    4  A    between atoms: C_15  and  O_18
REMARK    5  A    between atoms: C_16  and  O_20
REMARK    6  A    between atoms: O_24  and  C_25
REMARK    7  A    between atoms: C_25  and  C_27
REMARK    8  A    between atoms: C_27  and  O_28
REMARK                            x       y       z     vdW  Elec       q    Type
REMARK                         _______ _______ _______ _____ _____    ______ ____
ROOT
ATOM      1  O   UNL     1      33.329 -13.237 -22.016  0.00  0.00    -0.453 OA
ATOM      2  O   UNL     1      32.859 -14.734 -25.776  0.00  0.00    -0.286 OA
ATOM      3  C   UNL     1      33.608 -15.089 -23.563  0.00  0.00    +0.108 C 
ATOM      4  C   UNL     1      33.738 -14.515 -22.299  0.00  0.00    +0.154 C 
ATOM      5  C   UNL     1      32.770 -12.482 -23.036  0.00  0.00    +0.149 C 
ATOM      6  C   UNL     1      34.041 -16.396 -23.794  0.00  0.00    +0.148 C 
ATOM      7  C   UNL     1      33.007 -14.293 -24.645  0.00  0.00    +0.205 C 
ATOM      8  C   UNL     1      32.585 -12.923 -24.290  0.00  0.00    +0.080 C 
ATOM      9  C   UNL     1      34.303 -15.249 -21.256  0.00  0.00    +0.075 C 
ATOM     10  C   UNL     1      34.737 -16.555 -21.482  0.00  0.00    +0.145 C 
ATOM     11  C   UNL     1      34.606 -17.127 -22.749  0.00  0.00    +0.074 C 
ENDROOT
BRANCH   5  12
ATOM     12  C   UNL     1      32.361 -11.124 -22.622  0.00  0.00    +0.038 C 
ATOM     13  C   UNL     1      31.645 -10.937 -21.437  0.00  0.00    +0.043 C 
ATOM     14  C   UNL     1      32.688 -10.021 -23.414  0.00  0.00    +0.006 C 
ATOM     15  C   UNL     1      31.259  -9.655 -21.046  0.00  0.00    +0.172 C 
ATOM     16  C   UNL     1      31.588  -8.555 -21.840  0.00  0.00    +0.172 C 
ATOM     17  C   UNL     1      32.303  -8.738 -23.023  0.00  0.00    +0.040 C 
BRANCH  15  18
ATOM     18  O   UNL     1      30.560  -9.488 -19.889  0.00  0.00    -0.468 OA
ATOM     19  C   UNL     1      31.262  -9.719 -18.669  0.00  0.00    +0.253 C 
ENDBRANCH  15  18
BRANCH  16  20
ATOM     20  O   UNL     1      31.218  -7.298 -21.467  0.00  0.00    -0.468 OA
ATOM     21  C   UNL     1      32.173  -6.533 -20.734  0.00  0.00    +0.253 C 
ENDBRANCH  16  20
ENDBRANCH   5  12
BRANCH   6  22
ATOM     22  O   UNL     1      33.933 -17.001 -25.009  0.00  0.00    -0.471 OA
ATOM     23  C   UNL     1      33.168 -18.203 -25.070  0.00  0.00    +0.252 C 
ENDBRANCH   6  22
BRANCH  10  24
ATOM     24  O   UNL     1      35.290 -17.272 -20.466  0.00  0.00    -0.464 OA
BRANCH  24  25
ATOM     25  C   UNL     1      35.961 -18.483 -20.815  0.00  0.00    +0.314 C 
BRANCH  25  27
ATOM     26  O   UNL     1      34.050 -19.978 -20.692  0.00  0.00    -0.246 OA
ATOM     27  C   UNL     1      35.171 -19.663 -20.322  0.00  0.00    +0.359 C 
BRANCH  27  28
ATOM     28  O   UNL     1      35.882 -20.346 -19.390  0.00  0.00    -0.478 OA
ATOM     29  H   UNL     1      36.803 -20.478 -19.507  0.00  0.00    +0.295 HD
ENDBRANCH  27  28
ENDBRANCH  25  27
ENDBRANCH  24  25
ENDBRANCH  10  24
TORSDOF 8
ENDMDL
MODEL 2
REMARK VINA RESULT:     -10.9      0.705      1.700
REMARK  Name = 9952125
REMARK  8 active torsions:
REMARK  status: ('A' for Active; 'I' for Inactive)
REMARK    1  A    between atoms: C_5  and  C_12
REMARK    2  A    between atoms: C_6  and  O_22
REMARK    3  A    between atoms: C_10  and  O_24
REMARK    4  A    between atoms: C_15  and  O_18
REMARK    5  A    between atoms: C_16  and  O_20
REMARK    6  A    between atoms: O_24  and  C_25
REMARK    7  A    between atoms: C_25  and  C_27
REMARK    8  A    between atoms: C_27  and  O_28
REMARK                            x       y       z     vdW  Elec       q    Type
REMARK                         _______ _______ _______ _____ _____    ______ ____
ROOT
ATOM      1  O   UNL     1      33.249 -13.124 -21.917  0.00  0.00    -0.453 OA
ATOM      2  O   UNL     1      32.806 -14.539 -25.711  0.00  0.00    -0.286 OA
ATOM      3  C   UNL     1      33.552 -14.937 -23.505  0.00  0.00    +0.108 C 
ATOM      4  C   UNL     1      33.673 -14.391 -22.227  0.00  0.00    +0.154 C 
ATOM      5  C   UNL     1      32.684 -12.351 -22.920  0.00  0.00    +0.149 C 
ATOM      6  C   UNL     1      34.000 -16.234 -23.764  0.00  0.00    +0.148 C 
ATOM      7  C   UNL     1      32.945 -14.123 -24.570  0.00  0.00    +0.205 C 
ATOM      8  C   UNL     1      32.508 -12.766 -24.185  0.00  0.00    +0.080 C 
ATOM      9  C   UNL     1      34.242 -15.142 -21.199  0.00  0.00    +0.075 C 
ATOM     10  C   UNL     1      34.692 -16.438 -21.454  0.00  0.00    +0.145 C 
ATOM     11  C   UNL     1      34.570 -16.982 -22.734  0.00  0.00    +0.074 C 
ENDROOT
BRANCH   5  12
ATOM     12  C   UNL     1      32.259 -11.008 -22.476  0.00  0.00    +0.038 C 
ATOM     13  C   UNL     1      32.673  -9.873 -23.177  0.00  0.00    +0.043 C 
ATOM     14  C   UNL     1      31.442 -10.868 -21.352  0.00  0.00    +0.006 C 
ATOM     15  C   UNL     1      32.272  -8.605 -22.758  0.00  0.00    +0.172 C 
ATOM     16  C   UNL     1      31.455  -8.468 -21.635  0.00  0.00    +0.172 C 
ATOM     17  C   UNL     1      31.039  -9.599 -20.933  0.00  0.00    +0.040 C 
BRANCH  15  18
ATOM     18  O   UNL     1      32.684  -7.507 -23.451  0.00  0.00    -0.468 OA
ATOM     19  C   UNL     1      33.991  -7.012 -23.163  0.00  0.00    +0.253 C 
ENDBRANCH  15  18
BRANCH  16  20
ATOM     20  O   UNL     1      31.054  -7.235 -21.217  0.00  0.00    -0.468 OA
ATOM     21  C   UNL     1      31.703  -6.700 -20.065  0.00  0.00    +0.253 C 
ENDBRANCH  16  20
ENDBRANCH   5  12
BRANCH   6  22
ATOM     22  O   UNL     1      33.902 -16.812 -24.993  0.00  0.00    -0.471 OA
ATOM     23  C   UNL     1      33.151 -18.021 -25.083  0.00  0.00    +0.252 C 
ENDBRANCH   6  22
BRANCH  10  24
ATOM     24  O   UNL     1      35.250 -17.172 -20.453  0.00  0.00    -0.464 OA
BRANCH  24  25
ATOM     25  C   UNL     1      35.930 -18.370 -20.827  0.00  0.00    +0.314 C 
BRANCH  25  27
ATOM     26  O   UNL     1      34.041 -19.895 -20.747  0.00  0.00    -0.246 OA
ATOM     27  C   UNL     1      35.150 -19.566 -20.357  0.00  0.00    +0.359 C 
BRANCH  27  28
ATOM     28  O   UNL     1      35.858 -20.247 -19.420  0.00  0.00    -0.478 OA
ATOM     29  H   UNL     1      36.752 -20.021 -19.252  0.00  0.00    +0.295 HD
ENDBRANCH  27  28
ENDBRANCH  25  27
ENDBRANCH  24  25
ENDBRANCH  10  24
TORSDOF 8
ENDMDL
MODEL 3
REMARK VINA RESULT:     -10.8      4.160      8.643
REMARK  Name = 9952125
REMARK  8 active torsions:
REMARK  status: ('A' for Active; 'I' for Inactive)
REMARK    1  A    between atoms: C_5  and  C_12
REMARK    2  A    between atoms: C_6  and  O_22
REMARK    3  A    between atoms: C_10  and  O_24
REMARK    4  A    between atoms: C_15  and  O_18
REMARK    5  A    between atoms: C_16  and  O_20
REMARK    6  A    between atoms: O_24  and  C_25
REMARK    7  A    between atoms: C_25  and  C_27
REMARK    8  A    between atoms: C_27  and  O_28
REMARK                            x       y       z     vdW  Elec       q    Type
REMARK                         _______ _______ _______ _____ _____    ______ ____
ROOT
ATOM      1  O   UNL     1      35.168 -20.136 -19.461  0.00  0.00    -0.453 OA
ATOM      2  O   UNL     1      31.707 -22.000 -18.394  0.00  0.00    -0.286 OA
ATOM      3  C   UNL     1      34.007 -21.665 -17.973  0.00  0.00    +0.108 C 
ATOM      4  C   UNL     1      35.155 -20.994 -18.391  0.00  0.00    +0.154 C 
ATOM      5  C   UNL     1      33.987 -19.935 -20.160  0.00  0.00    +0.149 C 
ATOM      6  C   UNL     1      34.053 -22.527 -16.875  0.00  0.00    +0.148 C 
ATOM      7  C   UNL     1      32.751 -21.447 -18.708  0.00  0.00    +0.205 C 
ATOM      8  C   UNL     1      32.818 -20.517 -19.852  0.00  0.00    +0.080 C 
ATOM      9  C   UNL     1      36.359 -21.181 -17.711  0.00  0.00    +0.075 C 
ATOM     10  C   UNL     1      36.408 -22.042 -16.614  0.00  0.00    +0.145 C 
ATOM     11  C   UNL     1      35.258 -22.713 -16.197  0.00  0.00    +0.074 C 
ENDROOT
BRANCH   5  12
ATOM     12  C   UNL     1      34.112 -18.990 -21.289  0.00  0.00    +0.038 C 
ATOM     13  C   UNL     1      34.418 -17.648 -21.051  0.00  0.00    +0.043 C 
ATOM     14  C   UNL     1      33.923 -19.434 -22.600  0.00  0.00    +0.006 C 
ATOM     15  C   UNL     1      34.536 -16.756 -22.116  0.00  0.00    +0.172 C 
ATOM     16  C   UNL     1      34.347 -17.204 -23.424  0.00  0.00    +0.172 C 
ATOM     17  C   UNL     1      34.041 -18.543 -23.666  0.00  0.00    +0.040 C 
BRANCH  15  18
ATOM     18  O   UNL     1      34.835 -15.450 -21.868  0.00  0.00    -0.468 OA
ATOM     19  C   UNL     1      33.890 -14.704 -21.103  0.00  0.00    +0.253 C 
ENDBRANCH  15  18
BRANCH  16  20
ATOM     20  O   UNL     1      34.462 -16.342 -24.473  0.00  0.00    -0.468 OA
ATOM     21  C   UNL     1      33.325 -15.536 -24.776  0.00  0.00    +0.253 C 
ENDBRANCH  16  20
ENDBRANCH   5  12
BRANCH   6  22
ATOM     22  O   UNL     1      32.958 -23.202 -16.427  0.00  0.00    -0.471 OA
ATOM     23  C   UNL     1      32.663 -23.107 -15.035  0.00  0.00    +0.252 C 
ENDBRANCH   6  22
BRANCH  10  24
ATOM     24  O   UNL     1      37.582 -22.227 -15.950  0.00  0.00    -0.464 OA
BRANCH  24  25
ATOM     25  C   UNL     1      37.527 -22.959 -14.726  0.00  0.00    +0.314 C 
BRANCH  25  27
ATOM     26  O   UNL     1      39.676 -24.087 -14.628  0.00  0.00    -0.246 OA
ATOM     27  C   UNL     1      38.467 -24.131 -14.791  0.00  0.00    +0.359 C 
BRANCH  27  28
ATOM     28  O   UNL     1      37.778 -25.269 -15.060  0.00  0.00    -0.478 OA
ATOM     29  H   UNL     1      37.509 -25.457 -15.938  0.00  0.00    +0.295 HD
ENDBRANCH  27  28
ENDBRANCH  25  27
ENDBRANCH  24  25
ENDBRANCH  10  24
TORSDOF 8
ENDMDL
MODEL 4
REMARK VINA RESULT:     -10.7      4.722      8.829
REMARK  Name = 9952125
REMARK  8 active torsions:
REMARK  status: ('A' for Active; 'I' for Inactive)
REMARK    1  A    between atoms: C_5  and  C_12
REMARK    2  A    between atoms: C_6  and  O_22
REMARK    3  A    between atoms: C_10  and  O_24
REMARK    4  A    between atoms: C_15  and  O_18
REMARK    5  A    between atoms: C_16  and  O_20
REMARK    6  A    between atoms: O_24  and  C_25
REMARK    7  A    between atoms: C_25  and  C_27
REMARK    8  A    between atoms: C_27  and  O_28
REMARK                            x       y       z     vdW  Elec       q    Type
REMARK                         _______ _______ _______ _____ _____    ______ ____
ROOT
ATOM      1  O   UNL     1      35.196 -20.062 -19.475  0.00  0.00    -0.453 OA
ATOM      2  O   UNL     1      31.736 -21.987 -18.518  0.00  0.00    -0.286 OA
ATOM      3  C   UNL     1      34.025 -21.640 -18.047  0.00  0.00    +0.108 C 
ATOM      4  C   UNL     1      35.174 -20.947 -18.427  0.00  0.00    +0.154 C 
ATOM      5  C   UNL     1      34.026 -19.855 -20.190  0.00  0.00    +0.149 C 
ATOM      6  C   UNL     1      34.060 -22.529 -16.971  0.00  0.00    +0.148 C 
ATOM      7  C   UNL     1      32.780 -21.417 -18.799  0.00  0.00    +0.205 C 
ATOM      8  C   UNL     1      32.857 -20.456 -19.918  0.00  0.00    +0.080 C 
ATOM      9  C   UNL     1      36.367 -21.140 -17.731  0.00  0.00    +0.075 C 
ATOM     10  C   UNL     1      36.406 -22.028 -16.655  0.00  0.00    +0.145 C 
ATOM     11  C   UNL     1      35.255 -22.721 -16.276  0.00  0.00    +0.074 C 
ENDROOT
BRANCH   5  12
ATOM     12  C   UNL     1      34.161 -18.880 -21.292  0.00  0.00    +0.038 C 
ATOM     13  C   UNL     1      33.686 -19.192 -22.568  0.00  0.00    +0.043 C 
ATOM     14  C   UNL     1      34.765 -17.642 -21.062  0.00  0.00    +0.006 C 
ATOM     15  C   UNL     1      33.813 -18.272 -23.607  0.00  0.00    +0.172 C 
ATOM     16  C   UNL     1      34.417 -17.036 -23.374  0.00  0.00    +0.172 C 
ATOM     17  C   UNL     1      34.892 -16.720 -22.102  0.00  0.00    +0.040 C 
BRANCH  15  18
ATOM     18  O   UNL     1      33.346 -18.591 -24.847  0.00  0.00    -0.468 OA
ATOM     19  C   UNL     1      31.952 -18.405 -25.082  0.00  0.00    +0.253 C 
ENDBRANCH  15  18
BRANCH  16  20
ATOM     20  O   UNL     1      34.545 -16.128 -24.382  0.00  0.00    -0.468 OA
ATOM     21  C   UNL     1      33.563 -15.096 -24.452  0.00  0.00    +0.253 C 
ENDBRANCH  16  20
ENDBRANCH   5  12
BRANCH   6  22
ATOM     22  O   UNL     1      32.965 -23.227 -16.560  0.00  0.00    -0.471 OA
ATOM     23  C   UNL     1      32.443 -22.912 -15.271  0.00  0.00    +0.252 C 
ENDBRANCH   6  22
BRANCH  10  24
ATOM     24  O   UNL     1      37.569 -22.219 -15.975  0.00  0.00    -0.464 OA
BRANCH  24  25
ATOM     25  C   UNL     1      37.490 -22.923 -14.736  0.00  0.00    +0.314 C 
BRANCH  25  27
ATOM     26  O   UNL     1      39.606 -24.102 -14.559  0.00  0.00    -0.246 OA
ATOM     27  C   UNL     1      38.403 -24.116 -14.770  0.00  0.00    +0.359 C 
BRANCH  27  28
ATOM     28  O   UNL     1      37.699 -25.237 -15.072  0.00  0.00    -0.478 OA
ATOM     29  H   UNL     1      36.800 -25.170 -15.327  0.00  0.00    +0.295 HD
ENDBRANCH  27  28
ENDBRANCH  25  27
ENDBRANCH  24  25
ENDBRANCH  10  24
TORSDOF 8
ENDMDL
MODEL 5
REMARK VINA RESULT:     -10.7      4.092      8.489
REMARK  Name = 9952125
REMARK  8 active torsions:
REMARK  status: ('A' for Active; 'I' for Inactive)
REMARK    1  A    between atoms: C_5  and  C_12
REMARK    2  A    between atoms: C_6  and  O_22
REMARK    3  A    between atoms: C_10  and  O_24
REMARK    4  A    between atoms: C_15  and  O_18
REMARK    5  A    between atoms: C_16  and  O_20
REMARK    6  A    between atoms: O_24  and  C_25
REMARK    7  A    between atoms: C_25  and  C_27
REMARK    8  A    between atoms: C_27  and  O_28
REMARK                            x       y       z     vdW  Elec       q    Type
REMARK                         _______ _______ _______ _____ _____    ______ ____
ROOT
ATOM      1  O   UNL     1      33.095 -19.947 -20.209  0.00  0.00    -0.453 OA
ATOM      2  O   UNL     1      36.533 -21.314 -18.505  0.00  0.00    -0.286 OA
ATOM      3  C   UNL     1      34.171 -21.327 -18.524  0.00  0.00    +0.108 C 
ATOM      4  C   UNL     1      33.034 -20.821 -19.154  0.00  0.00    +0.154 C 
ATOM      5  C   UNL     1      34.342 -19.543 -20.662  0.00  0.00    +0.149 C 
ATOM      6  C   UNL     1      34.049 -22.216 -17.455  0.00  0.00    +0.148 C 
ATOM      7  C   UNL     1      35.495 -20.908 -19.008  0.00  0.00    +0.205 C 
ATOM      8  C   UNL     1      35.507 -19.964 -20.144  0.00  0.00    +0.080 C 
ATOM      9  C   UNL     1      31.766 -21.204 -18.717  0.00  0.00    +0.075 C 
ATOM     10  C   UNL     1      31.640 -22.091 -17.648  0.00  0.00    +0.145 C 
ATOM     11  C   UNL     1      32.779 -22.596 -17.018  0.00  0.00    +0.074 C 
ENDROOT
BRANCH   5  12
ATOM     12  C   UNL     1      34.292 -18.606 -21.803  0.00  0.00    +0.038 C 
ATOM     13  C   UNL     1      34.549 -17.248 -21.608  0.00  0.00    +0.043 C 
ATOM     14  C   UNL     1      33.987 -19.076 -23.083  0.00  0.00    +0.006 C 
ATOM     15  C   UNL     1      34.503 -16.364 -22.685  0.00  0.00    +0.172 C 
ATOM     16  C   UNL     1      34.198 -16.836 -23.962  0.00  0.00    +0.172 C 
ATOM     17  C   UNL     1      33.940 -18.192 -24.161  0.00  0.00    +0.040 C 
BRANCH  15  18
ATOM     18  O   UNL     1      34.755 -15.041 -22.479  0.00  0.00    -0.468 OA
ATOM     19  C   UNL     1      33.912 -14.357 -21.553  0.00  0.00    +0.253 C 
ENDBRANCH  15  18
BRANCH  16  20
ATOM     20  O   UNL     1      34.151 -15.982 -25.022  0.00  0.00    -0.468 OA
ATOM     21  C   UNL     1      33.099 -15.019 -25.032  0.00  0.00    +0.253 C 
ENDBRANCH  16  20
ENDBRANCH   5  12
BRANCH   6  22
ATOM     22  O   UNL     1      35.128 -22.739 -16.809  0.00  0.00    -0.471 OA
ATOM     23  C   UNL     1      35.236 -22.479 -15.411  0.00  0.00    +0.252 C 
ENDBRANCH   6  22
BRANCH  10  24
ATOM     24  O   UNL     1      30.404 -22.465 -17.218  0.00  0.00    -0.464 OA
BRANCH  24  25
ATOM     25  C   UNL     1      30.195 -22.520 -15.807  0.00  0.00    +0.314 C 
BRANCH  25  27
ATOM     26  O   UNL     1      28.231 -23.674 -14.966  0.00  0.00    -0.246 OA
ATOM     27  C   UNL     1      28.733 -22.706 -15.515  0.00  0.00    +0.359 C 
BRANCH  27  28
ATOM     28  O   UNL     1      28.028 -21.632 -15.954  0.00  0.00    -0.478 OA
ATOM     29  H   UNL     1      28.207 -20.780 -15.607  0.00  0.00    +0.295 HD
ENDBRANCH  27  28
ENDBRANCH  25  27
ENDBRANCH  24  25
ENDBRANCH  10  24
TORSDOF 8
ENDMDL
MODEL 6
REMARK VINA RESULT:     -10.3      4.688      8.896
REMARK  Name = 9952125
REMARK  8 active torsions:
REMARK  status: ('A' for Active; 'I' for Inactive)
REMARK    1  A    between atoms: C_5  and  C_12
REMARK    2  A    between atoms: C_6  and  O_22
REMARK    3  A    between atoms: C_10  and  O_24
REMARK    4  A    between atoms: C_15  and  O_18
REMARK    5  A    between atoms: C_16  and  O_20
REMARK    6  A    between atoms: O_24  and  C_25
REMARK    7  A    between atoms: C_25  and  C_27
REMARK    8  A    between atoms: C_27  and  O_28
REMARK                            x       y       z     vdW  Elec       q    Type
REMARK                         _______ _______ _______ _____ _____    ______ ____
ROOT
ATOM      1  O   UNL     1      33.172 -20.103 -20.044  0.00  0.00    -0.453 OA
ATOM      2  O   UNL     1      36.615 -21.358 -18.265  0.00  0.00    -0.286 OA
ATOM      3  C   UNL     1      34.256 -21.451 -18.338  0.00  0.00    +0.108 C 
ATOM      4  C   UNL     1      33.117 -20.982 -18.992  0.00  0.00    +0.154 C 
ATOM      5  C   UNL     1      34.415 -19.656 -20.467  0.00  0.00    +0.149 C 
ATOM      6  C   UNL     1      34.140 -22.347 -17.273  0.00  0.00    +0.148 C 
ATOM      7  C   UNL     1      35.576 -20.985 -18.791  0.00  0.00    +0.205 C 
ATOM      8  C   UNL     1      35.581 -20.039 -19.924  0.00  0.00    +0.080 C 
ATOM      9  C   UNL     1      31.853 -21.409 -18.585  0.00  0.00    +0.075 C 
ATOM     10  C   UNL     1      31.734 -22.304 -17.521  0.00  0.00    +0.145 C 
ATOM     11  C   UNL     1      32.875 -22.771 -16.867  0.00  0.00    +0.074 C 
ENDROOT
BRANCH   5  12
ATOM     12  C   UNL     1      34.358 -18.718 -21.607  0.00  0.00    +0.038 C 
ATOM     13  C   UNL     1      33.779 -19.114 -22.814  0.00  0.00    +0.043 C 
ATOM     14  C   UNL     1      34.886 -17.431 -21.482  0.00  0.00    +0.006 C 
ATOM     15  C   UNL     1      33.725 -18.228 -23.890  0.00  0.00    +0.172 C 
ATOM     16  C   UNL     1      34.253 -16.943 -23.762  0.00  0.00    +0.172 C 
ATOM     17  C   UNL     1      34.833 -16.544 -22.558  0.00  0.00    +0.040 C 
BRANCH  15  18
ATOM     18  O   UNL     1      33.158 -18.629 -25.062  0.00  0.00    -0.468 OA
ATOM     19  C   UNL     1      31.745 -18.477 -25.183  0.00  0.00    +0.253 C 
ENDBRANCH  15  18
BRANCH  16  20
ATOM     20  O   UNL     1      34.205 -16.068 -24.805  0.00  0.00    -0.468 OA
ATOM     21  C   UNL     1      33.375 -14.919 -24.649  0.00  0.00    +0.253 C 
ENDBRANCH  16  20
ENDBRANCH   5  12
BRANCH   6  22
ATOM     22  O   UNL     1      35.221 -22.835 -16.605  0.00  0.00    -0.471 OA
ATOM     23  C   UNL     1      35.330 -22.506 -15.221  0.00  0.00    +0.252 C 
ENDBRANCH   6  22
BRANCH  10  24
ATOM     24  O   UNL     1      30.502 -22.720 -17.120  0.00  0.00    -0.464 OA
BRANCH  24  25
ATOM     25  C   UNL     1      30.076 -22.330 -15.815  0.00  0.00    +0.314 C 
BRANCH  25  27
ATOM     26  O   UNL     1      28.043 -23.425 -15.063  0.00  0.00    -0.246 OA
ATOM     27  C   UNL     1      28.592 -22.528 -15.682  0.00  0.00    +0.359 C 
BRANCH  27  28
ATOM     28  O   UNL     1      27.928 -21.555 -16.358  0.00  0.00    -0.478 OA
ATOM     29  H   UNL     1      28.190 -21.327 -17.228  0.00  0.00    +0.295 HD
ENDBRANCH  27  28
ENDBRANCH  25  27
ENDBRANCH  24  25
ENDBRANCH  10  24
TORSDOF 8
ENDMDL
MODEL 7
REMARK VINA RESULT:     -10.1      2.179      9.011
REMARK  Name = 9952125
REMARK  8 active torsions:
REMARK  status: ('A' for Active; 'I' for Inactive)
REMARK    1  A    between atoms: C_5  and  C_12
REMARK    2  A    between atoms: C_6  and  O_22
REMARK    3  A    between atoms: C_10  and  O_24
REMARK    4  A    between atoms: C_15  and  O_18
REMARK    5  A    between atoms: C_16  and  O_20
REMARK    6  A    between atoms: O_24  and  C_25
REMARK    7  A    between atoms: C_25  and  C_27
REMARK    8  A    between atoms: C_27  and  O_28
REMARK                            x       y       z     vdW  Elec       q    Type
REMARK                         _______ _______ _______ _____ _____    ______ ____
ROOT
ATOM      1  O   UNL     1      34.050 -17.532 -20.675  0.00  0.00    -0.453 OA
ATOM      2  O   UNL     1      34.148 -18.105 -24.707  0.00  0.00    -0.286 OA
ATOM      3  C   UNL     1      34.056 -16.576 -22.908  0.00  0.00    +0.108 C 
ATOM      4  C   UNL     1      34.026 -16.452 -21.519  0.00  0.00    +0.154 C 
ATOM      5  C   UNL     1      34.098 -18.803 -21.228  0.00  0.00    +0.149 C 
ATOM      6  C   UNL     1      34.031 -15.440 -23.720  0.00  0.00    +0.148 C 
ATOM      7  C   UNL     1      34.116 -17.923 -23.498  0.00  0.00    +0.205 C 
ATOM      8  C   UNL     1      34.137 -19.052 -22.547  0.00  0.00    +0.080 C 
ATOM      9  C   UNL     1      33.972 -15.187 -20.934  0.00  0.00    +0.075 C 
ATOM     10  C   UNL     1      33.946 -14.050 -21.742  0.00  0.00    +0.145 C 
ATOM     11  C   UNL     1      33.975 -14.177 -23.131  0.00  0.00    +0.074 C 
ENDROOT
BRANCH   5  12
ATOM     12  C   UNL     1      34.125 -19.892 -20.231  0.00  0.00    +0.038 C 
ATOM     13  C   UNL     1      35.318 -20.222 -19.584  0.00  0.00    +0.043 C 
ATOM     14  C   UNL     1      32.957 -20.596 -19.930  0.00  0.00    +0.006 C 
ATOM     15  C   UNL     1      35.343 -21.250 -18.642  0.00  0.00    +0.172 C 
ATOM     16  C   UNL     1      34.174 -21.951 -18.343  0.00  0.00    +0.172 C 
ATOM     17  C   UNL     1      32.981 -21.624 -18.987  0.00  0.00    +0.040 C 
BRANCH  15  18
ATOM     18  O   UNL     1      36.514 -21.562 -18.020  0.00  0.00    -0.468 OA
ATOM     19  C   UNL     1      36.799 -20.884 -16.797  0.00  0.00    +0.253 C 
ENDBRANCH  15  18
BRANCH  16  20
ATOM     20  O   UNL     1      34.186 -22.956 -17.423  0.00  0.00    -0.468 OA
ATOM     21  C   UNL     1      33.384 -22.776 -16.259  0.00  0.00    +0.253 C 
ENDBRANCH  16  20
ENDBRANCH   5  12
BRANCH   6  22
ATOM     22  O   UNL     1      34.061 -15.510 -25.079  0.00  0.00    -0.471 OA
ATOM     23  C   UNL     1      33.287 -14.549 -25.794  0.00  0.00    +0.252 C 
ENDBRANCH   6  22
BRANCH  10  24
ATOM     24  O   UNL     1      33.891 -12.815 -21.173  0.00  0.00    -0.464 OA
BRANCH  24  25
ATOM     25  C   UNL     1      32.626 -12.386 -20.670  0.00  0.00    +0.314 C 
BRANCH  25  27
ATOM     26  O   UNL     1      32.403 -11.096 -22.716  0.00  0.00    -0.246 OA
ATOM     27  C   UNL     1      31.899 -11.599 -21.724  0.00  0.00    +0.359 C 
BRANCH  27  28
ATOM     28  O   UNL     1      30.578 -11.521 -21.422  0.00  0.00    -0.478 OA
ATOM     29  H   UNL     1      30.082 -10.768 -21.678  0.00  0.00    +0.295 HD
ENDBRANCH  27  28
ENDBRANCH  25  27
ENDBRANCH  24  25
ENDBRANCH  10  24
TORSDOF 8
ENDMDL
MODEL 8
REMARK VINA RESULT:     -10.1      6.726     10.981
REMARK  Name = 9952125
REMARK  8 active torsions:
REMARK  status: ('A' for Active; 'I' for Inactive)
REMARK    1  A    between atoms: C_5  and  C_12
REMARK    2  A    between atoms: C_6  and  O_22
REMARK    3  A    between atoms: C_10  and  O_24
REMARK    4  A    between atoms: C_15  and  O_18
REMARK    5  A    between atoms: C_16  and  O_20
REMARK    6  A    between atoms: O_24  and  C_25
REMARK    7  A    between atoms: C_25  and  C_27
REMARK    8  A    between atoms: C_27  and  O_28
REMARK                            x       y       z     vdW  Elec       q    Type
REMARK                         _______ _______ _______ _____ _____    ______ ____
ROOT
ATOM      1  O   UNL     1      35.098 -21.916 -17.396  0.00  0.00    -0.453 OA
ATOM      2  O   UNL     1      31.585 -23.454 -16.022  0.00  0.00    -0.286 OA
ATOM      3  C   UNL     1      33.921 -23.246 -15.738  0.00  0.00    +0.108 C 
ATOM      4  C   UNL     1      35.086 -22.688 -16.263  0.00  0.00    +0.154 C 
ATOM      5  C   UNL     1      33.897 -21.689 -18.053  0.00  0.00    +0.149 C 
ATOM      6  C   UNL     1      33.969 -24.023 -14.580  0.00  0.00    +0.148 C 
ATOM      7  C   UNL     1      32.645 -22.999 -16.428  0.00  0.00    +0.205 C 
ATOM      8  C   UNL     1      32.710 -22.164 -17.644  0.00  0.00    +0.080 C 
ATOM      9  C   UNL     1      36.310 -22.905 -15.628  0.00  0.00    +0.075 C 
ATOM     10  C   UNL     1      36.362 -23.682 -14.470  0.00  0.00    +0.145 C 
ATOM     11  C   UNL     1      35.194 -24.239 -13.948  0.00  0.00    +0.074 C 
ENDROOT
BRANCH   5  12
ATOM     12  C   UNL     1      34.023 -20.842 -19.257  0.00  0.00    +0.038 C 
ATOM     13  C   UNL     1      35.283 -20.442 -19.706  0.00  0.00    +0.043 C 
ATOM     14  C   UNL     1      32.880 -20.438 -19.951  0.00  0.00    +0.006 C 
ATOM     15  C   UNL     1      35.401 -19.644 -20.843  0.00  0.00    +0.172 C 
ATOM     16  C   UNL     1      34.258 -19.242 -21.535  0.00  0.00    +0.172 C 
ATOM     17  C   UNL     1      32.997 -19.639 -21.089  0.00  0.00    +0.040 C 
BRANCH  15  18
ATOM     18  O   UNL     1      36.637 -19.260 -21.269  0.00  0.00    -0.468 OA
ATOM     19  C   UNL     1      36.770 -17.927 -21.758  0.00  0.00    +0.253 C 
ENDBRANCH  15  18
BRANCH  16  20
ATOM     20  O   UNL     1      34.361 -18.463 -22.648  0.00  0.00    -0.468 OA
ATOM     21  C   UNL     1      33.521 -18.797 -23.751  0.00  0.00    +0.253 C 
ENDBRANCH  16  20
ENDBRANCH   5  12
BRANCH   6  22
ATOM     22  O   UNL     1      32.859 -24.587 -14.028  0.00  0.00    -0.471 OA
ATOM     23  C   UNL     1      32.320 -23.955 -12.868  0.00  0.00    +0.252 C 
ENDBRANCH   6  22
BRANCH  10  24
ATOM     24  O   UNL     1      37.554 -23.896 -13.850  0.00  0.00    -0.464 OA
BRANCH  24  25
ATOM     25  C   UNL     1      38.239 -25.109 -14.160  0.00  0.00    +0.314 C 
BRANCH  25  27
ATOM     26  O   UNL     1      40.397 -23.994 -14.145  0.00  0.00    -0.246 OA
ATOM     27  C   UNL     1      39.628 -24.800 -14.645  0.00  0.00    +0.359 C 
BRANCH  27  28
ATOM     28  O   UNL     1      39.921 -25.552 -15.736  0.00  0.00    -0.478 OA
ATOM     29  H   UNL     1      39.554 -25.332 -16.569  0.00  0.00    +0.295 HD
ENDBRANCH  27  28
ENDBRANCH  25  27
ENDBRANCH  24  25
ENDBRANCH  10  24
TORSDOF 8
ENDMDL
MODEL 9
REMARK VINA RESULT:      -9.4      6.530     11.441
REMARK  Name = 9952125
REMARK  8 active torsions:
REMARK  status: ('A' for Active; 'I' for Inactive)
REMARK    1  A    between atoms: C_5  and  C_12
REMARK    2  A    between atoms: C_6  and  O_22
REMARK    3  A    between atoms: C_10  and  O_24
REMARK    4  A    between atoms: C_15  and  O_18
REMARK    5  A    between atoms: C_16  and  O_20
REMARK    6  A    between atoms: O_24  and  C_25
REMARK    7  A    between atoms: C_25  and  C_27
REMARK    8  A    between atoms: C_27  and  O_28
REMARK                            x       y       z     vdW  Elec       q    Type
REMARK                         _______ _______ _______ _____ _____    ______ ____
ROOT
ATOM      1  O   UNL     1      34.245 -22.074 -16.763  0.00  0.00    -0.453 OA
ATOM      2  O   UNL     1      38.142 -22.500 -15.655  0.00  0.00    -0.286 OA
ATOM      3  C   UNL     1      35.867 -22.892 -15.151  0.00  0.00    +0.108 C 
ATOM      4  C   UNL     1      34.556 -22.713 -15.590  0.00  0.00    +0.154 C 
ATOM      5  C   UNL     1      35.281 -21.579 -17.541  0.00  0.00    +0.149 C 
ATOM      6  C   UNL     1      36.126 -23.551 -13.947  0.00  0.00    +0.148 C 
ATOM      7  C   UNL     1      36.969 -22.375 -15.978  0.00  0.00    +0.205 C 
ATOM      8  C   UNL     1      36.582 -21.694 -17.230  0.00  0.00    +0.080 C 
ATOM      9  C   UNL     1      33.493 -23.194 -14.826  0.00  0.00    +0.075 C 
ATOM     10  C   UNL     1      33.747 -23.853 -13.622  0.00  0.00    +0.145 C 
ATOM     11  C   UNL     1      35.061 -24.031 -13.184  0.00  0.00    +0.074 C 
ENDROOT
BRANCH   5  12
ATOM     12  C   UNL     1      34.835 -20.916 -18.783  0.00  0.00    +0.038 C 
ATOM     13  C   UNL     1      35.744 -20.195 -19.560  0.00  0.00    +0.043 C 
ATOM     14  C   UNL     1      33.500 -21.006 -19.186  0.00  0.00    +0.006 C 
ATOM     15  C   UNL     1      35.323 -19.569 -20.733  0.00  0.00    +0.172 C 
ATOM     16  C   UNL     1      33.989 -19.662 -21.132  0.00  0.00    +0.172 C 
ATOM     17  C   UNL     1      33.078 -20.381 -20.359  0.00  0.00    +0.040 C 
BRANCH  15  18
ATOM     18  O   UNL     1      36.221 -18.869 -21.480  0.00  0.00    -0.468 OA
ATOM     19  C   UNL     1      36.000 -17.466 -21.612  0.00  0.00    +0.253 C 
ENDBRANCH  15  18
BRANCH  16  20
ATOM     20  O   UNL     1      33.566 -19.056 -22.277  0.00  0.00    -0.468 OA
ATOM     21  C   UNL     1      34.121 -19.529 -23.503  0.00  0.00    +0.253 C 
ENDBRANCH  16  20
ENDBRANCH   5  12
BRANCH   6  22
ATOM     22  O   UNL     1      37.388 -23.752 -13.477  0.00  0.00    -0.471 OA
ATOM     23  C   UNL     1      37.830 -25.104 -13.366  0.00  0.00    +0.252 C 
ENDBRANCH   6  22
BRANCH  10  24
ATOM     24  O   UNL     1      32.712 -24.322 -12.874  0.00  0.00    -0.464 OA
BRANCH  24  25
ATOM     25  C   UNL     1      31.535 -24.726 -13.574  0.00  0.00    +0.314 C 
BRANCH  25  27
ATOM     26  O   UNL     1      29.978 -22.862 -13.591  0.00  0.00    -0.246 OA
ATOM     27  C   UNL     1      30.360 -23.915 -13.105  0.00  0.00    +0.359 C 
BRANCH  27  28
ATOM     28  O   UNL     1      29.766 -24.521 -12.045  0.00  0.00    -0.478 OA
ATOM     29  H   UNL     1      29.143 -25.206 -12.186  0.00  0.00    +0.295 HD
ENDBRANCH  27  28
ENDBRANCH  25  27
ENDBRANCH  24  25
ENDBRANCH  10  24
TORSDOF 8
ENDMDL
