MODEL 1
REMARK VINA RESULT:     -11.0      0.000      0.000
REMARK  Name = 5312153
REMARK  14 active torsions:
REMARK  status: ('A' for Active; 'I' for Inactive)
REMARK    1  A    between atoms: C_2  and  C_9
REMARK    2  A    between atoms: C_3  and  C_22
REMARK    3  A    between atoms: C_4  and  O_7
REMARK    4  A    between atoms: C_10  and  C_11
REMARK    5  A    between atoms: C_11  and  O_12
REMARK    6  A    between atoms: C_11  and  C_14
REMARK    7  A    between atoms: C_14  and  O_15
REMARK    8  A    between atoms: O_15  and  C_16
REMARK    9  A    between atoms: C_22  and  C_23
REMARK   10  A    between atoms: C_24  and  C_25
REMARK   11  A    between atoms: C_25  and  C_26
REMARK   12  A    between atoms: C_26  and  C_27
REMARK   13  A    between atoms: C_27  and  C_30
REMARK   14  A    between atoms: N_29  and  S_32
REMARK                            x       y       z     vdW  Elec       q    Type
REMARK                         _______ _______ _______ _____ _____    ______ ____
ROOT
ATOM      1  O   UNL     1      34.116 -23.286 -16.241  0.00  0.00    -0.296 OA
ATOM      2  C   UNL     1      34.132 -20.843 -18.795  0.00  0.00    +0.056 C 
ATOM      3  C   UNL     1      34.983 -21.824 -17.974  0.00  0.00    +0.068 C 
ATOM      4  C   UNL     1      32.866 -21.642 -19.126  0.00  0.00    +0.122 C 
ATOM      5  C   UNL     1      32.547 -22.404 -17.842  0.00  0.00    +0.094 C 
ATOM      6  C   UNL     1      33.909 -22.588 -17.226  0.00  0.00    +0.153 C 
ENDROOT
BRANCH   4   7
ATOM      7  O   UNL     1      31.805 -20.762 -19.459  0.00  0.00    -0.384 OA
ATOM      8  H   UNL     1      32.054 -19.854 -19.228  0.00  0.00    +0.210 HD
ENDBRANCH   4   7
BRANCH   2   9
ATOM      9  C   UNL     1      34.843 -20.345 -20.013  0.00  0.00    -0.026 C 
ATOM     10  C   UNL     1      34.357 -19.395 -20.826  0.00  0.00    +0.002 C 
BRANCH  10  11
ATOM     11  C   UNL     1      35.073 -18.898 -22.050  0.00  0.00    +0.176 C 
BRANCH  11  12
ATOM     12  O   UNL     1      34.116 -18.816 -23.104  0.00  0.00    -0.376 OA
ATOM     13  H   UNL     1      33.227 -18.966 -22.747  0.00  0.00    +0.211 HD
ENDBRANCH  11  12
BRANCH  11  14
ATOM     14  C   UNL     1      35.683 -17.518 -21.823  0.00  0.00    +0.239 C 
BRANCH  14  15
ATOM     15  O   UNL     1      34.873 -16.773 -20.924  0.00  0.00    -0.472 OA
BRANCH  15  16
ATOM     16  C   UNL     1      34.380 -15.578 -21.382  0.00  0.00    +0.139 C 
ATOM     17  C   UNL     1      34.441 -15.272 -22.742  0.00  0.00    +0.037 C 
ATOM     18  C   UNL     1      33.818 -14.668 -20.486  0.00  0.00    +0.037 C 
ATOM     19  C   UNL     1      33.940 -14.055 -23.206  0.00  0.00    +0.003 C 
ATOM     20  C   UNL     1      33.318 -13.451 -20.951  0.00  0.00    +0.003 C 
ATOM     21  C   UNL     1      33.379 -13.145 -22.310  0.00  0.00    +0.000 C 
ENDBRANCH  15  16
ENDBRANCH  14  15
ENDBRANCH  11  14
ENDBRANCH  10  11
ENDBRANCH   2   9
BRANCH   3  22
ATOM     22  C   UNL     1      35.965 -21.137 -17.041  0.00  0.00    +0.033 C 
BRANCH  22  23
ATOM     23  C   UNL     1      37.131 -22.028 -16.732  0.00  0.00    -0.030 C 
ATOM     24  C   UNL     1      37.418 -22.484 -15.504  0.00  0.00    -0.031 C 
BRANCH  24  25
ATOM     25  C   UNL     1      36.607 -22.157 -14.284  0.00  0.00    +0.026 C 
BRANCH  25  26
ATOM     26  C   UNL     1      36.642 -23.265 -13.224  0.00  0.00    +0.014 C 
BRANCH  26  27
ATOM     27  C   UNL     1      35.592 -24.361 -13.405  0.00  0.00    +0.087 C 
BRANCH  27  30
ATOM     28  O   UNL     1      34.177 -23.479 -11.677  0.00  0.00    -0.274 OA
ATOM     29  N   UNL     1      33.140 -24.195 -13.657  0.00  0.00    -0.189 N 
ATOM     30  C   UNL     1      34.263 -23.969 -12.798  0.00  0.00    +0.241 C 
ATOM     31  H   UNL     1      33.321 -24.575 -14.547  0.00  0.00    +0.176 HD
BRANCH  29  32
ATOM     32  S   UNL     1      31.514 -23.857 -13.262  0.00  0.00    +0.058 S 
ATOM     33  O   UNL     1      30.933 -25.032 -12.640  0.00  0.00    -0.154 OA
ATOM     34  O   UNL     1      31.413 -22.555 -12.634  0.00  0.00    -0.154 OA
ATOM     35  C   UNL     1      30.833 -23.729 -14.897  0.00  0.00    +0.200 C 
ENDBRANCH  29  32
ENDBRANCH  27  30
ENDBRANCH  26  27
ENDBRANCH  25  26
ENDBRANCH  24  25
ENDBRANCH  22  23
ENDBRANCH   3  22
TORSDOF 14
ENDMDL
MODEL 2
REMARK VINA RESULT:     -10.9      3.435      6.118
REMARK  Name = 5312153
REMARK  14 active torsions:
REMARK  status: ('A' for Active; 'I' for Inactive)
REMARK    1  A    between atoms: C_2  and  C_9
REMARK    2  A    between atoms: C_3  and  C_22
REMARK    3  A    between atoms: C_4  and  O_7
REMARK    4  A    between atoms: C_10  and  C_11
REMARK    5  A    between atoms: C_11  and  O_12
REMARK    6  A    between atoms: C_11  and  C_14
REMARK    7  A    between atoms: C_14  and  O_15
REMARK    8  A    between atoms: O_15  and  C_16
REMARK    9  A    between atoms: C_22  and  C_23
REMARK   10  A    between atoms: C_24  and  C_25
REMARK   11  A    between atoms: C_25  and  C_26
REMARK   12  A    between atoms: C_26  and  C_27
REMARK   13  A    between atoms: C_27  and  C_30
REMARK   14  A    between atoms: N_29  and  S_32
REMARK                            x       y       z     vdW  Elec       q    Type
REMARK                         _______ _______ _______ _____ _____    ______ ____
ROOT
ATOM      1  O   UNL     1      37.540 -24.174 -10.815  0.00  0.00    -0.296 OA
ATOM      2  C   UNL     1      36.546 -24.004 -14.203  0.00  0.00    +0.056 C 
ATOM      3  C   UNL     1      36.610 -23.258 -12.862  0.00  0.00    +0.068 C 
ATOM      4  C   UNL     1      37.913 -24.692 -14.306  0.00  0.00    +0.122 C 
ATOM      5  C   UNL     1      38.192 -25.203 -12.894  0.00  0.00    +0.094 C 
ATOM      6  C   UNL     1      37.453 -24.209 -12.037  0.00  0.00    +0.153 C 
ENDROOT
BRANCH   4   7
ATOM      7  O   UNL     1      37.849 -25.774 -15.222  0.00  0.00    -0.384 OA
ATOM      8  H   UNL     1      37.898 -26.612 -14.736  0.00  0.00    +0.210 HD
ENDBRANCH   4   7
BRANCH   2   9
ATOM      9  C   UNL     1      36.264 -23.094 -15.355  0.00  0.00    -0.026 C 
ATOM     10  C   UNL     1      36.569 -21.788 -15.368  0.00  0.00    +0.002 C 
BRANCH  10  11
ATOM     11  C   UNL     1      36.283 -20.875 -16.527  0.00  0.00    +0.176 C 
BRANCH  11  12
ATOM     12  O   UNL     1      37.299 -19.875 -16.548  0.00  0.00    -0.376 OA
ATOM     13  H   UNL     1      37.967 -20.078 -15.875  0.00  0.00    +0.211 HD
ENDBRANCH  11  12
BRANCH  11  14
ATOM     14  C   UNL     1      36.299 -21.630 -17.854  0.00  0.00    +0.239 C 
BRANCH  14  15
ATOM     15  O   UNL     1      34.971 -21.953 -18.242  0.00  0.00    -0.472 OA
BRANCH  15  16
ATOM     16  C   UNL     1      34.374 -21.124 -19.156  0.00  0.00    +0.139 C 
ATOM     17  C   UNL     1      32.983 -21.038 -19.217  0.00  0.00    +0.037 C 
ATOM     18  C   UNL     1      35.160 -20.367 -20.027  0.00  0.00    +0.037 C 
ATOM     19  C   UNL     1      32.377 -20.194 -20.149  0.00  0.00    +0.003 C 
ATOM     20  C   UNL     1      34.553 -19.524 -20.958  0.00  0.00    +0.003 C 
ATOM     21  C   UNL     1      33.162 -19.438 -21.019  0.00  0.00    +0.000 C 
ENDBRANCH  15  16
ENDBRANCH  14  15
ENDBRANCH  11  14
ENDBRANCH  10  11
ENDBRANCH   2   9
BRANCH   3  22
ATOM     22  C   UNL     1      35.244 -23.007 -12.246  0.00  0.00    +0.033 C 
BRANCH  22  23
ATOM     23  C   UNL     1      34.320 -24.161 -12.492  0.00  0.00    -0.030 C 
ATOM     24  C   UNL     1      33.268 -24.113 -13.323  0.00  0.00    -0.031 C 
BRANCH  24  25
ATOM     25  C   UNL     1      32.884 -22.893 -14.109  0.00  0.00    +0.026 C 
BRANCH  25  26
ATOM     26  C   UNL     1      32.651 -23.185 -15.596  0.00  0.00    +0.014 C 
BRANCH  26  27
ATOM     27  C   UNL     1      31.570 -22.330 -16.257  0.00  0.00    +0.087 C 
BRANCH  27  30
ATOM     28  O   UNL     1      29.971 -23.716 -15.122  0.00  0.00    -0.274 OA
ATOM     29  N   UNL     1      29.160 -22.285 -16.796  0.00  0.00    -0.189 N 
ATOM     30  C   UNL     1      30.183 -22.870 -15.984  0.00  0.00    +0.241 C 
ATOM     31  H   UNL     1      29.434 -21.598 -17.445  0.00  0.00    +0.176 HD
BRANCH  29  32
ATOM     32  S   UNL     1      27.500 -22.682 -16.726  0.00  0.00    +0.058 S 
ATOM     33  O   UNL     1      26.766 -21.761 -17.573  0.00  0.00    -0.154 OA
ATOM     34  O   UNL     1      27.325 -24.114 -16.855  0.00  0.00    -0.154 OA
ATOM     35  C   UNL     1      27.161 -22.240 -15.040  0.00  0.00    +0.200 C 
ENDBRANCH  29  32
ENDBRANCH  27  30
ENDBRANCH  26  27
ENDBRANCH  25  26
ENDBRANCH  24  25
ENDBRANCH  22  23
ENDBRANCH   3  22
TORSDOF 14
ENDMDL
MODEL 3
REMARK VINA RESULT:     -10.6      6.456     12.319
REMARK  Name = 5312153
REMARK  14 active torsions:
REMARK  status: ('A' for Active; 'I' for Inactive)
REMARK    1  A    between atoms: C_2  and  C_9
REMARK    2  A    between atoms: C_3  and  C_22
REMARK    3  A    between atoms: C_4  and  O_7
REMARK    4  A    between atoms: C_10  and  C_11
REMARK    5  A    between atoms: C_11  and  O_12
REMARK    6  A    between atoms: C_11  and  C_14
REMARK    7  A    between atoms: C_14  and  O_15
REMARK    8  A    between atoms: O_15  and  C_16
REMARK    9  A    between atoms: C_22  and  C_23
REMARK   10  A    between atoms: C_24  and  C_25
REMARK   11  A    between atoms: C_25  and  C_26
REMARK   12  A    between atoms: C_26  and  C_27
REMARK   13  A    between atoms: C_27  and  C_30
REMARK   14  A    between atoms: N_29  and  S_32
REMARK                            x       y       z     vdW  Elec       q    Type
REMARK                         _______ _______ _______ _____ _____    ______ ____
ROOT
ATOM      1  O   UNL     1      32.196 -12.344 -23.949  0.00  0.00    -0.296 OA
ATOM      2  C   UNL     1      34.236 -15.130 -23.194  0.00  0.00    +0.056 C 
ATOM      3  C   UNL     1      33.193 -14.139 -22.654  0.00  0.00    +0.068 C 
ATOM      4  C   UNL     1      33.718 -15.484 -24.593  0.00  0.00    +0.122 C 
ATOM      5  C   UNL     1      33.214 -14.159 -25.162  0.00  0.00    +0.094 C 
ATOM      6  C   UNL     1      32.797 -13.411 -23.923  0.00  0.00    +0.153 C 
ENDROOT
BRANCH   4   7
ATOM      7  O   UNL     1      34.773 -15.998 -25.390  0.00  0.00    -0.384 OA
ATOM      8  H   UNL     1      35.043 -15.330 -26.038  0.00  0.00    +0.210 HD
ENDBRANCH   4   7
BRANCH   2   9
ATOM      9  C   UNL     1      34.402 -16.327 -22.314  0.00  0.00    -0.026 C 
ATOM     10  C   UNL     1      35.429 -17.184 -22.403  0.00  0.00    +0.002 C 
BRANCH  10  11
ATOM     11  C   UNL     1      35.592 -18.388 -21.518  0.00  0.00    +0.176 C 
BRANCH  11  12
ATOM     12  O   UNL     1      36.572 -18.068 -20.532  0.00  0.00    -0.376 OA
ATOM     13  H   UNL     1      36.839 -17.141 -20.631  0.00  0.00    +0.211 HD
ENDBRANCH  11  12
BRANCH  11  14
ATOM     14  C   UNL     1      34.285 -18.754 -20.821  0.00  0.00    +0.239 C 
BRANCH  14  15
ATOM     15  O   UNL     1      34.082 -20.158 -20.880  0.00  0.00    -0.472 OA
BRANCH  15  16
ATOM     16  C   UNL     1      34.138 -20.842 -19.692  0.00  0.00    +0.139 C 
ATOM     17  C   UNL     1      32.973 -21.364 -19.132  0.00  0.00    +0.037 C 
ATOM     18  C   UNL     1      35.363 -21.012 -19.044  0.00  0.00    +0.037 C 
ATOM     19  C   UNL     1      33.031 -22.058 -17.922  0.00  0.00    +0.003 C 
ATOM     20  C   UNL     1      35.419 -21.706 -17.835  0.00  0.00    +0.003 C 
ATOM     21  C   UNL     1      34.254 -22.228 -17.274  0.00  0.00    +0.000 C 
ENDBRANCH  15  16
ENDBRANCH  14  15
ENDBRANCH  11  14
ENDBRANCH  10  11
ENDBRANCH   2   9
BRANCH   3  22
ATOM     22  C   UNL     1      33.743 -13.202 -21.593  0.00  0.00    +0.033 C 
BRANCH  22  23
ATOM     23  C   UNL     1      32.872 -13.198 -20.372  0.00  0.00    -0.030 C 
ATOM     24  C   UNL     1      31.889 -12.312 -20.158  0.00  0.00    -0.031 C 
BRANCH  24  25
ATOM     25  C   UNL     1      31.539 -11.210 -21.115  0.00  0.00    +0.026 C 
BRANCH  25  26
ATOM     26  C   UNL     1      30.650 -10.128 -20.489  0.00  0.00    +0.014 C 
BRANCH  26  27
ATOM     27  C   UNL     1      31.330  -9.283 -19.411  0.00  0.00    +0.087 C 
BRANCH  27  30
ATOM     28  O   UNL     1      32.074  -7.015 -19.154  0.00  0.00    -0.274 OA
ATOM     29  N   UNL     1      31.218  -7.637 -21.249  0.00  0.00    -0.189 N 
ATOM     30  C   UNL     1      31.580  -7.868 -19.883  0.00  0.00    +0.241 C 
ATOM     31  H   UNL     1      30.848  -8.397 -21.754  0.00  0.00    +0.176 HD
BRANCH  29  32
ATOM     32  S   UNL     1      31.378  -6.150 -22.072  0.00  0.00    +0.058 S 
ATOM     33  O   UNL     1      30.249  -5.306 -21.730  0.00  0.00    -0.154 OA
ATOM     34  O   UNL     1      32.737  -5.660 -21.957  0.00  0.00    -0.154 OA
ATOM     35  C   UNL     1      31.138  -6.708 -23.741  0.00  0.00    +0.200 C 
ENDBRANCH  29  32
ENDBRANCH  27  30
ENDBRANCH  26  27
ENDBRANCH  25  26
ENDBRANCH  24  25
ENDBRANCH  22  23
ENDBRANCH   3  22
TORSDOF 14
ENDMDL
MODEL 4
REMARK VINA RESULT:     -10.6      3.051      5.757
REMARK  Name = 5312153
REMARK  14 active torsions:
REMARK  status: ('A' for Active; 'I' for Inactive)
REMARK    1  A    between atoms: C_2  and  C_9
REMARK    2  A    between atoms: C_3  and  C_22
REMARK    3  A    between atoms: C_4  and  O_7
REMARK    4  A    between atoms: C_10  and  C_11
REMARK    5  A    between atoms: C_11  and  O_12
REMARK    6  A    between atoms: C_11  and  C_14
REMARK    7  A    between atoms: C_14  and  O_15
REMARK    8  A    between atoms: O_15  and  C_16
REMARK    9  A    between atoms: C_22  and  C_23
REMARK   10  A    between atoms: C_24  and  C_25
REMARK   11  A    between atoms: C_25  and  C_26
REMARK   12  A    between atoms: C_26  and  C_27
REMARK   13  A    between atoms: C_27  and  C_30
REMARK   14  A    between atoms: N_29  and  S_32
REMARK                            x       y       z     vdW  Elec       q    Type
REMARK                         _______ _______ _______ _____ _____    ______ ____
ROOT
ATOM      1  O   UNL     1      37.186 -24.606 -11.139  0.00  0.00    -0.296 OA
ATOM      2  C   UNL     1      37.191 -23.558 -14.515  0.00  0.00    +0.056 C 
ATOM      3  C   UNL     1      36.784 -23.201 -13.077  0.00  0.00    +0.068 C 
ATOM      4  C   UNL     1      38.598 -24.149 -14.362  0.00  0.00    +0.122 C 
ATOM      5  C   UNL     1      38.517 -25.013 -13.105  0.00  0.00    +0.094 C 
ATOM      6  C   UNL     1      37.457 -24.312 -12.297  0.00  0.00    +0.153 C 
ENDROOT
BRANCH   4   7
ATOM      7  O   UNL     1      38.921 -24.944 -15.492  0.00  0.00    -0.384 OA
ATOM      8  H   UNL     1      39.182 -25.830 -15.199  0.00  0.00    +0.210 HD
ENDBRANCH   4   7
BRANCH   2   9
ATOM      9  C   UNL     1      37.150 -22.380 -15.434  0.00  0.00    -0.026 C 
ATOM     10  C   UNL     1      36.087 -22.052 -16.182  0.00  0.00    +0.002 C 
BRANCH  10  11
ATOM     11  C   UNL     1      36.050 -20.868 -17.107  0.00  0.00    +0.176 C 
BRANCH  11  12
ATOM     12  O   UNL     1      37.166 -20.039 -16.791  0.00  0.00    -0.376 OA
ATOM     13  H   UNL     1      37.160 -19.836 -15.842  0.00  0.00    +0.211 HD
ENDBRANCH  11  12
BRANCH  11  14
ATOM     14  C   UNL     1      36.143 -21.294 -18.569  0.00  0.00    +0.239 C 
BRANCH  14  15
ATOM     15  O   UNL     1      34.963 -20.909 -19.261  0.00  0.00    -0.472 OA
BRANCH  15  16
ATOM     16  C   UNL     1      35.101 -19.955 -20.236  0.00  0.00    +0.139 C 
ATOM     17  C   UNL     1      36.304 -19.261 -20.369  0.00  0.00    +0.037 C 
ATOM     18  C   UNL     1      34.036 -19.677 -21.094  0.00  0.00    +0.037 C 
ATOM     19  C   UNL     1      36.442 -18.289 -21.360  0.00  0.00    +0.003 C 
ATOM     20  C   UNL     1      34.176 -18.705 -22.085  0.00  0.00    +0.003 C 
ATOM     21  C   UNL     1      35.378 -18.011 -22.218  0.00  0.00    +0.000 C 
ENDBRANCH  15  16
ENDBRANCH  14  15
ENDBRANCH  11  14
ENDBRANCH  10  11
ENDBRANCH   2   9
BRANCH   3  22
ATOM     22  C   UNL     1      35.280 -23.170 -12.866  0.00  0.00    +0.033 C 
BRANCH  22  23
ATOM     23  C   UNL     1      34.601 -24.246 -13.659  0.00  0.00    -0.030 C 
ATOM     24  C   UNL     1      33.289 -24.255 -13.936  0.00  0.00    -0.031 C 
BRANCH  24  25
ATOM     25  C   UNL     1      32.335 -23.187 -13.484  0.00  0.00    +0.026 C 
BRANCH  25  26
ATOM     26  C   UNL     1      31.895 -22.254 -14.619  0.00  0.00    +0.014 C 
BRANCH  26  27
ATOM     27  C   UNL     1      31.474 -22.962 -15.907  0.00  0.00    +0.087 C 
BRANCH  27  30
ATOM     28  O   UNL     1      29.592 -24.350 -15.359  0.00  0.00    -0.274 OA
ATOM     29  N   UNL     1      29.159 -22.358 -16.522  0.00  0.00    -0.189 N 
ATOM     30  C   UNL     1      30.005 -23.325 -15.892  0.00  0.00    +0.241 C 
ATOM     31  H   UNL     1      29.590 -21.559 -16.902  0.00  0.00    +0.176 HD
BRANCH  29  32
ATOM     32  S   UNL     1      27.462 -22.480 -16.667  0.00  0.00    +0.058 S 
ATOM     33  O   UNL     1      26.972 -21.317 -17.383  0.00  0.00    -0.154 OA
ATOM     34  O   UNL     1      27.092 -23.819 -17.077  0.00  0.00    -0.154 OA
ATOM     35  C   UNL     1      27.005 -22.285 -14.962  0.00  0.00    +0.200 C 
ENDBRANCH  29  32
ENDBRANCH  27  30
ENDBRANCH  26  27
ENDBRANCH  25  26
ENDBRANCH  24  25
ENDBRANCH  22  23
ENDBRANCH   3  22
TORSDOF 14
ENDMDL
MODEL 5
REMARK VINA RESULT:     -10.6      3.470      9.770
REMARK  Name = 5312153
REMARK  14 active torsions:
REMARK  status: ('A' for Active; 'I' for Inactive)
REMARK    1  A    between atoms: C_2  and  C_9
REMARK    2  A    between atoms: C_3  and  C_22
REMARK    3  A    between atoms: C_4  and  O_7
REMARK    4  A    between atoms: C_10  and  C_11
REMARK    5  A    between atoms: C_11  and  O_12
REMARK    6  A    between atoms: C_11  and  C_14
REMARK    7  A    between atoms: C_14  and  O_15
REMARK    8  A    between atoms: O_15  and  C_16
REMARK    9  A    between atoms: C_22  and  C_23
REMARK   10  A    between atoms: C_24  and  C_25
REMARK   11  A    between atoms: C_25  and  C_26
REMARK   12  A    between atoms: C_26  and  C_27
REMARK   13  A    between atoms: C_27  and  C_30
REMARK   14  A    between atoms: N_29  and  S_32
REMARK                            x       y       z     vdW  Elec       q    Type
REMARK                         _______ _______ _______ _____ _____    ______ ____
ROOT
ATOM      1  O   UNL     1      32.132 -22.621 -17.154  0.00  0.00    -0.296 OA
ATOM      2  C   UNL     1      32.724 -23.739 -13.854  0.00  0.00    +0.056 C 
ATOM      3  C   UNL     1      33.188 -22.798 -14.976  0.00  0.00    +0.068 C 
ATOM      4  C   UNL     1      31.195 -23.617 -13.880  0.00  0.00    +0.122 C 
ATOM      5  C   UNL     1      30.839 -23.584 -15.364  0.00  0.00    +0.094 C 
ATOM      6  C   UNL     1      32.065 -22.962 -15.980  0.00  0.00    +0.153 C 
ENDROOT
BRANCH   4   7
ATOM      7  O   UNL     1      30.604 -24.742 -13.251  0.00  0.00    -0.384 OA
ATOM      8  H   UNL     1      30.208 -25.317 -13.924  0.00  0.00    +0.210 HD
ENDBRANCH   4   7
BRANCH   2   9
ATOM      9  C   UNL     1      33.315 -23.388 -12.526  0.00  0.00    -0.026 C 
ATOM     10  C   UNL     1      34.352 -24.034 -11.975  0.00  0.00    +0.002 C 
BRANCH  10  11
ATOM     11  C   UNL     1      34.943 -23.679 -10.639  0.00  0.00    +0.176 C 
BRANCH  11  12
ATOM     12  O   UNL     1      34.922 -24.855  -9.833  0.00  0.00    -0.376 OA
ATOM     13  H   UNL     1      35.745 -24.912  -9.322  0.00  0.00    +0.211 HD
ENDBRANCH  11  12
BRANCH  11  14
ATOM     14  C   UNL     1      36.382 -23.192 -10.773  0.00  0.00    +0.239 C 
BRANCH  14  15
ATOM     15  O   UNL     1      37.265 -24.303 -10.841  0.00  0.00    -0.472 OA
BRANCH  15  16
ATOM     16  C   UNL     1      37.585 -24.763 -12.092  0.00  0.00    +0.139 C 
ATOM     17  C   UNL     1      38.522 -24.081 -12.868  0.00  0.00    +0.037 C 
ATOM     18  C   UNL     1      36.972 -25.914 -12.588  0.00  0.00    +0.037 C 
ATOM     19  C   UNL     1      38.846 -24.550 -14.142  0.00  0.00    +0.003 C 
ATOM     20  C   UNL     1      37.296 -26.382 -13.862  0.00  0.00    +0.003 C 
ATOM     21  C   UNL     1      38.233 -25.700 -14.639  0.00  0.00    +0.000 C 
ENDBRANCH  15  16
ENDBRANCH  14  15
ENDBRANCH  11  14
ENDBRANCH  10  11
ENDBRANCH   2   9
BRANCH   3  22
ATOM     22  C   UNL     1      34.543 -23.168 -15.553  0.00  0.00    +0.033 C 
BRANCH  22  23
ATOM     23  C   UNL     1      35.639 -22.368 -14.916  0.00  0.00    -0.030 C 
ATOM     24  C   UNL     1      36.669 -21.839 -15.594  0.00  0.00    -0.031 C 
BRANCH  24  25
ATOM     25  C   UNL     1      36.852 -21.984 -17.076  0.00  0.00    +0.026 C 
BRANCH  25  26
ATOM     26  C   UNL     1      36.096 -20.922 -17.883  0.00  0.00    +0.014 C 
BRANCH  26  27
ATOM     27  C   UNL     1      35.001 -21.470 -18.799  0.00  0.00    +0.087 C 
BRANCH  27  30
ATOM     28  O   UNL     1      33.303 -20.338 -20.065  0.00  0.00    -0.274 OA
ATOM     29  N   UNL     1      35.492 -19.508 -20.216  0.00  0.00    -0.189 N 
ATOM     30  C   UNL     1      34.486 -20.413 -19.751  0.00  0.00    +0.241 C 
ATOM     31  H   UNL     1      36.410 -19.643 -19.887  0.00  0.00    +0.176 HD
BRANCH  29  32
ATOM     32  S   UNL     1      35.228 -18.211 -21.296  0.00  0.00    +0.058 S 
ATOM     33  O   UNL     1      34.289 -18.640 -22.315  0.00  0.00    -0.154 OA
ATOM     34  O   UNL     1      35.017 -16.983 -20.558  0.00  0.00    -0.154 OA
ATOM     35  C   UNL     1      36.832 -18.126 -22.053  0.00  0.00    +0.200 C 
ENDBRANCH  29  32
ENDBRANCH  27  30
ENDBRANCH  26  27
ENDBRANCH  25  26
ENDBRANCH  24  25
ENDBRANCH  22  23
ENDBRANCH   3  22
TORSDOF 14
ENDMDL
MODEL 6
REMARK VINA RESULT:     -10.3      2.143      2.666
REMARK  Name = 5312153
REMARK  14 active torsions:
REMARK  status: ('A' for Active; 'I' for Inactive)
REMARK    1  A    between atoms: C_2  and  C_9
REMARK    2  A    between atoms: C_3  and  C_22
REMARK    3  A    between atoms: C_4  and  O_7
REMARK    4  A    between atoms: C_10  and  C_11
REMARK    5  A    between atoms: C_11  and  O_12
REMARK    6  A    between atoms: C_11  and  C_14
REMARK    7  A    between atoms: C_14  and  O_15
REMARK    8  A    between atoms: O_15  and  C_16
REMARK    9  A    between atoms: C_22  and  C_23
REMARK   10  A    between atoms: C_24  and  C_25
REMARK   11  A    between atoms: C_25  and  C_26
REMARK   12  A    between atoms: C_26  and  C_27
REMARK   13  A    between atoms: C_27  and  C_30
REMARK   14  A    between atoms: N_29  and  S_32
REMARK                            x       y       z     vdW  Elec       q    Type
REMARK                         _______ _______ _______ _____ _____    ______ ____
ROOT
ATOM      1  O   UNL     1      34.079 -23.161 -16.928  0.00  0.00    -0.296 OA
ATOM      2  C   UNL     1      34.013 -20.587 -19.349  0.00  0.00    +0.056 C 
ATOM      3  C   UNL     1      34.822 -21.754 -18.760  0.00  0.00    +0.068 C 
ATOM      4  C   UNL     1      32.582 -21.134 -19.425  0.00  0.00    +0.122 C 
ATOM      5  C   UNL     1      32.401 -21.917 -18.126  0.00  0.00    +0.094 C 
ATOM      6  C   UNL     1      33.804 -22.372 -17.823  0.00  0.00    +0.153 C 
ENDROOT
BRANCH   4   7
ATOM      7  O   UNL     1      31.653 -20.064 -19.494  0.00  0.00    -0.384 OA
ATOM      8  H   UNL     1      30.927 -20.225 -18.871  0.00  0.00    +0.210 HD
ENDBRANCH   4   7
BRANCH   2   9
ATOM      9  C   UNL     1      34.536 -20.136 -20.675  0.00  0.00    -0.026 C 
ATOM     10  C   UNL     1      34.616 -18.850 -21.048  0.00  0.00    +0.002 C 
BRANCH  10  11
ATOM     11  C   UNL     1      35.141 -18.399 -22.383  0.00  0.00    +0.176 C 
BRANCH  11  12
ATOM     12  O   UNL     1      34.744 -19.368 -23.351  0.00  0.00    -0.376 OA
ATOM     13  H   UNL     1      34.822 -18.988 -24.240  0.00  0.00    +0.211 HD
ENDBRANCH  11  12
BRANCH  11  14
ATOM     14  C   UNL     1      34.575 -17.038 -22.778  0.00  0.00    +0.239 C 
BRANCH  14  15
ATOM     15  O   UNL     1      34.728 -16.121 -21.704  0.00  0.00    -0.472 OA
BRANCH  15  16
ATOM     16  C   UNL     1      34.070 -14.923 -21.816  0.00  0.00    +0.139 C 
ATOM     17  C   UNL     1      33.535 -14.312 -20.682  0.00  0.00    +0.037 C 
ATOM     18  C   UNL     1      33.935 -14.316 -23.066  0.00  0.00    +0.037 C 
ATOM     19  C   UNL     1      32.865 -13.093 -20.797  0.00  0.00    +0.003 C 
ATOM     20  C   UNL     1      33.265 -13.098 -23.180  0.00  0.00    +0.003 C 
ATOM     21  C   UNL     1      32.730 -12.487 -22.046  0.00  0.00    +0.000 C 
ENDBRANCH  15  16
ENDBRANCH  14  15
ENDBRANCH  11  14
ENDBRANCH  10  11
ENDBRANCH   2   9
BRANCH   3  22
ATOM     22  C   UNL     1      36.083 -21.310 -18.039  0.00  0.00    +0.033 C 
BRANCH  22  23
ATOM     23  C   UNL     1      35.882 -21.303 -16.554  0.00  0.00    -0.030 C 
ATOM     24  C   UNL     1      36.680 -21.944 -15.688  0.00  0.00    -0.031 C 
BRANCH  24  25
ATOM     25  C   UNL     1      37.876 -22.752 -16.100  0.00  0.00    +0.026 C 
BRANCH  25  26
ATOM     26  C   UNL     1      38.683 -23.284 -14.909  0.00  0.00    +0.014 C 
BRANCH  26  27
ATOM     27  C   UNL     1      38.648 -24.802 -14.736  0.00  0.00    +0.087 C 
BRANCH  27  30
ATOM     28  O   UNL     1      37.436 -26.388 -13.400  0.00  0.00    -0.274 OA
ATOM     29  N   UNL     1      37.280 -24.127 -12.793  0.00  0.00    -0.189 N 
ATOM     30  C   UNL     1      37.732 -25.216 -13.605  0.00  0.00    +0.241 C 
ATOM     31  H   UNL     1      37.593 -23.224 -13.031  0.00  0.00    +0.176 HD
BRANCH  29  32
ATOM     32  S   UNL     1      36.240 -24.268 -11.446  0.00  0.00    +0.058 S 
ATOM     33  O   UNL     1      36.232 -25.651 -11.009  0.00  0.00    -0.154 OA
ATOM     34  O   UNL     1      36.489 -23.191 -10.509  0.00  0.00    -0.154 OA
ATOM     35  C   UNL     1      34.683 -23.952 -12.240  0.00  0.00    +0.200 C 
ENDBRANCH  29  32
ENDBRANCH  27  30
ENDBRANCH  26  27
ENDBRANCH  25  26
ENDBRANCH  24  25
ENDBRANCH  22  23
ENDBRANCH   3  22
TORSDOF 14
ENDMDL
MODEL 7
REMARK VINA RESULT:     -10.0      3.431      9.286
REMARK  Name = 5312153
REMARK  14 active torsions:
REMARK  status: ('A' for Active; 'I' for Inactive)
REMARK    1  A    between atoms: C_2  and  C_9
REMARK    2  A    between atoms: C_3  and  C_22
REMARK    3  A    between atoms: C_4  and  O_7
REMARK    4  A    between atoms: C_10  and  C_11
REMARK    5  A    between atoms: C_11  and  O_12
REMARK    6  A    between atoms: C_11  and  C_14
REMARK    7  A    between atoms: C_14  and  O_15
REMARK    8  A    between atoms: O_15  and  C_16
REMARK    9  A    between atoms: C_22  and  C_23
REMARK   10  A    between atoms: C_24  and  C_25
REMARK   11  A    between atoms: C_25  and  C_26
REMARK   12  A    between atoms: C_26  and  C_27
REMARK   13  A    between atoms: C_27  and  C_30
REMARK   14  A    between atoms: N_29  and  S_32
REMARK                            x       y       z     vdW  Elec       q    Type
REMARK                         _______ _______ _______ _____ _____    ______ ____
ROOT
ATOM      1  O   UNL     1      39.595 -24.444 -15.072  0.00  0.00    -0.296 OA
ATOM      2  C   UNL     1      36.581 -24.182 -13.244  0.00  0.00    +0.056 C 
ATOM      3  C   UNL     1      37.216 -24.222 -14.643  0.00  0.00    +0.068 C 
ATOM      4  C   UNL     1      37.331 -25.272 -12.468  0.00  0.00    +0.122 C 
ATOM      5  C   UNL     1      38.786 -25.122 -12.907  0.00  0.00    +0.094 C 
ATOM      6  C   UNL     1      38.650 -24.574 -14.304  0.00  0.00    +0.153 C 
ENDROOT
BRANCH   4   7
ATOM      7  O   UNL     1      37.207 -25.052 -11.073  0.00  0.00    -0.384 OA
ATOM      8  H   UNL     1      38.089 -24.971 -10.679  0.00  0.00    +0.210 HD
ENDBRANCH   4   7
BRANCH   2   9
ATOM      9  C   UNL     1      35.103 -24.402 -13.277  0.00  0.00    -0.026 C 
ATOM     10  C   UNL     1      34.217 -23.620 -12.643  0.00  0.00    +0.002 C 
BRANCH  10  11
ATOM     11  C   UNL     1      32.730 -23.845 -12.676  0.00  0.00    +0.176 C 
BRANCH  11  12
ATOM     12  O   UNL     1      32.101 -22.614 -12.331  0.00  0.00    -0.376 OA
ATOM     13  H   UNL     1      31.252 -22.543 -12.795  0.00  0.00    +0.211 HD
ENDBRANCH  11  12
BRANCH  11  14
ATOM     14  C   UNL     1      32.259 -24.275 -14.062  0.00  0.00    +0.239 C 
BRANCH  14  15
ATOM     15  O   UNL     1      30.898 -24.680 -14.006  0.00  0.00    -0.472 OA
BRANCH  15  16
ATOM     16  C   UNL     1      30.019 -24.009 -14.817  0.00  0.00    +0.139 C 
ATOM     17  C   UNL     1      28.743 -24.526 -15.042  0.00  0.00    +0.037 C 
ATOM     18  C   UNL     1      30.403 -22.810 -15.419  0.00  0.00    +0.037 C 
ATOM     19  C   UNL     1      27.850 -23.843 -15.869  0.00  0.00    +0.003 C 
ATOM     20  C   UNL     1      29.510 -22.128 -16.245  0.00  0.00    +0.003 C 
ATOM     21  C   UNL     1      28.234 -22.645 -16.470  0.00  0.00    +0.000 C 
ENDBRANCH  15  16
ENDBRANCH  14  15
ENDBRANCH  11  14
ENDBRANCH  10  11
ENDBRANCH   2   9
BRANCH   3  22
ATOM     22  C   UNL     1      37.102 -22.908 -15.395  0.00  0.00    +0.033 C 
BRANCH  22  23
ATOM     23  C   UNL     1      35.668 -22.516 -15.585  0.00  0.00    -0.030 C 
ATOM     24  C   UNL     1      35.222 -21.787 -16.618  0.00  0.00    -0.031 C 
BRANCH  24  25
ATOM     25  C   UNL     1      36.107 -21.269 -17.714  0.00  0.00    +0.026 C 
BRANCH  25  26
ATOM     26  C   UNL     1      35.552 -21.545 -19.117  0.00  0.00    +0.014 C 
BRANCH  26  27
ATOM     27  C   UNL     1      34.051 -21.302 -19.273  0.00  0.00    +0.087 C 
BRANCH  27  30
ATOM     28  O   UNL     1      32.641 -19.898 -20.618  0.00  0.00    -0.274 OA
ATOM     29  N   UNL     1      34.909 -19.315 -20.464  0.00  0.00    -0.189 N 
ATOM     30  C   UNL     1      33.765 -20.129 -20.185  0.00  0.00    +0.241 C 
ATOM     31  H   UNL     1      35.763 -19.577 -20.050  0.00  0.00    +0.176 HD
BRANCH  29  32
ATOM     32  S   UNL     1      34.910 -17.925 -21.456  0.00  0.00    +0.058 S 
ATOM     33  O   UNL     1      34.042 -18.165 -22.593  0.00  0.00    -0.154 OA
ATOM     34  O   UNL     1      34.764 -16.734 -20.645  0.00  0.00    -0.154 OA
ATOM     35  C   UNL     1      36.585 -17.983 -22.043  0.00  0.00    +0.200 C 
ENDBRANCH  29  32
ENDBRANCH  27  30
ENDBRANCH  26  27
ENDBRANCH  25  26
ENDBRANCH  24  25
ENDBRANCH  22  23
ENDBRANCH   3  22
TORSDOF 14
ENDMDL
MODEL 8
REMARK VINA RESULT:     -10.0      5.568     11.423
REMARK  Name = 5312153
REMARK  14 active torsions:
REMARK  status: ('A' for Active; 'I' for Inactive)
REMARK    1  A    between atoms: C_2  and  C_9
REMARK    2  A    between atoms: C_3  and  C_22
REMARK    3  A    between atoms: C_4  and  O_7
REMARK    4  A    between atoms: C_10  and  C_11
REMARK    5  A    between atoms: C_11  and  O_12
REMARK    6  A    between atoms: C_11  and  C_14
REMARK    7  A    between atoms: C_14  and  O_15
REMARK    8  A    between atoms: O_15  and  C_16
REMARK    9  A    between atoms: C_22  and  C_23
REMARK   10  A    between atoms: C_24  and  C_25
REMARK   11  A    between atoms: C_25  and  C_26
REMARK   12  A    between atoms: C_26  and  C_27
REMARK   13  A    between atoms: C_27  and  C_30
REMARK   14  A    between atoms: N_29  and  S_32
REMARK                            x       y       z     vdW  Elec       q    Type
REMARK                         _______ _______ _______ _____ _____    ______ ____
ROOT
ATOM      1  O   UNL     1      33.247 -15.597 -24.410  0.00  0.00    -0.296 OA
ATOM      2  C   UNL     1      34.602 -18.337 -22.635  0.00  0.00    +0.056 C 
ATOM      3  C   UNL     1      33.914 -16.968 -22.521  0.00  0.00    +0.068 C 
ATOM      4  C   UNL     1      33.843 -19.036 -23.770  0.00  0.00    +0.122 C 
ATOM      5  C   UNL     1      33.621 -17.943 -24.813  0.00  0.00    +0.094 C 
ATOM      6  C   UNL     1      33.560 -16.696 -23.969  0.00  0.00    +0.153 C 
ENDROOT
BRANCH   4   7
ATOM      7  O   UNL     1      34.630 -20.086 -24.310  0.00  0.00    -0.384 OA
ATOM      8  H   UNL     1      34.668 -19.998 -25.275  0.00  0.00    +0.210 HD
ENDBRANCH   4   7
BRANCH   2   9
ATOM      9  C   UNL     1      34.570 -19.105 -21.353  0.00  0.00    -0.026 C 
ATOM     10  C   UNL     1      33.496 -19.775 -20.910  0.00  0.00    +0.002 C 
BRANCH  10  11
ATOM     11  C   UNL     1      33.466 -20.546 -19.620  0.00  0.00    +0.176 C 
BRANCH  11  12
ATOM     12  O   UNL     1      32.296 -21.360 -19.632  0.00  0.00    -0.376 OA
ATOM     13  H   UNL     1      32.402 -22.068 -20.286  0.00  0.00    +0.211 HD
ENDBRANCH  11  12
BRANCH  11  14
ATOM     14  C   UNL     1      34.694 -21.439 -19.471  0.00  0.00    +0.239 C 
BRANCH  14  15
ATOM     15  O   UNL     1      35.581 -20.886 -18.508  0.00  0.00    -0.472 OA
BRANCH  15  16
ATOM     16  C   UNL     1      35.697 -21.556 -17.318  0.00  0.00    +0.139 C 
ATOM     17  C   UNL     1      34.604 -22.247 -16.796  0.00  0.00    +0.037 C 
ATOM     18  C   UNL     1      36.910 -21.544 -16.627  0.00  0.00    +0.037 C 
ATOM     19  C   UNL     1      34.723 -22.927 -15.583  0.00  0.00    +0.003 C 
ATOM     20  C   UNL     1      37.028 -22.225 -15.415  0.00  0.00    +0.003 C 
ATOM     21  C   UNL     1      35.934 -22.916 -14.893  0.00  0.00    +0.000 C 
ENDBRANCH  15  16
ENDBRANCH  14  15
ENDBRANCH  11  14
ENDBRANCH  10  11
ENDBRANCH   2   9
BRANCH   3  22
ATOM     22  C   UNL     1      34.806 -15.891 -21.929  0.00  0.00    +0.033 C 
BRANCH  22  23
ATOM     23  C   UNL     1      34.070 -15.082 -20.905  0.00  0.00    -0.030 C 
ATOM     24  C   UNL     1      33.629 -13.832 -21.114  0.00  0.00    -0.031 C 
BRANCH  24  25
ATOM     25  C   UNL     1      33.821 -13.088 -22.404  0.00  0.00    +0.026 C 
BRANCH  25  26
ATOM     26  C   UNL     1      32.571 -12.318 -22.846  0.00  0.00    +0.014 C 
BRANCH  26  27
ATOM     27  C   UNL     1      31.523 -12.112 -21.752  0.00  0.00    +0.087 C 
BRANCH  27  30
ATOM     28  O   UNL     1      30.382 -10.265 -20.724  0.00  0.00    -0.274 OA
ATOM     29  N   UNL     1      31.995  -9.763 -22.353  0.00  0.00    -0.189 N 
ATOM     30  C   UNL     1      31.214 -10.646 -21.541  0.00  0.00    +0.241 C 
ATOM     31  H   UNL     1      32.651 -10.171 -22.964  0.00  0.00    +0.176 HD
BRANCH  29  32
ATOM     32  S   UNL     1      31.881  -8.059 -22.347  0.00  0.00    +0.058 S 
ATOM     33  O   UNL     1      30.763  -7.666 -23.184  0.00  0.00    -0.154 OA
ATOM     34  O   UNL     1      32.013  -7.556 -20.995  0.00  0.00    -0.154 OA
ATOM     35  C   UNL     1      33.371  -7.660 -23.227  0.00  0.00    +0.200 C 
ENDBRANCH  29  32
ENDBRANCH  27  30
ENDBRANCH  26  27
ENDBRANCH  25  26
ENDBRANCH  24  25
ENDBRANCH  22  23
ENDBRANCH   3  22
TORSDOF 14
ENDMDL
MODEL 9
REMARK VINA RESULT:      -9.9      3.338      6.246
REMARK  Name = 5312153
REMARK  14 active torsions:
REMARK  status: ('A' for Active; 'I' for Inactive)
REMARK    1  A    between atoms: C_2  and  C_9
REMARK    2  A    between atoms: C_3  and  C_22
REMARK    3  A    between atoms: C_4  and  O_7
REMARK    4  A    between atoms: C_10  and  C_11
REMARK    5  A    between atoms: C_11  and  O_12
REMARK    6  A    between atoms: C_11  and  C_14
REMARK    7  A    between atoms: C_14  and  O_15
REMARK    8  A    between atoms: O_15  and  C_16
REMARK    9  A    between atoms: C_22  and  C_23
REMARK   10  A    between atoms: C_24  and  C_25
REMARK   11  A    between atoms: C_25  and  C_26
REMARK   12  A    between atoms: C_26  and  C_27
REMARK   13  A    between atoms: C_27  and  C_30
REMARK   14  A    between atoms: N_29  and  S_32
REMARK                            x       y       z     vdW  Elec       q    Type
REMARK                         _______ _______ _______ _____ _____    ______ ____
ROOT
ATOM      1  O   UNL     1      35.284 -19.865 -23.310  0.00  0.00    -0.296 OA
ATOM      2  C   UNL     1      33.943 -16.614 -22.948  0.00  0.00    +0.056 C 
ATOM      3  C   UNL     1      35.073 -17.572 -22.541  0.00  0.00    +0.068 C 
ATOM      4  C   UNL     1      33.775 -16.864 -24.453  0.00  0.00    +0.122 C 
ATOM      5  C   UNL     1      33.903 -18.377 -24.607  0.00  0.00    +0.094 C 
ATOM      6  C   UNL     1      34.810 -18.746 -23.462  0.00  0.00    +0.153 C 
ENDROOT
BRANCH   4   7
ATOM      7  O   UNL     1      32.496 -16.426 -24.881  0.00  0.00    -0.384 OA
ATOM      8  H   UNL     1      32.490 -16.341 -25.847  0.00  0.00    +0.210 HD
ENDBRANCH   4   7
BRANCH   2   9
ATOM      9  C   UNL     1      34.253 -15.188 -22.625  0.00  0.00    -0.026 C 
ATOM     10  C   UNL     1      33.356 -14.322 -22.131  0.00  0.00    +0.002 C 
BRANCH  10  11
ATOM     11  C   UNL     1      33.670 -12.888 -21.808  0.00  0.00    +0.176 C 
BRANCH  11  12
ATOM     12  O   UNL     1      33.882 -12.206 -23.041  0.00  0.00    -0.376 OA
ATOM     13  H   UNL     1      33.035 -11.871 -23.376  0.00  0.00    +0.211 HD
ENDBRANCH  11  12
BRANCH  11  14
ATOM     14  C   UNL     1      32.523 -12.217 -21.057  0.00  0.00    +0.239 C 
BRANCH  14  15
ATOM     15  O   UNL     1      31.671 -11.547 -21.975  0.00  0.00    -0.472 OA
BRANCH  15  16
ATOM     16  C   UNL     1      31.533 -10.193 -21.815  0.00  0.00    +0.139 C 
ATOM     17  C   UNL     1      31.614  -9.347 -22.922  0.00  0.00    +0.037 C 
ATOM     18  C   UNL     1      31.313  -9.660 -20.544  0.00  0.00    +0.037 C 
ATOM     19  C   UNL     1      31.475  -7.968 -22.757  0.00  0.00    +0.003 C 
ATOM     20  C   UNL     1      31.174  -8.282 -20.381  0.00  0.00    +0.003 C 
ATOM     21  C   UNL     1      31.255  -7.436 -21.487  0.00  0.00    +0.000 C 
ENDBRANCH  15  16
ENDBRANCH  14  15
ENDBRANCH  11  14
ENDBRANCH  10  11
ENDBRANCH   2   9
BRANCH   3  22
ATOM     22  C   UNL     1      35.033 -17.964 -21.074  0.00  0.00    +0.033 C 
BRANCH  22  23
ATOM     23  C   UNL     1      33.983 -19.003 -20.821  0.00  0.00    -0.030 C 
ATOM     24  C   UNL     1      34.211 -20.154 -20.170  0.00  0.00    -0.031 C 
BRANCH  24  25
ATOM     25  C   UNL     1      35.549 -20.544 -19.614  0.00  0.00    +0.026 C 
BRANCH  25  26
ATOM     26  C   UNL     1      35.447 -21.426 -18.363  0.00  0.00    +0.014 C 
BRANCH  26  27
ATOM     27  C   UNL     1      36.507 -21.154 -17.296  0.00  0.00    +0.087 C 
BRANCH  27  30
ATOM     28  O   UNL     1      35.262 -22.089 -15.469  0.00  0.00    -0.274 OA
ATOM     29  N   UNL     1      37.474 -22.820 -15.750  0.00  0.00    -0.189 N 
ATOM     30  C   UNL     1      36.322 -22.039 -16.084  0.00  0.00    +0.241 C 
ATOM     31  H   UNL     1      38.270 -22.720 -16.322  0.00  0.00    +0.176 HD
BRANCH  29  32
ATOM     32  S   UNL     1      37.580 -23.911 -14.441  0.00  0.00    +0.058 S 
ATOM     33  O   UNL     1      37.597 -23.153 -13.205  0.00  0.00    -0.154 OA
ATOM     34  O   UNL     1      36.651 -25.007 -14.630  0.00  0.00    -0.154 OA
ATOM     35  C   UNL     1      39.222 -24.534 -14.707  0.00  0.00    +0.200 C 
ENDBRANCH  29  32
ENDBRANCH  27  30
ENDBRANCH  26  27
ENDBRANCH  25  26
ENDBRANCH  24  25
ENDBRANCH  22  23
ENDBRANCH   3  22
TORSDOF 14
ENDMDL
