MODEL 1
REMARK VINA RESULT:     -13.5      0.000      0.000
REMARK  Name = 51049992
REMARK  10 active torsions:
REMARK  status: ('A' for Active; 'I' for Inactive)
REMARK    1  A    between atoms: C_1  and  C_7
REMARK    2  A    between atoms: C_6  and  C_23
REMARK    3  A    between atoms: C_7  and  N_8
REMARK    4  A    between atoms: C_23  and  O_24
REMARK    5  A    between atoms: O_24  and  C_25
REMARK    6  A    between atoms: C_26  and  C_31
REMARK    7  A    between atoms: C_31  and  C_32
REMARK    8  A    between atoms: C_31  and  C_35
REMARK    9  A    between atoms: C_35  and  C_37
REMARK   10  A    between atoms: C_37  and  O_38
REMARK                            x       y       z     vdW  Elec       q    Type
REMARK                         _______ _______ _______ _____ _____    ______ ____
ROOT
ATOM      1  C   UNL     1      32.376 -12.763 -21.914  0.00  0.00    -0.043 C 
ATOM      2  C   UNL     1      32.338 -13.050 -23.279  0.00  0.00    -0.007 C 
ATOM      3  C   UNL     1      33.111 -13.577 -21.051  0.00  0.00    -0.007 C 
ATOM      4  C   UNL     1      33.035 -14.149 -23.780  0.00  0.00    -0.001 C 
ATOM      5  C   UNL     1      33.808 -14.676 -21.552  0.00  0.00    -0.001 C 
ATOM      6  C   UNL     1      33.770 -14.962 -22.917  0.00  0.00    +0.021 C 
ENDROOT
BRANCH   1   7
ATOM      7  C   UNL     1      31.623 -11.577 -21.373  0.00  0.00    -0.050 C 
BRANCH   7   8
ATOM      8  N   UNL     1      31.684 -10.433 -22.284  0.00  0.00    +0.390 N 
ATOM      9  C   UNL     1      32.257  -7.650 -23.067  0.00  0.00    +0.033 C 
ATOM     10  C   UNL     1      33.161  -8.832 -23.461  0.00  0.00    -0.015 C 
ATOM     11  C   UNL     1      30.835  -8.157 -22.765  0.00  0.00    -0.015 C 
ATOM     12  C   UNL     1      30.834  -9.340 -21.791  0.00  0.00    -0.076 C 
ATOM     13  C   UNL     1      33.073  -9.990 -22.460  0.00  0.00    -0.076 C 
ATOM     14  C   UNL     1      32.255  -6.566 -24.125  0.00  0.00    -0.019 C 
ATOM     15  C   UNL     1      32.835  -6.867 -21.889  0.00  0.00    -0.023 C 
ATOM     16  C   UNL     1      32.761  -5.375 -23.582  0.00  0.00    -0.004 C 
ATOM     17  C   UNL     1      33.113  -5.590 -22.192  0.00  0.00    -0.005 C 
ATOM     18  C   UNL     1      31.844  -6.624 -25.447  0.00  0.00    -0.004 C 
ATOM     19  C   UNL     1      32.866  -4.224 -24.346  0.00  0.00    -0.000 C 
ATOM     20  C   UNL     1      31.946  -5.468 -26.225  0.00  0.00    -0.000 C 
ATOM     21  C   UNL     1      32.453  -4.278 -25.679  0.00  0.00    -0.000 C 
ATOM     22  H   UNL     1      31.328 -10.720 -23.195  0.00  0.00    -0.079 HD
ENDBRANCH   7   8
ENDBRANCH   1   7
BRANCH   6  23
ATOM     23  C   UNL     1      34.517 -16.135 -23.453  0.00  0.00    +0.232 C 
BRANCH  23  24
ATOM     24  O   UNL     1      35.550 -16.496 -22.542  0.00  0.00    -0.471 OA
BRANCH  24  25
ATOM     25  C   UNL     1      35.359 -17.641 -21.815  0.00  0.00    +0.139 C 
ATOM     26  C   UNL     1      34.972 -19.975 -20.337  0.00  0.00    -0.010 C 
ATOM     27  C   UNL     1      36.413 -18.185 -21.082  0.00  0.00    +0.037 C 
ATOM     28  C   UNL     1      34.111 -18.264 -21.809  0.00  0.00    +0.037 C 
ATOM     29  C   UNL     1      36.220 -19.352 -20.342  0.00  0.00    -0.000 C 
ATOM     30  C   UNL     1      33.918 -19.431 -21.071  0.00  0.00    -0.000 C 
BRANCH  26  31
ATOM     31  C   UNL     1      34.764 -21.222 -19.546  0.00  0.00    +0.097 C 
BRANCH  31  32
ATOM     32  C   UNL     1      35.661 -21.277 -18.359  0.00  0.00    -0.087 C 
ATOM     33  C   UNL     1      36.371 -21.323 -17.390  0.00  0.00    -0.090 C 
ATOM     34  C   UNL     1      37.233 -21.376 -16.212  0.00  0.00    +0.090 C 
ENDBRANCH  31  32
BRANCH  31  35
ATOM     35  C   UNL     1      33.286 -21.402 -19.105  0.00  0.00    +0.127 C 
BRANCH  35  37
ATOM     36  O   UNL     1      32.626 -22.661 -17.121  0.00  0.00    -0.250 OA
ATOM     37  C   UNL     1      33.033 -22.645 -18.274  0.00  0.00    +0.315 C 
BRANCH  37  38
ATOM     38  O   UNL     1      33.304 -23.774 -18.980  0.00  0.00    -0.480 OA
ATOM     39  H   UNL     1      34.102 -24.240 -18.830  0.00  0.00    +0.295 HD
ENDBRANCH  37  38
ENDBRANCH  35  37
ENDBRANCH  31  35
ENDBRANCH  26  31
ENDBRANCH  24  25
ENDBRANCH  23  24
ENDBRANCH   6  23
TORSDOF 10
ENDMDL
MODEL 2
REMARK VINA RESULT:     -13.4      4.066     13.392
REMARK  Name = 51049992
REMARK  10 active torsions:
REMARK  status: ('A' for Active; 'I' for Inactive)
REMARK    1  A    between atoms: C_1  and  C_7
REMARK    2  A    between atoms: C_6  and  C_23
REMARK    3  A    between atoms: C_7  and  N_8
REMARK    4  A    between atoms: C_23  and  O_24
REMARK    5  A    between atoms: O_24  and  C_25
REMARK    6  A    between atoms: C_26  and  C_31
REMARK    7  A    between atoms: C_31  and  C_32
REMARK    8  A    between atoms: C_31  and  C_35
REMARK    9  A    between atoms: C_35  and  C_37
REMARK   10  A    between atoms: C_37  and  O_38
REMARK                            x       y       z     vdW  Elec       q    Type
REMARK                         _______ _______ _______ _____ _____    ______ ____
ROOT
ATOM      1  C   UNL     1      33.197 -13.286 -23.091  0.00  0.00    -0.043 C 
ATOM      2  C   UNL     1      32.636 -13.417 -21.820  0.00  0.00    -0.007 C 
ATOM      3  C   UNL     1      33.058 -12.088 -23.793  0.00  0.00    -0.007 C 
ATOM      4  C   UNL     1      31.938 -12.352 -21.252  0.00  0.00    -0.001 C 
ATOM      5  C   UNL     1      32.360 -11.023 -23.225  0.00  0.00    -0.001 C 
ATOM      6  C   UNL     1      31.800 -11.155 -21.954  0.00  0.00    +0.021 C 
ENDROOT
BRANCH   1   7
ATOM      7  C   UNL     1      33.950 -14.436 -23.704  0.00  0.00    -0.050 C 
BRANCH   7   8
ATOM      8  N   UNL     1      33.788 -15.667 -22.929  0.00  0.00    +0.390 N 
ATOM      9  C   UNL     1      34.696 -18.053 -21.456  0.00  0.00    +0.033 C 
ATOM     10  C   UNL     1      34.185 -16.782 -20.754  0.00  0.00    -0.015 C 
ATOM     11  C   UNL     1      34.140 -18.118 -22.890  0.00  0.00    -0.015 C 
ATOM     12  C   UNL     1      34.357 -16.810 -23.657  0.00  0.00    -0.076 C 
ATOM     13  C   UNL     1      34.401 -15.523 -21.602  0.00  0.00    -0.076 C 
ATOM     14  C   UNL     1      34.365 -19.303 -20.667  0.00  0.00    -0.019 C 
ATOM     15  C   UNL     1      36.222 -18.130 -21.442  0.00  0.00    -0.023 C 
ATOM     16  C   UNL     1      35.551 -19.951 -20.288  0.00  0.00    -0.004 C 
ATOM     17  C   UNL     1      36.689 -19.201 -20.782  0.00  0.00    -0.005 C 
ATOM     18  C   UNL     1      33.130 -19.822 -20.314  0.00  0.00    -0.004 C 
ATOM     19  C   UNL     1      35.527 -21.125 -19.553  0.00  0.00    -0.000 C 
ATOM     20  C   UNL     1      33.095 -21.006 -19.572  0.00  0.00    -0.000 C 
ATOM     21  C   UNL     1      34.283 -21.652 -19.195  0.00  0.00    -0.000 C 
ATOM     22  H   UNL     1      32.793 -15.844 -22.797  0.00  0.00    -0.079 HD
ENDBRANCH   7   8
ENDBRANCH   1   7
BRANCH   6  23
ATOM     23  C   UNL     1      31.057 -10.015 -21.346  0.00  0.00    +0.232 C 
BRANCH  23  24
ATOM     24  O   UNL     1      30.433  -9.254 -22.374  0.00  0.00    -0.471 OA
BRANCH  24  25
ATOM     25  C   UNL     1      30.999  -8.044 -22.676  0.00  0.00    +0.139 C 
ATOM     26  C   UNL     1      32.155  -5.580 -23.292  0.00  0.00    -0.010 C 
ATOM     27  C   UNL     1      30.695  -7.412 -23.881  0.00  0.00    +0.037 C 
ATOM     28  C   UNL     1      31.883  -7.443 -21.778  0.00  0.00    +0.037 C 
ATOM     29  C   UNL     1      31.272  -6.180 -24.189  0.00  0.00    -0.000 C 
ATOM     30  C   UNL     1      32.461  -6.212 -22.087  0.00  0.00    -0.000 C 
BRANCH  26  31
ATOM     31  C   UNL     1      32.773  -4.263 -23.620  0.00  0.00    +0.097 C 
BRANCH  31  32
ATOM     32  C   UNL     1      33.792  -4.387 -24.698  0.00  0.00    -0.087 C 
ATOM     33  C   UNL     1      34.603  -4.482 -25.580  0.00  0.00    -0.090 C 
ATOM     34  C   UNL     1      35.588  -4.599 -26.653  0.00  0.00    +0.090 C 
ENDBRANCH  31  32
BRANCH  31  35
ATOM     35  C   UNL     1      31.715  -3.195 -24.010  0.00  0.00    +0.127 C 
BRANCH  35  37
ATOM     36  O   UNL     1      29.722  -3.137 -22.603  0.00  0.00    -0.250 OA
ATOM     37  C   UNL     1      30.847  -2.732 -22.856  0.00  0.00    +0.315 C 
BRANCH  37  38
ATOM     38  O   UNL     1      31.484  -1.796 -22.104  0.00  0.00    -0.480 OA
ATOM     39  H   UNL     1      32.418  -1.736 -22.123  0.00  0.00    +0.295 HD
ENDBRANCH  37  38
ENDBRANCH  35  37
ENDBRANCH  31  35
ENDBRANCH  26  31
ENDBRANCH  24  25
ENDBRANCH  23  24
ENDBRANCH   6  23
TORSDOF 10
ENDMDL
MODEL 3
REMARK VINA RESULT:     -13.2      1.959      3.333
REMARK  Name = 51049992
REMARK  10 active torsions:
REMARK  status: ('A' for Active; 'I' for Inactive)
REMARK    1  A    between atoms: C_1  and  C_7
REMARK    2  A    between atoms: C_6  and  C_23
REMARK    3  A    between atoms: C_7  and  N_8
REMARK    4  A    between atoms: C_23  and  O_24
REMARK    5  A    between atoms: O_24  and  C_25
REMARK    6  A    between atoms: C_26  and  C_31
REMARK    7  A    between atoms: C_31  and  C_32
REMARK    8  A    between atoms: C_31  and  C_35
REMARK    9  A    between atoms: C_35  and  C_37
REMARK   10  A    between atoms: C_37  and  O_38
REMARK                            x       y       z     vdW  Elec       q    Type
REMARK                         _______ _______ _______ _____ _____    ______ ____
ROOT
ATOM      1  C   UNL     1      33.436 -14.256 -23.190  0.00  0.00    -0.043 C 
ATOM      2  C   UNL     1      33.601 -14.158 -21.808  0.00  0.00    -0.007 C 
ATOM      3  C   UNL     1      33.854 -15.405 -23.862  0.00  0.00    -0.007 C 
ATOM      4  C   UNL     1      34.183 -15.208 -21.099  0.00  0.00    -0.001 C 
ATOM      5  C   UNL     1      34.436 -16.455 -23.153  0.00  0.00    -0.001 C 
ATOM      6  C   UNL     1      34.601 -16.357 -21.772  0.00  0.00    +0.021 C 
ENDROOT
BRANCH   1   7
ATOM      7  C   UNL     1      32.807 -13.122 -23.955  0.00  0.00    -0.050 C 
BRANCH   7   8
ATOM      8  N   UNL     1      32.686 -11.915 -23.137  0.00  0.00    +0.390 N 
ATOM      9  C   UNL     1      31.821  -9.166 -22.515  0.00  0.00    +0.033 C 
ATOM     10  C   UNL     1      31.134 -10.412 -21.926  0.00  0.00    -0.015 C 
ATOM     11  C   UNL     1      33.260  -9.514 -22.939  0.00  0.00    -0.015 C 
ATOM     12  C   UNL     1      33.321 -10.773 -23.810  0.00  0.00    -0.076 C 
ATOM     13  C   UNL     1      31.276 -11.638 -22.836  0.00  0.00    -0.076 C 
ATOM     14  C   UNL     1      31.785  -7.997 -21.553  0.00  0.00    -0.019 C 
ATOM     15  C   UNL     1      31.021  -8.577 -23.676  0.00  0.00    -0.023 C 
ATOM     16  C   UNL     1      31.067  -6.936 -22.126  0.00  0.00    -0.004 C 
ATOM     17  C   UNL     1      30.603  -7.324 -23.444  0.00  0.00    -0.005 C 
ATOM     18  C   UNL     1      32.336  -7.878 -20.287  0.00  0.00    -0.004 C 
ATOM     19  C   UNL     1      30.884  -5.742 -21.449  0.00  0.00    -0.000 C 
ATOM     20  C   UNL     1      32.158  -6.676 -19.596  0.00  0.00    -0.000 C 
ATOM     21  C   UNL     1      31.438  -5.617 -20.172  0.00  0.00    -0.000 C 
ATOM     22  H   UNL     1      33.171 -12.067 -22.254  0.00  0.00    -0.079 HD
ENDBRANCH   7   8
ENDBRANCH   1   7
BRANCH   6  23
ATOM     23  C   UNL     1      35.220 -17.481 -21.013  0.00  0.00    +0.232 C 
BRANCH  23  24
ATOM     24  O   UNL     1      34.729 -18.718 -21.516  0.00  0.00    -0.471 OA
BRANCH  24  25
ATOM     25  C   UNL     1      34.293 -19.630 -20.592  0.00  0.00    +0.139 C 
ATOM     26  C   UNL     1      33.403 -21.486 -18.708  0.00  0.00    -0.010 C 
ATOM     27  C   UNL     1      32.925 -19.816 -20.387  0.00  0.00    +0.037 C 
ATOM     28  C   UNL     1      35.215 -20.372 -19.854  0.00  0.00    +0.037 C 
ATOM     29  C   UNL     1      32.481 -20.744 -19.446  0.00  0.00    -0.000 C 
ATOM     30  C   UNL     1      34.770 -21.300 -18.912  0.00  0.00    -0.000 C 
BRANCH  26  31
ATOM     31  C   UNL     1      32.928 -22.478 -17.701  0.00  0.00    +0.097 C 
BRANCH  31  32
ATOM     32  C   UNL     1      33.908 -22.648 -16.593  0.00  0.00    -0.087 C 
ATOM     33  C   UNL     1      34.711 -22.777 -15.708  0.00  0.00    -0.090 C 
ATOM     34  C   UNL     1      35.689 -22.935 -14.633  0.00  0.00    +0.090 C 
ENDBRANCH  31  32
BRANCH  31  35
ATOM     35  C   UNL     1      31.533 -22.113 -17.125  0.00  0.00    +0.127 C 
BRANCH  35  37
ATOM     36  O   UNL     1      30.776 -24.043 -15.837  0.00  0.00    -0.250 OA
ATOM     37  C   UNL     1      31.159 -22.882 -15.873  0.00  0.00    +0.315 C 
BRANCH  37  38
ATOM     38  O   UNL     1      31.314 -22.118 -14.760  0.00  0.00    -0.480 OA
ATOM     39  H   UNL     1      31.376 -21.187 -14.835  0.00  0.00    +0.295 HD
ENDBRANCH  37  38
ENDBRANCH  35  37
ENDBRANCH  31  35
ENDBRANCH  26  31
ENDBRANCH  24  25
ENDBRANCH  23  24
ENDBRANCH   6  23
TORSDOF 10
ENDMDL
MODEL 4
REMARK VINA RESULT:     -12.9      4.217     14.102
REMARK  Name = 51049992
REMARK  10 active torsions:
REMARK  status: ('A' for Active; 'I' for Inactive)
REMARK    1  A    between atoms: C_1  and  C_7
REMARK    2  A    between atoms: C_6  and  C_23
REMARK    3  A    between atoms: C_7  and  N_8
REMARK    4  A    between atoms: C_23  and  O_24
REMARK    5  A    between atoms: O_24  and  C_25
REMARK    6  A    between atoms: C_26  and  C_31
REMARK    7  A    between atoms: C_31  and  C_32
REMARK    8  A    between atoms: C_31  and  C_35
REMARK    9  A    between atoms: C_35  and  C_37
REMARK   10  A    between atoms: C_37  and  O_38
REMARK                            x       y       z     vdW  Elec       q    Type
REMARK                         _______ _______ _______ _____ _____    ______ ____
ROOT
ATOM      1  C   UNL     1      33.030 -21.426 -18.724  0.00  0.00    -0.043 C 
ATOM      2  C   UNL     1      34.415 -21.434 -18.894  0.00  0.00    -0.007 C 
ATOM      3  C   UNL     1      32.237 -20.583 -19.504  0.00  0.00    -0.007 C 
ATOM      4  C   UNL     1      35.006 -20.600 -19.843  0.00  0.00    -0.001 C 
ATOM      5  C   UNL     1      32.829 -19.749 -20.453  0.00  0.00    -0.001 C 
ATOM      6  C   UNL     1      34.213 -19.758 -20.622  0.00  0.00    +0.021 C 
ENDROOT
BRANCH   1   7
ATOM      7  C   UNL     1      32.393 -22.326 -17.700  0.00  0.00    -0.050 C 
BRANCH   7   8
ATOM      8  N   UNL     1      33.211 -22.442 -16.493  0.00  0.00    +0.390 N 
ATOM      9  C   UNL     1      35.030 -23.780 -14.599  0.00  0.00    +0.033 C 
ATOM     10  C   UNL     1      35.503 -22.704 -15.593  0.00  0.00    -0.015 C 
ATOM     11  C   UNL     1      33.520 -23.626 -14.340  0.00  0.00    -0.015 C 
ATOM     12  C   UNL     1      32.715 -23.530 -15.640  0.00  0.00    -0.076 C 
ATOM     13  C   UNL     1      34.622 -22.643 -16.846  0.00  0.00    -0.076 C 
ATOM     14  C   UNL     1      35.828 -23.746 -13.312  0.00  0.00    -0.019 C 
ATOM     15  C   UNL     1      35.375 -25.187 -15.085  0.00  0.00    -0.023 C 
ATOM     16  C   UNL     1      36.501 -24.965 -13.141  0.00  0.00    -0.004 C 
ATOM     17  C   UNL     1      36.203 -25.842 -14.256  0.00  0.00    -0.005 C 
ATOM     18  C   UNL     1      35.950 -22.732 -12.375  0.00  0.00    -0.004 C 
ATOM     19  C   UNL     1      37.306 -25.195 -12.037  0.00  0.00    -0.000 C 
ATOM     20  C   UNL     1      36.759 -22.954 -11.258  0.00  0.00    -0.000 C 
ATOM     21  C   UNL     1      37.432 -24.175 -11.090  0.00  0.00    -0.000 C 
ATOM     22  H   UNL     1      33.141 -21.573 -15.964  0.00  0.00    -0.079 HD
ENDBRANCH   7   8
ENDBRANCH   1   7
BRANCH   6  23
ATOM     23  C   UNL     1      34.845 -18.869 -21.639  0.00  0.00    +0.232 C 
BRANCH  23  24
ATOM     24  O   UNL     1      35.335 -17.695 -21.002  0.00  0.00    -0.471 OA
BRANCH  24  25
ATOM     25  C   UNL     1      34.785 -16.503 -21.395  0.00  0.00    +0.139 C 
ATOM     26  C   UNL     1      33.668 -14.076 -22.195  0.00  0.00    -0.010 C 
ATOM     27  C   UNL     1      34.786 -16.146 -22.743  0.00  0.00    +0.037 C 
ATOM     28  C   UNL     1      34.226 -15.646 -20.447  0.00  0.00    +0.037 C 
ATOM     29  C   UNL     1      34.227 -14.932 -23.143  0.00  0.00    -0.000 C 
ATOM     30  C   UNL     1      33.668 -14.432 -20.847  0.00  0.00    -0.000 C 
BRANCH  26  31
ATOM     31  C   UNL     1      33.070 -12.777 -22.622  0.00  0.00    +0.097 C 
BRANCH  31  32
ATOM     32  C   UNL     1      32.859 -12.728 -24.095  0.00  0.00    -0.087 C 
ATOM     33  C   UNL     1      32.684 -12.704 -25.284  0.00  0.00    -0.090 C 
ATOM     34  C   UNL     1      32.475 -12.678 -26.730  0.00  0.00    +0.090 C 
ENDBRANCH  31  32
BRANCH  31  35
ATOM     35  C   UNL     1      31.740 -12.469 -21.884  0.00  0.00    +0.127 C 
BRANCH  35  37
ATOM     36  O   UNL     1      32.014 -10.092 -22.365  0.00  0.00    -0.250 OA
ATOM     37  C   UNL     1      31.347 -11.005 -21.897  0.00  0.00    +0.315 C 
BRANCH  37  38
ATOM     38  O   UNL     1      30.128 -10.815 -21.327  0.00  0.00    -0.480 OA
ATOM     39  H   UNL     1      29.515 -11.521 -21.286  0.00  0.00    +0.295 HD
ENDBRANCH  37  38
ENDBRANCH  35  37
ENDBRANCH  31  35
ENDBRANCH  26  31
ENDBRANCH  24  25
ENDBRANCH  23  24
ENDBRANCH   6  23
TORSDOF 10
ENDMDL
MODEL 5
REMARK VINA RESULT:     -12.8      2.900      6.083
REMARK  Name = 51049992
REMARK  10 active torsions:
REMARK  status: ('A' for Active; 'I' for Inactive)
REMARK    1  A    between atoms: C_1  and  C_7
REMARK    2  A    between atoms: C_6  and  C_23
REMARK    3  A    between atoms: C_7  and  N_8
REMARK    4  A    between atoms: C_23  and  O_24
REMARK    5  A    between atoms: O_24  and  C_25
REMARK    6  A    between atoms: C_26  and  C_31
REMARK    7  A    between atoms: C_31  and  C_32
REMARK    8  A    between atoms: C_31  and  C_35
REMARK    9  A    between atoms: C_35  and  C_37
REMARK   10  A    between atoms: C_37  and  O_38
REMARK                            x       y       z     vdW  Elec       q    Type
REMARK                         _______ _______ _______ _____ _____    ______ ____
ROOT
ATOM      1  C   UNL     1      34.654 -17.812 -22.565  0.00  0.00    -0.043 C 
ATOM      2  C   UNL     1      35.794 -17.913 -21.767  0.00  0.00    -0.007 C 
ATOM      3  C   UNL     1      33.597 -18.705 -22.386  0.00  0.00    -0.007 C 
ATOM      4  C   UNL     1      35.876 -18.905 -20.790  0.00  0.00    -0.001 C 
ATOM      5  C   UNL     1      33.680 -19.697 -21.409  0.00  0.00    -0.001 C 
ATOM      6  C   UNL     1      34.819 -19.797 -20.611  0.00  0.00    +0.021 C 
ENDROOT
BRANCH   1   7
ATOM      7  C   UNL     1      34.566 -16.741 -23.619  0.00  0.00    -0.050 C 
BRANCH   7   8
ATOM      8  N   UNL     1      33.753 -15.608 -23.176  0.00  0.00    +0.390 N 
ATOM      9  C   UNL     1      32.992 -12.768 -22.961  0.00  0.00    +0.033 C 
ATOM     10  C   UNL     1      32.261 -13.761 -23.882  0.00  0.00    -0.015 C 
ATOM     11  C   UNL     1      33.702 -13.531 -21.828  0.00  0.00    -0.015 C 
ATOM     12  C   UNL     1      34.554 -14.692 -22.353  0.00  0.00    -0.076 C 
ATOM     13  C   UNL     1      33.168 -14.914 -24.330  0.00  0.00    -0.076 C 
ATOM     14  C   UNL     1      32.056 -11.706 -22.423  0.00  0.00    -0.019 C 
ATOM     15  C   UNL     1      33.967 -11.889 -23.742  0.00  0.00    -0.023 C 
ATOM     16  C   UNL     1      32.477 -10.441 -22.859  0.00  0.00    -0.004 C 
ATOM     17  C   UNL     1      33.666 -10.583 -23.676  0.00  0.00    -0.005 C 
ATOM     18  C   UNL     1      30.933 -11.843 -21.622  0.00  0.00    -0.004 C 
ATOM     19  C   UNL     1      31.789  -9.291 -22.505  0.00  0.00    -0.000 C 
ATOM     20  C   UNL     1      30.232 -10.689 -21.260  0.00  0.00    -0.000 C 
ATOM     21  C   UNL     1      30.657  -9.425 -21.697  0.00  0.00    -0.000 C 
ATOM     22  H   UNL     1      32.988 -15.958 -22.601  0.00  0.00    -0.079 HD
ENDBRANCH   7   8
ENDBRANCH   1   7
BRANCH   6  23
ATOM     23  C   UNL     1      34.906 -20.856 -19.565  0.00  0.00    +0.232 C 
BRANCH  23  24
ATOM     24  O   UNL     1      35.826 -20.452 -18.558  0.00  0.00    -0.471 OA
BRANCH  24  25
ATOM     25  C   UNL     1      35.926 -21.257 -17.454  0.00  0.00    +0.139 C 
ATOM     26  C   UNL     1      36.129 -22.894 -15.204  0.00  0.00    -0.010 C 
ATOM     27  C   UNL     1      34.836 -22.029 -17.053  0.00  0.00    +0.037 C 
ATOM     28  C   UNL     1      37.118 -21.303 -16.730  0.00  0.00    +0.037 C 
ATOM     29  C   UNL     1      34.938 -22.848 -15.928  0.00  0.00    -0.000 C 
ATOM     30  C   UNL     1      37.219 -22.121 -15.605  0.00  0.00    -0.000 C 
BRANCH  26  31
ATOM     31  C   UNL     1      36.238 -23.769 -14.001  0.00  0.00    +0.097 C 
BRANCH  31  32
ATOM     32  C   UNL     1      37.568 -24.433 -13.924  0.00  0.00    -0.087 C 
ATOM     33  C   UNL     1      38.649 -24.955 -13.867  0.00  0.00    -0.090 C 
ATOM     34  C   UNL     1      39.964 -25.589 -13.801  0.00  0.00    +0.090 C 
ENDBRANCH  31  32
BRANCH  31  35
ATOM     35  C   UNL     1      35.952 -22.999 -12.684  0.00  0.00    +0.127 C 
BRANCH  35  37
ATOM     36  O   UNL     1      36.675 -24.024 -10.590  0.00  0.00    -0.250 OA
ATOM     37  C   UNL     1      35.828 -23.887 -11.461  0.00  0.00    +0.315 C 
BRANCH  37  38
ATOM     38  O   UNL     1      34.627 -24.523 -11.432  0.00  0.00    -0.480 OA
ATOM     39  H   UNL     1      33.882 -24.100 -11.056  0.00  0.00    +0.295 HD
ENDBRANCH  37  38
ENDBRANCH  35  37
ENDBRANCH  31  35
ENDBRANCH  26  31
ENDBRANCH  24  25
ENDBRANCH  23  24
ENDBRANCH   6  23
TORSDOF 10
ENDMDL
MODEL 6
REMARK VINA RESULT:     -12.7      4.329     14.046
REMARK  Name = 51049992
REMARK  10 active torsions:
REMARK  status: ('A' for Active; 'I' for Inactive)
REMARK    1  A    between atoms: C_1  and  C_7
REMARK    2  A    between atoms: C_6  and  C_23
REMARK    3  A    between atoms: C_7  and  N_8
REMARK    4  A    between atoms: C_23  and  O_24
REMARK    5  A    between atoms: O_24  and  C_25
REMARK    6  A    between atoms: C_26  and  C_31
REMARK    7  A    between atoms: C_31  and  C_32
REMARK    8  A    between atoms: C_31  and  C_35
REMARK    9  A    between atoms: C_35  and  C_37
REMARK   10  A    between atoms: C_37  and  O_38
REMARK                            x       y       z     vdW  Elec       q    Type
REMARK                         _______ _______ _______ _____ _____    ______ ____
ROOT
ATOM      1  C   UNL     1      33.416 -21.356 -18.851  0.00  0.00    -0.043 C 
ATOM      2  C   UNL     1      34.810 -21.295 -18.827  0.00  0.00    -0.007 C 
ATOM      3  C   UNL     1      32.698 -20.540 -19.726  0.00  0.00    -0.007 C 
ATOM      4  C   UNL     1      35.485 -20.419 -19.678  0.00  0.00    -0.001 C 
ATOM      5  C   UNL     1      33.373 -19.664 -20.576  0.00  0.00    -0.001 C 
ATOM      6  C   UNL     1      34.766 -19.604 -20.552  0.00  0.00    +0.021 C 
ENDROOT
BRANCH   1   7
ATOM      7  C   UNL     1      32.689 -22.301 -17.933  0.00  0.00    -0.050 C 
BRANCH   7   8
ATOM      8  N   UNL     1      33.370 -22.442 -16.646  0.00  0.00    +0.390 N 
ATOM      9  C   UNL     1      35.006 -23.804 -14.607  0.00  0.00    +0.033 C 
ATOM     10  C   UNL     1      35.554 -22.678 -15.502  0.00  0.00    -0.015 C 
ATOM     11  C   UNL     1      33.473 -23.700 -14.515  0.00  0.00    -0.015 C 
ATOM     12  C   UNL     1      32.815 -23.575 -15.893  0.00  0.00    -0.076 C 
ATOM     13  C   UNL     1      34.818 -22.592 -16.844  0.00  0.00    -0.076 C 
ATOM     14  C   UNL     1      35.653 -23.798 -13.237  0.00  0.00    -0.019 C 
ATOM     15  C   UNL     1      35.447 -25.181 -15.101  0.00  0.00    -0.023 C 
ATOM     16  C   UNL     1      36.340 -25.005 -13.034  0.00  0.00    -0.004 C 
ATOM     17  C   UNL     1      36.196 -25.845 -14.207  0.00  0.00    -0.005 C 
ATOM     18  C   UNL     1      35.638 -22.818 -12.258  0.00  0.00    -0.004 C 
ATOM     19  C   UNL     1      37.023 -25.255 -11.855  0.00  0.00    -0.000 C 
ATOM     20  C   UNL     1      36.324 -23.061 -11.065  0.00  0.00    -0.000 C 
ATOM     21  C   UNL     1      37.010 -24.270 -10.865  0.00  0.00    -0.000 C 
ATOM     22  H   UNL     1      33.215 -21.597 -16.098  0.00  0.00    -0.079 HD
ENDBRANCH   7   8
ENDBRANCH   1   7
BRANCH   6  23
ATOM     23  C   UNL     1      35.487 -18.669 -21.463  0.00  0.00    +0.232 C 
BRANCH  23  24
ATOM     24  O   UNL     1      35.549 -17.379 -20.866  0.00  0.00    -0.471 OA
BRANCH  24  25
ATOM     25  C   UNL     1      34.792 -16.395 -21.442  0.00  0.00    +0.139 C 
ATOM     26  C   UNL     1      33.250 -14.388 -22.616  0.00  0.00    -0.010 C 
ATOM     27  C   UNL     1      34.631 -16.358 -22.827  0.00  0.00    +0.037 C 
ATOM     28  C   UNL     1      34.181 -15.427 -20.644  0.00  0.00    +0.037 C 
ATOM     29  C   UNL     1      33.860 -15.355 -23.414  0.00  0.00    -0.000 C 
ATOM     30  C   UNL     1      33.411 -14.424 -21.231  0.00  0.00    -0.000 C 
BRANCH  26  31
ATOM     31  C   UNL     1      32.425 -13.315 -23.243  0.00  0.00    +0.097 C 
BRANCH  31  32
ATOM     32  C   UNL     1      31.983 -12.306 -22.241  0.00  0.00    -0.087 C 
ATOM     33  C   UNL     1      31.609 -11.499 -21.433  0.00  0.00    -0.090 C 
ATOM     34  C   UNL     1      31.153 -10.516 -20.452  0.00  0.00    +0.090 C 
ENDBRANCH  31  32
BRANCH  31  35
ATOM     35  C   UNL     1      33.164 -12.611 -24.414  0.00  0.00    +0.127 C 
BRANCH  35  37
ATOM     36  O   UNL     1      31.984 -12.328 -26.532  0.00  0.00    -0.250 OA
ATOM     37  C   UNL     1      32.671 -13.016 -25.790  0.00  0.00    +0.315 C 
BRANCH  37  38
ATOM     38  O   UNL     1      33.104 -14.261 -26.123  0.00  0.00    -0.480 OA
ATOM     39  H   UNL     1      33.978 -14.386 -26.432  0.00  0.00    +0.295 HD
ENDBRANCH  37  38
ENDBRANCH  35  37
ENDBRANCH  31  35
ENDBRANCH  26  31
ENDBRANCH  24  25
ENDBRANCH  23  24
ENDBRANCH   6  23
TORSDOF 10
ENDMDL
MODEL 7
REMARK VINA RESULT:     -12.6      2.624      5.367
REMARK  Name = 51049992
REMARK  10 active torsions:
REMARK  status: ('A' for Active; 'I' for Inactive)
REMARK    1  A    between atoms: C_1  and  C_7
REMARK    2  A    between atoms: C_6  and  C_23
REMARK    3  A    between atoms: C_7  and  N_8
REMARK    4  A    between atoms: C_23  and  O_24
REMARK    5  A    between atoms: O_24  and  C_25
REMARK    6  A    between atoms: C_26  and  C_31
REMARK    7  A    between atoms: C_31  and  C_32
REMARK    8  A    between atoms: C_31  and  C_35
REMARK    9  A    between atoms: C_35  and  C_37
REMARK   10  A    between atoms: C_37  and  O_38
REMARK                            x       y       z     vdW  Elec       q    Type
REMARK                         _______ _______ _______ _____ _____    ______ ____
ROOT
ATOM      1  C   UNL     1      34.425 -17.116 -23.239  0.00  0.00    -0.043 C 
ATOM      2  C   UNL     1      35.340 -16.786 -22.239  0.00  0.00    -0.007 C 
ATOM      3  C   UNL     1      33.866 -18.394 -23.277  0.00  0.00    -0.007 C 
ATOM      4  C   UNL     1      35.697 -17.732 -21.279  0.00  0.00    -0.001 C 
ATOM      5  C   UNL     1      34.223 -19.341 -22.317  0.00  0.00    -0.001 C 
ATOM      6  C   UNL     1      35.138 -19.010 -21.318  0.00  0.00    +0.021 C 
ENDROOT
BRANCH   1   7
ATOM      7  C   UNL     1      34.041 -16.094 -24.275  0.00  0.00    -0.050 C 
BRANCH   7   8
ATOM      8  N   UNL     1      33.336 -14.957 -23.682  0.00  0.00    +0.390 N 
ATOM      9  C   UNL     1      32.821 -12.108 -23.127  0.00  0.00    +0.033 C 
ATOM     10  C   UNL     1      31.987 -12.928 -24.129  0.00  0.00    -0.015 C 
ATOM     11  C   UNL     1      33.492 -13.049 -22.110  0.00  0.00    -0.015 C 
ATOM     12  C   UNL     1      34.230 -14.207 -22.789  0.00  0.00    -0.076 C 
ATOM     13  C   UNL     1      32.783 -14.091 -24.732  0.00  0.00    -0.076 C 
ATOM     14  C   UNL     1      31.989 -11.042 -22.444  0.00  0.00    -0.019 C 
ATOM     15  C   UNL     1      33.847 -11.226 -23.838  0.00  0.00    -0.023 C 
ATOM     16  C   UNL     1      32.504  -9.773 -22.750  0.00  0.00    -0.004 C 
ATOM     17  C   UNL     1      33.657  -9.916 -23.617  0.00  0.00    -0.005 C 
ATOM     18  C   UNL     1      30.879 -11.178 -21.626  0.00  0.00    -0.004 C 
ATOM     19  C   UNL     1      31.923  -8.620 -22.248  0.00  0.00    -0.000 C 
ATOM     20  C   UNL     1      30.286 -10.021 -21.115  0.00  0.00    -0.000 C 
ATOM     21  C   UNL     1      30.803  -8.753 -21.423  0.00  0.00    -0.000 C 
ATOM     22  H   UNL     1      32.558 -15.307 -23.124  0.00  0.00    -0.079 HD
ENDBRANCH   7   8
ENDBRANCH   1   7
BRANCH   6  23
ATOM     23  C   UNL     1      35.516 -20.021 -20.290  0.00  0.00    +0.232 C 
BRANCH  23  24
ATOM     24  O   UNL     1      34.380 -20.813 -19.964  0.00  0.00    -0.471 OA
BRANCH  24  25
ATOM     25  C   UNL     1      34.385 -21.426 -18.739  0.00  0.00    +0.139 C 
ATOM     26  C   UNL     1      34.396 -22.672 -16.243  0.00  0.00    -0.010 C 
ATOM     27  C   UNL     1      33.245 -22.089 -18.285  0.00  0.00    +0.037 C 
ATOM     28  C   UNL     1      35.531 -21.385 -17.944  0.00  0.00    +0.037 C 
ATOM     29  C   UNL     1      33.251 -22.713 -17.037  0.00  0.00    -0.000 C 
ATOM     30  C   UNL     1      35.536 -22.008 -16.696  0.00  0.00    -0.000 C 
BRANCH  26  31
ATOM     31  C   UNL     1      34.403 -23.338 -14.909  0.00  0.00    +0.097 C 
BRANCH  31  32
ATOM     32  C   UNL     1      33.062 -23.288 -14.262  0.00  0.00    -0.087 C 
ATOM     33  C   UNL     1      31.975 -23.237 -13.753  0.00  0.00    -0.090 C 
ATOM     34  C   UNL     1      30.653 -23.172 -13.133  0.00  0.00    +0.090 C 
ENDBRANCH  31  32
BRANCH  31  35
ATOM     35  C   UNL     1      34.901 -24.807 -14.985  0.00  0.00    +0.127 C 
BRANCH  35  37
ATOM     36  O   UNL     1      37.011 -24.335 -13.853  0.00  0.00    -0.250 OA
ATOM     37  C   UNL     1      36.376 -24.978 -14.676  0.00  0.00    +0.315 C 
BRANCH  37  38
ATOM     38  O   UNL     1      36.926 -25.966 -15.430  0.00  0.00    -0.480 OA
ATOM     39  H   UNL     1      36.983 -26.837 -15.092  0.00  0.00    +0.295 HD
ENDBRANCH  37  38
ENDBRANCH  35  37
ENDBRANCH  31  35
ENDBRANCH  26  31
ENDBRANCH  24  25
ENDBRANCH  23  24
ENDBRANCH   6  23
TORSDOF 10
ENDMDL
MODEL 8
REMARK VINA RESULT:     -12.6      4.213     14.163
REMARK  Name = 51049992
REMARK  10 active torsions:
REMARK  status: ('A' for Active; 'I' for Inactive)
REMARK    1  A    between atoms: C_1  and  C_7
REMARK    2  A    between atoms: C_6  and  C_23
REMARK    3  A    between atoms: C_7  and  N_8
REMARK    4  A    between atoms: C_23  and  O_24
REMARK    5  A    between atoms: O_24  and  C_25
REMARK    6  A    between atoms: C_26  and  C_31
REMARK    7  A    between atoms: C_31  and  C_32
REMARK    8  A    between atoms: C_31  and  C_35
REMARK    9  A    between atoms: C_35  and  C_37
REMARK   10  A    between atoms: C_37  and  O_38
REMARK                            x       y       z     vdW  Elec       q    Type
REMARK                         _______ _______ _______ _____ _____    ______ ____
ROOT
ATOM      1  C   UNL     1      33.219 -21.499 -18.674  0.00  0.00    -0.043 C 
ATOM      2  C   UNL     1      34.587 -21.465 -18.946  0.00  0.00    -0.007 C 
ATOM      3  C   UNL     1      32.348 -20.671 -19.383  0.00  0.00    -0.007 C 
ATOM      4  C   UNL     1      35.083 -20.606 -19.926  0.00  0.00    -0.001 C 
ATOM      5  C   UNL     1      32.844 -19.812 -20.363  0.00  0.00    -0.001 C 
ATOM      6  C   UNL     1      34.211 -19.779 -20.634  0.00  0.00    +0.021 C 
ENDROOT
BRANCH   1   7
ATOM      7  C   UNL     1      32.685 -22.426 -17.616  0.00  0.00    -0.050 C 
BRANCH   7   8
ATOM      8  N   UNL     1      33.761 -23.052 -16.846  0.00  0.00    +0.390 N 
ATOM      9  C   UNL     1      35.388 -23.587 -14.447  0.00  0.00    +0.033 C 
ATOM     10  C   UNL     1      34.319 -24.565 -14.967  0.00  0.00    -0.015 C 
ATOM     11  C   UNL     1      35.863 -22.674 -15.593  0.00  0.00    -0.015 C 
ATOM     12  C   UNL     1      34.694 -22.033 -16.348  0.00  0.00    -0.076 C 
ATOM     13  C   UNL     1      33.208 -23.852 -15.746  0.00  0.00    -0.076 C 
ATOM     14  C   UNL     1      36.543 -24.314 -13.791  0.00  0.00    -0.019 C 
ATOM     15  C   UNL     1      34.877 -22.775 -13.258  0.00  0.00    -0.023 C 
ATOM     16  C   UNL     1      36.632 -23.938 -12.442  0.00  0.00    -0.004 C 
ATOM     17  C   UNL     1      35.586 -22.982 -12.137  0.00  0.00    -0.005 C 
ATOM     18  C   UNL     1      37.436 -25.225 -14.333  0.00  0.00    -0.004 C 
ATOM     19  C   UNL     1      37.609 -24.462 -11.611  0.00  0.00    -0.000 C 
ATOM     20  C   UNL     1      38.425 -25.759 -13.504  0.00  0.00    -0.000 C 
ATOM     21  C   UNL     1      38.511 -25.381 -12.154  0.00  0.00    -0.000 C 
ATOM     22  H   UNL     1      34.281 -23.679 -17.459  0.00  0.00    -0.079 HD
ENDBRANCH   7   8
ENDBRANCH   1   7
BRANCH   6  23
ATOM     23  C   UNL     1      34.741 -18.862 -21.684  0.00  0.00    +0.232 C 
BRANCH  23  24
ATOM     24  O   UNL     1      35.275 -17.696 -21.068  0.00  0.00    -0.471 OA
BRANCH  24  25
ATOM     25  C   UNL     1      34.745 -16.495 -21.456  0.00  0.00    +0.139 C 
ATOM     26  C   UNL     1      33.662 -14.048 -22.248  0.00  0.00    -0.010 C 
ATOM     27  C   UNL     1      34.196 -15.634 -20.506  0.00  0.00    +0.037 C 
ATOM     28  C   UNL     1      34.751 -16.132 -22.803  0.00  0.00    +0.037 C 
ATOM     29  C   UNL     1      33.655 -14.410 -20.902  0.00  0.00    -0.000 C 
ATOM     30  C   UNL     1      34.209 -14.909 -23.199  0.00  0.00    -0.000 C 
BRANCH  26  31
ATOM     31  C   UNL     1      33.083 -12.741 -22.672  0.00  0.00    +0.097 C 
BRANCH  31  32
ATOM     32  C   UNL     1      32.839 -12.698 -24.140  0.00  0.00    -0.087 C 
ATOM     33  C   UNL     1      32.652 -12.677 -25.327  0.00  0.00    -0.090 C 
ATOM     34  C   UNL     1      32.428 -12.652 -26.771  0.00  0.00    +0.090 C 
ENDBRANCH  31  32
BRANCH  31  35
ATOM     35  C   UNL     1      31.777 -12.397 -21.906  0.00  0.00    +0.127 C 
BRANCH  35  37
ATOM     36  O   UNL     1      32.022 -10.048 -22.520  0.00  0.00    -0.250 OA
ATOM     37  C   UNL     1      31.367 -10.940 -22.001  0.00  0.00    +0.315 C 
BRANCH  37  38
ATOM     38  O   UNL     1      30.146 -10.734 -21.440  0.00  0.00    -0.480 OA
ATOM     39  H   UNL     1      29.498 -10.237 -21.898  0.00  0.00    +0.295 HD
ENDBRANCH  37  38
ENDBRANCH  35  37
ENDBRANCH  31  35
ENDBRANCH  26  31
ENDBRANCH  24  25
ENDBRANCH  23  24
ENDBRANCH   6  23
TORSDOF 10
ENDMDL
MODEL 9
REMARK VINA RESULT:     -12.4      2.561      5.234
REMARK  Name = 51049992
REMARK  10 active torsions:
REMARK  status: ('A' for Active; 'I' for Inactive)
REMARK    1  A    between atoms: C_1  and  C_7
REMARK    2  A    between atoms: C_6  and  C_23
REMARK    3  A    between atoms: C_7  and  N_8
REMARK    4  A    between atoms: C_23  and  O_24
REMARK    5  A    between atoms: O_24  and  C_25
REMARK    6  A    between atoms: C_26  and  C_31
REMARK    7  A    between atoms: C_31  and  C_32
REMARK    8  A    between atoms: C_31  and  C_35
REMARK    9  A    between atoms: C_35  and  C_37
REMARK   10  A    between atoms: C_37  and  O_38
REMARK                            x       y       z     vdW  Elec       q    Type
REMARK                         _______ _______ _______ _____ _____    ______ ____
ROOT
ATOM      1  C   UNL     1      34.455 -17.231 -23.077  0.00  0.00    -0.043 C 
ATOM      2  C   UNL     1      35.388 -16.965 -22.074  0.00  0.00    -0.007 C 
ATOM      3  C   UNL     1      33.801 -18.463 -23.110  0.00  0.00    -0.007 C 
ATOM      4  C   UNL     1      35.667 -17.930 -21.107  0.00  0.00    -0.001 C 
ATOM      5  C   UNL     1      34.080 -19.428 -22.143  0.00  0.00    -0.001 C 
ATOM      6  C   UNL     1      35.012 -19.161 -21.141  0.00  0.00    +0.021 C 
ENDROOT
BRANCH   1   7
ATOM      7  C   UNL     1      34.154 -16.189 -24.121  0.00  0.00    -0.050 C 
BRANCH   7   8
ATOM      8  N   UNL     1      33.429 -15.049 -23.559  0.00  0.00    +0.390 N 
ATOM      9  C   UNL     1      32.868 -12.197 -23.073  0.00  0.00    +0.033 C 
ATOM     10  C   UNL     1      32.055 -13.051 -24.062  0.00  0.00    -0.015 C 
ATOM     11  C   UNL     1      33.545 -13.105 -22.030  0.00  0.00    -0.015 C 
ATOM     12  C   UNL     1      34.305 -14.267 -22.677  0.00  0.00    -0.076 C 
ATOM     13  C   UNL     1      32.872 -14.216 -24.633  0.00  0.00    -0.076 C 
ATOM     14  C   UNL     1      32.017 -11.128 -22.420  0.00  0.00    -0.019 C 
ATOM     15  C   UNL     1      33.888 -11.317 -23.795  0.00  0.00    -0.023 C 
ATOM     16  C   UNL     1      32.516  -9.859 -22.750  0.00  0.00    -0.004 C 
ATOM     17  C   UNL     1      33.678 -10.005 -23.605  0.00  0.00    -0.005 C 
ATOM     18  C   UNL     1      30.902 -11.262 -21.608  0.00  0.00    -0.004 C 
ATOM     19  C   UNL     1      31.914  -8.703 -22.279  0.00  0.00    -0.000 C 
ATOM     20  C   UNL     1      30.288 -10.102 -21.127  0.00  0.00    -0.000 C 
ATOM     21  C   UNL     1      30.790  -8.834 -21.460  0.00  0.00    -0.000 C 
ATOM     22  H   UNL     1      32.652 -15.398 -22.999  0.00  0.00    -0.079 HD
ENDBRANCH   7   8
ENDBRANCH   1   7
BRANCH   6  23
ATOM     23  C   UNL     1      35.308 -20.192 -20.105  0.00  0.00    +0.232 C 
BRANCH  23  24
ATOM     24  O   UNL     1      34.166 -21.021 -19.923  0.00  0.00    -0.471 OA
BRANCH  24  25
ATOM     25  C   UNL     1      34.006 -21.588 -18.686  0.00  0.00    +0.139 C 
ATOM     26  C   UNL     1      33.681 -22.746 -16.169  0.00  0.00    -0.010 C 
ATOM     27  C   UNL     1      35.087 -21.663 -17.807  0.00  0.00    +0.037 C 
ATOM     28  C   UNL     1      32.762 -22.093 -18.306  0.00  0.00    +0.037 C 
ATOM     29  C   UNL     1      34.924 -22.242 -16.549  0.00  0.00    -0.000 C 
ATOM     30  C   UNL     1      32.600 -22.673 -17.048  0.00  0.00    -0.000 C 
BRANCH  26  31
ATOM     31  C   UNL     1      33.506 -23.366 -14.823  0.00  0.00    +0.097 C 
BRANCH  31  32
ATOM     32  C   UNL     1      34.692 -23.135 -13.954  0.00  0.00    -0.087 C 
ATOM     33  C   UNL     1      35.645 -22.931 -13.250  0.00  0.00    -0.090 C 
ATOM     34  C   UNL     1      36.805 -22.683 -12.397  0.00  0.00    +0.090 C 
ENDBRANCH  31  32
BRANCH  31  35
ATOM     35  C   UNL     1      32.219 -22.871 -14.109  0.00  0.00    +0.127 C 
BRANCH  35  37
ATOM     36  O   UNL     1      30.509 -23.784 -12.626  0.00  0.00    -0.250 OA
ATOM     37  C   UNL     1      31.459 -23.959 -13.375  0.00  0.00    +0.315 C 
BRANCH  37  38
ATOM     38  O   UNL     1      31.959 -25.190 -13.663  0.00  0.00    -0.480 OA
ATOM     39  H   UNL     1      31.646 -25.942 -13.202  0.00  0.00    +0.295 HD
ENDBRANCH  37  38
ENDBRANCH  35  37
ENDBRANCH  31  35
ENDBRANCH  26  31
ENDBRANCH  24  25
ENDBRANCH  23  24
ENDBRANCH   6  23
TORSDOF 10
ENDMDL
