MODEL 1
REMARK VINA RESULT:     -11.0      0.000      0.000
REMARK  Name = 11682175
REMARK  5 active torsions:
REMARK  status: ('A' for Active; 'I' for Inactive)
REMARK    1  A    between atoms: N_2  and  C_24
REMARK    2  A    between atoms: C_4  and  C_14
REMARK    3  A    between atoms: C_5  and  C_7
REMARK    4  A    between atoms: C_17  and  S_20
REMARK    5  A    between atoms: C_24  and  C_25
REMARK                            x       y       z     vdW  Elec       q    Type
REMARK                         _______ _______ _______ _____ _____    ______ ____
ROOT
ATOM      1  O   UNL     1      30.513 -21.978 -17.122  0.00  0.00    -0.270 OA
ATOM      2  N   UNL     1      30.741 -23.214 -15.138  0.00  0.00    -0.272 N 
ATOM      3  C   UNL     1      31.822 -23.778 -14.375  0.00  0.00    +0.121 C 
ATOM      4  C   UNL     1      33.009 -23.326 -15.170  0.00  0.00    +0.002 C 
ATOM      5  C   UNL     1      32.665 -22.635 -16.275  0.00  0.00    +0.051 C 
ATOM      6  C   UNL     1      31.178 -22.542 -16.268  0.00  0.00    +0.249 C 
ENDROOT
BRANCH   5   7
ATOM      7  C   UNL     1      33.513 -22.065 -17.322  0.00  0.00    +0.004 C 
ATOM      8  C   UNL     1      34.885 -21.890 -17.105  0.00  0.00    -0.000 C 
ATOM      9  C   UNL     1      32.961 -21.689 -18.552  0.00  0.00    -0.000 C 
ATOM     10  C   UNL     1      35.692 -21.347 -18.104  0.00  0.00    -0.004 C 
ATOM     11  C   UNL     1      33.770 -21.145 -19.551  0.00  0.00    -0.004 C 
ATOM     12  C   UNL     1      35.135 -20.974 -19.327  0.00  0.00    -0.022 C 
ATOM     13  C   UNL     1      35.999 -20.392 -20.394  0.00  0.00    +0.031 C 
ENDBRANCH   5   7
BRANCH   4  14
ATOM     14  C   UNL     1      34.363 -23.659 -14.703  0.00  0.00    -0.002 C 
ATOM     15  C   UNL     1      34.953 -24.875 -15.062  0.00  0.00    +0.001 C 
ATOM     16  C   UNL     1      35.071 -22.762 -13.897  0.00  0.00    +0.001 C 
ATOM     17  C   UNL     1      36.938 -24.293 -13.813  0.00  0.00    +0.106 C 
ATOM     18  C   UNL     1      36.236 -25.192 -14.617  0.00  0.00    +0.018 C 
ATOM     19  C   UNL     1      36.355 -23.078 -13.453  0.00  0.00    +0.018 C 
BRANCH  17  20
ATOM     20  S   UNL     1      38.545 -24.689 -13.258  0.00  0.00    +0.010 S 
ATOM     21  O   UNL     1      39.007 -23.601 -12.408  0.00  0.00    -0.169 OA
ATOM     22  O   UNL     1      38.545 -26.054 -12.748  0.00  0.00    -0.169 OA
ATOM     23  C   UNL     1      39.536 -24.689 -14.736  0.00  0.00    +0.182 C 
ENDBRANCH  17  20
ENDBRANCH   4  14
BRANCH   2  24
ATOM     24  C   UNL     1      29.360 -23.380 -14.735  0.00  0.00    +0.094 C 
BRANCH  24  25
ATOM     25  C   UNL     1      28.580 -24.273 -15.693  0.00  0.00    +0.022 C 
ATOM     26  C   UNL     1      27.549 -23.503 -16.506  0.00  0.00    +0.002 C 
ENDBRANCH  24  25
ENDBRANCH   2  24
TORSDOF 5
ENDMDL
MODEL 2
REMARK VINA RESULT:     -10.5      1.600      4.821
REMARK  Name = 11682175
REMARK  5 active torsions:
REMARK  status: ('A' for Active; 'I' for Inactive)
REMARK    1  A    between atoms: N_2  and  C_24
REMARK    2  A    between atoms: C_4  and  C_14
REMARK    3  A    between atoms: C_5  and  C_7
REMARK    4  A    between atoms: C_17  and  S_20
REMARK    5  A    between atoms: C_24  and  C_25
REMARK                            x       y       z     vdW  Elec       q    Type
REMARK                         _______ _______ _______ _____ _____    ______ ____
ROOT
ATOM      1  O   UNL     1      31.129 -21.480 -18.200  0.00  0.00    -0.270 OA
ATOM      2  N   UNL     1      33.393 -21.316 -18.804  0.00  0.00    -0.272 N 
ATOM      3  C   UNL     1      34.659 -21.672 -18.222  0.00  0.00    +0.121 C 
ATOM      4  C   UNL     1      34.222 -22.334 -16.951  0.00  0.00    +0.002 C 
ATOM      5  C   UNL     1      32.884 -22.321 -16.788  0.00  0.00    +0.051 C 
ATOM      6  C   UNL     1      32.319 -21.663 -18.000  0.00  0.00    +0.249 C 
ENDROOT
BRANCH   5   7
ATOM      7  C   UNL     1      32.073 -22.820 -15.677  0.00  0.00    +0.004 C 
ATOM      8  C   UNL     1      32.334 -22.402 -14.367  0.00  0.00    -0.000 C 
ATOM      9  C   UNL     1      31.027 -23.719 -15.915  0.00  0.00    -0.000 C 
ATOM     10  C   UNL     1      31.560 -22.879 -13.309  0.00  0.00    -0.004 C 
ATOM     11  C   UNL     1      30.254 -24.196 -14.855  0.00  0.00    -0.004 C 
ATOM     12  C   UNL     1      30.520 -23.776 -13.553  0.00  0.00    -0.022 C 
ATOM     13  C   UNL     1      29.694 -24.285 -12.421  0.00  0.00    +0.031 C 
ENDBRANCH   5   7
BRANCH   4  14
ATOM     14  C   UNL     1      35.232 -22.904 -16.046  0.00  0.00    -0.002 C 
ATOM     15  C   UNL     1      34.981 -24.107 -15.378  0.00  0.00    +0.001 C 
ATOM     16  C   UNL     1      36.449 -22.247 -15.846  0.00  0.00    +0.001 C 
ATOM     17  C   UNL     1      37.151 -23.985 -14.322  0.00  0.00    +0.106 C 
ATOM     18  C   UNL     1      35.937 -24.645 -14.517  0.00  0.00    +0.018 C 
ATOM     19  C   UNL     1      37.407 -22.786 -14.986  0.00  0.00    +0.018 C 
BRANCH  17  20
ATOM     20  S   UNL     1      38.348 -24.660 -13.246  0.00  0.00    +0.010 S 
ATOM     21  O   UNL     1      38.694 -23.643 -12.263  0.00  0.00    -0.169 OA
ATOM     22  O   UNL     1      37.897 -25.972 -12.800  0.00  0.00    -0.169 OA
ATOM     23  C   UNL     1      39.771 -24.928 -14.280  0.00  0.00    +0.182 C 
ENDBRANCH  17  20
ENDBRANCH   4  14
BRANCH   2  24
ATOM     24  C   UNL     1      33.308 -20.646 -20.084  0.00  0.00    +0.094 C 
BRANCH  24  25
ATOM     25  C   UNL     1      34.582 -19.883 -20.425  0.00  0.00    +0.022 C 
ATOM     26  C   UNL     1      34.441 -19.035 -21.682  0.00  0.00    +0.002 C 
ENDBRANCH  24  25
ENDBRANCH   2  24
TORSDOF 5
ENDMDL
MODEL 3
REMARK VINA RESULT:     -10.1      1.818      5.217
REMARK  Name = 11682175
REMARK  5 active torsions:
REMARK  status: ('A' for Active; 'I' for Inactive)
REMARK    1  A    between atoms: N_2  and  C_24
REMARK    2  A    between atoms: C_4  and  C_14
REMARK    3  A    between atoms: C_5  and  C_7
REMARK    4  A    between atoms: C_17  and  S_20
REMARK    5  A    between atoms: C_24  and  C_25
REMARK                            x       y       z     vdW  Elec       q    Type
REMARK                         _______ _______ _______ _____ _____    ______ ____
ROOT
ATOM      1  O   UNL     1      32.136 -21.547 -19.142  0.00  0.00    -0.270 OA
ATOM      2  N   UNL     1      34.457 -21.459 -18.794  0.00  0.00    -0.272 N 
ATOM      3  C   UNL     1      35.371 -21.811 -17.740  0.00  0.00    +0.121 C 
ATOM      4  C   UNL     1      34.437 -22.397 -16.726  0.00  0.00    +0.002 C 
ATOM      5  C   UNL     1      33.147 -22.348 -17.114  0.00  0.00    +0.051 C 
ATOM      6  C   UNL     1      33.139 -21.743 -18.476  0.00  0.00    +0.249 C 
ENDROOT
BRANCH   5   7
ATOM      7  C   UNL     1      31.941 -22.772 -16.403  0.00  0.00    +0.004 C 
ATOM      8  C   UNL     1      32.032 -23.648 -15.314  0.00  0.00    -0.000 C 
ATOM      9  C   UNL     1      30.683 -22.306 -16.804  0.00  0.00    -0.000 C 
ATOM     10  C   UNL     1      30.881 -24.052 -14.637  0.00  0.00    -0.004 C 
ATOM     11  C   UNL     1      29.533 -22.711 -16.126  0.00  0.00    -0.004 C 
ATOM     12  C   UNL     1      29.632 -23.584 -15.044  0.00  0.00    -0.022 C 
ATOM     13  C   UNL     1      28.402 -24.017 -14.319  0.00  0.00    +0.031 C 
ENDBRANCH   5   7
BRANCH   4  14
ATOM     14  C   UNL     1      34.978 -22.940 -15.470  0.00  0.00    -0.002 C 
ATOM     15  C   UNL     1      35.337 -22.079 -14.428  0.00  0.00    +0.001 C 
ATOM     16  C   UNL     1      35.137 -24.319 -15.310  0.00  0.00    +0.001 C 
ATOM     17  C   UNL     1      36.009 -23.971 -13.083  0.00  0.00    +0.106 C 
ATOM     18  C   UNL     1      35.853 -22.593 -13.239  0.00  0.00    +0.018 C 
ATOM     19  C   UNL     1      35.651 -24.834 -14.119  0.00  0.00    +0.018 C 
BRANCH  17  20
ATOM     20  S   UNL     1      36.653 -24.614 -11.594  0.00  0.00    +0.010 S 
ATOM     21  O   UNL     1      36.659 -26.066 -11.698  0.00  0.00    -0.169 OA
ATOM     22  O   UNL     1      37.885 -23.907 -11.267  0.00  0.00    -0.169 OA
ATOM     23  C   UNL     1      35.453 -24.159 -10.361  0.00  0.00    +0.182 C 
ENDBRANCH  17  20
ENDBRANCH   4  14
BRANCH   2  24
ATOM     24  C   UNL     1      34.917 -20.856 -20.027  0.00  0.00    +0.094 C 
BRANCH  24  25
ATOM     25  C   UNL     1      36.055 -19.868 -19.800  0.00  0.00    +0.022 C 
ATOM     26  C   UNL     1      36.103 -18.773 -20.856  0.00  0.00    +0.002 C 
ENDBRANCH  24  25
ENDBRANCH   2  24
TORSDOF 5
ENDMDL
MODEL 4
REMARK VINA RESULT:      -9.4      3.161      5.888
REMARK  Name = 11682175
REMARK  5 active torsions:
REMARK  status: ('A' for Active; 'I' for Inactive)
REMARK    1  A    between atoms: N_2  and  C_24
REMARK    2  A    between atoms: C_4  and  C_14
REMARK    3  A    between atoms: C_5  and  C_7
REMARK    4  A    between atoms: C_17  and  S_20
REMARK    5  A    between atoms: C_24  and  C_25
REMARK                            x       y       z     vdW  Elec       q    Type
REMARK                         _______ _______ _______ _____ _____    ______ ____
ROOT
ATOM      1  O   UNL     1      31.780 -24.373 -14.067  0.00  0.00    -0.270 OA
ATOM      2  N   UNL     1      30.474 -23.307 -15.703  0.00  0.00    -0.272 N 
ATOM      3  C   UNL     1      30.710 -22.474 -16.852  0.00  0.00    +0.121 C 
ATOM      4  C   UNL     1      32.208 -22.423 -16.873  0.00  0.00    +0.002 C 
ATOM      5  C   UNL     1      32.768 -23.093 -15.846  0.00  0.00    +0.051 C 
ATOM      6  C   UNL     1      31.645 -23.690 -15.070  0.00  0.00    +0.249 C 
ENDROOT
BRANCH   5   7
ATOM      7  C   UNL     1      34.179 -23.246 -15.489  0.00  0.00    +0.004 C 
ATOM      8  C   UNL     1      34.738 -24.521 -15.347  0.00  0.00    -0.000 C 
ATOM      9  C   UNL     1      34.983 -22.118 -15.288  0.00  0.00    -0.000 C 
ATOM     10  C   UNL     1      36.083 -24.666 -15.007  0.00  0.00    -0.004 C 
ATOM     11  C   UNL     1      36.328 -22.264 -14.946  0.00  0.00    -0.004 C 
ATOM     12  C   UNL     1      36.878 -23.537 -14.806  0.00  0.00    -0.022 C 
ATOM     13  C   UNL     1      38.315 -23.694 -14.441  0.00  0.00    +0.031 C 
ENDBRANCH   5   7
BRANCH   4  14
ATOM     14  C   UNL     1      32.893 -21.687 -17.947  0.00  0.00    -0.002 C 
ATOM     15  C   UNL     1      34.281 -21.778 -18.088  0.00  0.00    +0.001 C 
ATOM     16  C   UNL     1      32.161 -20.891 -18.833  0.00  0.00    +0.001 C 
ATOM     17  C   UNL     1      34.196 -20.286 -19.987  0.00  0.00    +0.106 C 
ATOM     18  C   UNL     1      34.931 -21.078 -19.105  0.00  0.00    +0.018 C 
ATOM     19  C   UNL     1      32.810 -20.192 -19.851  0.00  0.00    +0.018 C 
BRANCH  17  20
ATOM     20  S   UNL     1      35.009 -19.411 -21.260  0.00  0.00    +0.010 S 
ATOM     21  O   UNL     1      36.444 -19.540 -21.048  0.00  0.00    -0.169 OA
ATOM     22  O   UNL     1      34.430 -19.794 -22.541  0.00  0.00    -0.169 OA
ATOM     23  C   UNL     1      34.566 -17.711 -20.980  0.00  0.00    +0.182 C 
ENDBRANCH  17  20
ENDBRANCH   4  14
BRANCH   2  24
ATOM     24  C   UNL     1      29.133 -23.659 -15.284  0.00  0.00    +0.094 C 
BRANCH  24  25
ATOM     25  C   UNL     1      28.073 -23.169 -16.263  0.00  0.00    +0.022 C 
ATOM     26  C   UNL     1      27.173 -22.096 -15.666  0.00  0.00    +0.002 C 
ENDBRANCH  24  25
ENDBRANCH   2  24
TORSDOF 5
ENDMDL
MODEL 5
REMARK VINA RESULT:      -9.4      3.113      6.892
REMARK  Name = 11682175
REMARK  5 active torsions:
REMARK  status: ('A' for Active; 'I' for Inactive)
REMARK    1  A    between atoms: N_2  and  C_24
REMARK    2  A    between atoms: C_4  and  C_14
REMARK    3  A    between atoms: C_5  and  C_7
REMARK    4  A    between atoms: C_17  and  S_20
REMARK    5  A    between atoms: C_24  and  C_25
REMARK                            x       y       z     vdW  Elec       q    Type
REMARK                         _______ _______ _______ _____ _____    ______ ____
ROOT
ATOM      1  O   UNL     1      34.185 -24.354 -11.539  0.00  0.00    -0.270 OA
ATOM      2  N   UNL     1      36.175 -23.771 -12.641  0.00  0.00    -0.272 N 
ATOM      3  C   UNL     1      36.542 -23.240 -13.927  0.00  0.00    +0.121 C 
ATOM      4  C   UNL     1      35.197 -23.032 -14.553  0.00  0.00    +0.002 C 
ATOM      5  C   UNL     1      34.184 -23.435 -13.760  0.00  0.00    +0.051 C 
ATOM      6  C   UNL     1      34.806 -23.916 -12.494  0.00  0.00    +0.249 C 
ENDROOT
BRANCH   5   7
ATOM      7  C   UNL     1      32.743 -23.441 -14.016  0.00  0.00    +0.004 C 
ATOM      8  C   UNL     1      32.036 -24.649 -14.054  0.00  0.00    -0.000 C 
ATOM      9  C   UNL     1      32.058 -22.239 -14.225  0.00  0.00    -0.000 C 
ATOM     10  C   UNL     1      30.663 -24.653 -14.298  0.00  0.00    -0.004 C 
ATOM     11  C   UNL     1      30.684 -22.245 -14.469  0.00  0.00    -0.004 C 
ATOM     12  C   UNL     1      29.987 -23.451 -14.506  0.00  0.00    -0.022 C 
ATOM     13  C   UNL     1      28.519 -23.458 -14.767  0.00  0.00    +0.031 C 
ENDBRANCH   5   7
BRANCH   4  14
ATOM     14  C   UNL     1      35.106 -22.444 -15.898  0.00  0.00    -0.002 C 
ATOM     15  C   UNL     1      36.181 -21.721 -16.425  0.00  0.00    +0.001 C 
ATOM     16  C   UNL     1      33.945 -22.603 -16.659  0.00  0.00    +0.001 C 
ATOM     17  C   UNL     1      34.933 -21.324 -18.455  0.00  0.00    +0.106 C 
ATOM     18  C   UNL     1      36.095 -21.162 -17.700  0.00  0.00    +0.018 C 
ATOM     19  C   UNL     1      33.858 -22.045 -17.935  0.00  0.00    +0.018 C 
BRANCH  17  20
ATOM     20  S   UNL     1      34.825 -20.625 -20.051  0.00  0.00    +0.010 S 
ATOM     21  O   UNL     1      35.630 -19.412 -20.065  0.00  0.00    -0.169 OA
ATOM     22  O   UNL     1      35.069 -21.666 -21.041  0.00  0.00    -0.169 OA
ATOM     23  C   UNL     1      33.117 -20.150 -20.210  0.00  0.00    +0.182 C 
ENDBRANCH  17  20
ENDBRANCH   4  14
BRANCH   2  24
ATOM     24  C   UNL     1      37.173 -24.121 -11.652  0.00  0.00    +0.094 C 
BRANCH  24  25
ATOM     25  C   UNL     1      37.832 -25.464 -11.943  0.00  0.00    +0.022 C 
ATOM     26  C   UNL     1      38.817 -25.397 -13.102  0.00  0.00    +0.002 C 
ENDBRANCH  24  25
ENDBRANCH   2  24
TORSDOF 5
ENDMDL
MODEL 6
REMARK VINA RESULT:      -9.4      2.889      5.593
REMARK  Name = 11682175
REMARK  5 active torsions:
REMARK  status: ('A' for Active; 'I' for Inactive)
REMARK    1  A    between atoms: N_2  and  C_24
REMARK    2  A    between atoms: C_4  and  C_14
REMARK    3  A    between atoms: C_5  and  C_7
REMARK    4  A    between atoms: C_17  and  S_20
REMARK    5  A    between atoms: C_24  and  C_25
REMARK                            x       y       z     vdW  Elec       q    Type
REMARK                         _______ _______ _______ _____ _____    ______ ____
ROOT
ATOM      1  O   UNL     1      32.119 -24.925 -12.714  0.00  0.00    -0.270 OA
ATOM      2  N   UNL     1      30.839 -23.869 -14.377  0.00  0.00    -0.272 N 
ATOM      3  C   UNL     1      31.097 -23.091 -15.559  0.00  0.00    +0.121 C 
ATOM      4  C   UNL     1      32.595 -23.103 -15.598  0.00  0.00    +0.002 C 
ATOM      5  C   UNL     1      33.139 -23.756 -14.551  0.00  0.00    +0.051 C 
ATOM      6  C   UNL     1      32.001 -24.275 -13.741  0.00  0.00    +0.249 C 
ENDROOT
BRANCH   5   7
ATOM      7  C   UNL     1      34.546 -23.954 -14.203  0.00  0.00    +0.004 C 
ATOM      8  C   UNL     1      35.275 -25.005 -14.772  0.00  0.00    -0.000 C 
ATOM      9  C   UNL     1      35.177 -23.093 -13.297  0.00  0.00    -0.000 C 
ATOM     10  C   UNL     1      36.616 -25.192 -14.439  0.00  0.00    -0.004 C 
ATOM     11  C   UNL     1      36.519 -23.282 -12.964  0.00  0.00    -0.004 C 
ATOM     12  C   UNL     1      37.238 -24.331 -13.534  0.00  0.00    -0.022 C 
ATOM     13  C   UNL     1      38.672 -24.534 -13.178  0.00  0.00    +0.031 C 
ENDBRANCH   5   7
BRANCH   4  14
ATOM     14  C   UNL     1      33.297 -22.438 -16.706  0.00  0.00    -0.002 C 
ATOM     15  C   UNL     1      34.664 -22.162 -16.609  0.00  0.00    +0.001 C 
ATOM     16  C   UNL     1      32.602 -22.076 -17.864  0.00  0.00    +0.001 C 
ATOM     17  C   UNL     1      34.632 -21.171 -18.812  0.00  0.00    +0.106 C 
ATOM     18  C   UNL     1      35.330 -21.529 -17.658  0.00  0.00    +0.018 C 
ATOM     19  C   UNL     1      33.268 -21.444 -18.915  0.00  0.00    +0.018 C 
BRANCH  17  20
ATOM     20  S   UNL     1      35.465 -20.380 -20.126  0.00  0.00    +0.010 S 
ATOM     21  O   UNL     1      36.374 -19.396 -19.555  0.00  0.00    -0.169 OA
ATOM     22  O   UNL     1      35.977 -21.393 -21.039  0.00  0.00    -0.169 OA
ATOM     23  C   UNL     1      34.185 -19.501 -20.995  0.00  0.00    +0.182 C 
ENDBRANCH  17  20
ENDBRANCH   4  14
BRANCH   2  24
ATOM     24  C   UNL     1      29.491 -24.149 -13.932  0.00  0.00    +0.094 C 
BRANCH  24  25
ATOM     25  C   UNL     1      28.533 -24.385 -15.094  0.00  0.00    +0.022 C 
ATOM     26  C   UNL     1      27.749 -23.136 -15.473  0.00  0.00    +0.002 C 
ENDBRANCH  24  25
ENDBRANCH   2  24
TORSDOF 5
ENDMDL
MODEL 7
REMARK VINA RESULT:      -9.2      3.310      7.247
REMARK  Name = 11682175
REMARK  5 active torsions:
REMARK  status: ('A' for Active; 'I' for Inactive)
REMARK    1  A    between atoms: N_2  and  C_24
REMARK    2  A    between atoms: C_4  and  C_14
REMARK    3  A    between atoms: C_5  and  C_7
REMARK    4  A    between atoms: C_17  and  S_20
REMARK    5  A    between atoms: C_24  and  C_25
REMARK                            x       y       z     vdW  Elec       q    Type
REMARK                         _______ _______ _______ _____ _____    ______ ____
ROOT
ATOM      1  O   UNL     1      34.657 -24.006 -13.217  0.00  0.00    -0.270 OA
ATOM      2  N   UNL     1      36.521 -23.406 -14.513  0.00  0.00    -0.272 N 
ATOM      3  C   UNL     1      36.752 -22.760 -15.778  0.00  0.00    +0.121 C 
ATOM      4  C   UNL     1      35.352 -22.423 -16.195  0.00  0.00    +0.002 C 
ATOM      5  C   UNL     1      34.427 -22.859 -15.317  0.00  0.00    +0.051 C 
ATOM      6  C   UNL     1      35.175 -23.500 -14.199  0.00  0.00    +0.249 C 
ENDROOT
BRANCH   5   7
ATOM      7  C   UNL     1      32.967 -22.769 -15.376  0.00  0.00    +0.004 C 
ATOM      8  C   UNL     1      32.246 -22.250 -14.295  0.00  0.00    -0.000 C 
ATOM      9  C   UNL     1      32.279 -23.201 -16.516  0.00  0.00    -0.000 C 
ATOM     10  C   UNL     1      30.855 -22.166 -14.352  0.00  0.00    -0.004 C 
ATOM     11  C   UNL     1      30.887 -23.117 -16.572  0.00  0.00    -0.004 C 
ATOM     12  C   UNL     1      30.175 -22.599 -15.491  0.00  0.00    -0.022 C 
ATOM     13  C   UNL     1      28.688 -22.509 -15.551  0.00  0.00    +0.031 C 
ENDBRANCH   5   7
BRANCH   4  14
ATOM     14  C   UNL     1      35.126 -21.694 -17.452  0.00  0.00    -0.002 C 
ATOM     15  C   UNL     1      36.161 -20.958 -18.036  0.00  0.00    +0.001 C 
ATOM     16  C   UNL     1      33.873 -21.730 -18.071  0.00  0.00    +0.001 C 
ATOM     17  C   UNL     1      34.694 -20.304 -19.840  0.00  0.00    +0.106 C 
ATOM     18  C   UNL     1      35.946 -20.264 -19.226  0.00  0.00    +0.018 C 
ATOM     19  C   UNL     1      33.657 -21.037 -19.263  0.00  0.00    +0.018 C 
BRANCH  17  20
ATOM     20  S   UNL     1      34.424 -19.436 -21.331  0.00  0.00    +0.010 S 
ATOM     21  O   UNL     1      35.361 -19.945 -22.322  0.00  0.00    -0.169 OA
ATOM     22  O   UNL     1      32.997 -19.429 -21.622  0.00  0.00    -0.169 OA
ATOM     23  C   UNL     1      34.884 -17.759 -20.954  0.00  0.00    +0.182 C 
ENDBRANCH  17  20
ENDBRANCH   4  14
BRANCH   2  24
ATOM     24  C   UNL     1      37.614 -23.905 -13.706  0.00  0.00    +0.094 C 
BRANCH  24  25
ATOM     25  C   UNL     1      38.350 -25.059 -14.376  0.00  0.00    +0.022 C 
ATOM     26  C   UNL     1      39.844 -24.802 -14.516  0.00  0.00    +0.002 C 
ENDBRANCH  24  25
ENDBRANCH   2  24
TORSDOF 5
ENDMDL
MODEL 8
REMARK VINA RESULT:      -8.9      1.864      5.170
REMARK  Name = 11682175
REMARK  5 active torsions:
REMARK  status: ('A' for Active; 'I' for Inactive)
REMARK    1  A    between atoms: N_2  and  C_24
REMARK    2  A    between atoms: C_4  and  C_14
REMARK    3  A    between atoms: C_5  and  C_7
REMARK    4  A    between atoms: C_17  and  S_20
REMARK    5  A    between atoms: C_24  and  C_25
REMARK                            x       y       z     vdW  Elec       q    Type
REMARK                         _______ _______ _______ _____ _____    ______ ____
ROOT
ATOM      1  O   UNL     1      31.974 -21.060 -19.530  0.00  0.00    -0.270 OA
ATOM      2  N   UNL     1      34.304 -20.770 -19.586  0.00  0.00    -0.272 N 
ATOM      3  C   UNL     1      35.418 -21.083 -18.732  0.00  0.00    +0.121 C 
ATOM      4  C   UNL     1      34.734 -21.805 -17.611  0.00  0.00    +0.002 C 
ATOM      5  C   UNL     1      33.396 -21.860 -17.764  0.00  0.00    +0.051 C 
ATOM      6  C   UNL     1      33.094 -21.192 -19.062  0.00  0.00    +0.249 C 
ENDROOT
BRANCH   5   7
ATOM      7  C   UNL     1      32.377 -22.431 -16.883  0.00  0.00    +0.004 C 
ATOM      8  C   UNL     1      31.035 -22.055 -17.016  0.00  0.00    -0.000 C 
ATOM      9  C   UNL     1      32.735 -23.360 -15.899  0.00  0.00    -0.000 C 
ATOM     10  C   UNL     1      30.065 -22.600 -16.175  0.00  0.00    -0.004 C 
ATOM     11  C   UNL     1      31.763 -23.904 -15.058  0.00  0.00    -0.004 C 
ATOM     12  C   UNL     1      30.429 -23.524 -15.196  0.00  0.00    -0.022 C 
ATOM     13  C   UNL     1      29.391 -24.106 -14.297  0.00  0.00    +0.031 C 
ENDBRANCH   5   7
BRANCH   4  14
ATOM     14  C   UNL     1      35.535 -22.354 -16.506  0.00  0.00    -0.002 C 
ATOM     15  C   UNL     1      34.986 -23.308 -15.644  0.00  0.00    +0.001 C 
ATOM     16  C   UNL     1      36.852 -21.926 -16.310  0.00  0.00    +0.001 C 
ATOM     17  C   UNL     1      37.058 -23.397 -14.404  0.00  0.00    +0.106 C 
ATOM     18  C   UNL     1      35.745 -23.827 -14.595  0.00  0.00    +0.018 C 
ATOM     19  C   UNL     1      37.612 -22.446 -15.262  0.00  0.00    +0.018 C 
BRANCH  17  20
ATOM     20  S   UNL     1      38.008 -24.047 -13.092  0.00  0.00    +0.010 S 
ATOM     21  O   UNL     1      39.307 -24.432 -13.625  0.00  0.00    -0.169 OA
ATOM     22  O   UNL     1      37.934 -23.135 -11.958  0.00  0.00    -0.169 OA
ATOM     23  C   UNL     1      37.149 -25.532 -12.618  0.00  0.00    +0.182 C 
ENDBRANCH  17  20
ENDBRANCH   4  14
BRANCH   2  24
ATOM     24  C   UNL     1      34.483 -20.065 -20.838  0.00  0.00    +0.094 C 
BRANCH  24  25
ATOM     25  C   UNL     1      35.658 -19.096 -20.795  0.00  0.00    +0.022 C 
ATOM     26  C   UNL     1      35.304 -17.718 -21.337  0.00  0.00    +0.002 C 
ENDBRANCH  24  25
ENDBRANCH   2  24
TORSDOF 5
ENDMDL
