MODEL 1
REMARK VINA RESULT:     -12.8      0.000      0.000
REMARK  Name = 9908900
REMARK  8 active torsions:
REMARK  status: ('A' for Active; 'I' for Inactive)
REMARK    1  A    between atoms: N_2  and  C_6
REMARK    2  A    between atoms: N_2  and  C_14
REMARK    3  A    between atoms: N_3  and  C_17
REMARK    4  A    between atoms: C_7  and  O_12
REMARK    5  A    between atoms: C_17  and  C_18
REMARK    6  A    between atoms: C_18  and  C_19
REMARK    7  A    between atoms: C_19  and  O_20
REMARK    8  A    between atoms: O_20  and  C_23
REMARK                            x       y       z     vdW  Elec       q    Type
REMARK                         _______ _______ _______ _____ _____    ______ ____
ROOT
ATOM      1  O   UNL     1      37.398 -22.075 -15.753  0.00  0.00    -0.253 OA
ATOM      2  N   UNL     1      35.422 -22.900 -14.823  0.00  0.00    -0.265 N 
ATOM      3  N   UNL     1      35.443 -21.900 -16.959  0.00  0.00    -0.289 N 
ATOM      4  C   UNL     1      36.182 -22.274 -15.841  0.00  0.00    +0.304 C 
ATOM      5  H   UNL     1      34.476 -22.083 -16.972  0.00  0.00    +0.151 HD
ENDROOT
BRANCH   2   6
ATOM      6  C   UNL     1      35.929 -23.912 -13.922  0.00  0.00    +0.103 C 
ATOM      7  C   UNL     1      36.530 -25.086 -14.706  0.00  0.00    +0.129 C 
ATOM      8  C   UNL     1      36.951 -23.290 -12.967  0.00  0.00    +0.022 C 
ATOM      9  C   UNL     1      37.175 -26.115 -13.775  0.00  0.00    +0.031 C 
ATOM     10  C   UNL     1      37.578 -24.330 -12.046  0.00  0.00    +0.002 C 
ATOM     11  C   UNL     1      38.194 -25.479 -12.839  0.00  0.00    +0.003 C 
BRANCH   7  12
ATOM     12  O   UNL     1      35.491 -25.729 -15.444  0.00  0.00    -0.383 OA
ATOM     13  H   UNL     1      35.881 -26.282 -16.138  0.00  0.00    +0.210 HD
ENDBRANCH   7  12
ENDBRANCH   2   6
BRANCH   2  14
ATOM     14  C   UNL     1      34.020 -22.523 -14.679  0.00  0.00    +0.077 C 
ATOM     15  C   UNL     1      33.050 -23.405 -13.949  0.00  0.00    +0.022 C 
ATOM     16  C   UNL     1      32.943 -23.242 -15.437  0.00  0.00    +0.022 C 
ENDBRANCH   2  14
BRANCH   3  17
ATOM     17  C   UNL     1      36.047 -21.249 -18.100  0.00  0.00    +0.095 C 
BRANCH  17  18
ATOM     18  C   UNL     1      35.279 -21.504 -19.389  0.00  0.00    +0.069 C 
BRANCH  18  19
ATOM     19  C   UNL     1      34.433 -20.313 -19.820  0.00  0.00    +0.207 C 
BRANCH  19  20
ATOM     20  O   UNL     1      35.292 -19.298 -20.321  0.00  0.00    -0.475 OA
BRANCH  20  23
ATOM     21  O   UNL     1      33.069 -14.474 -25.808  0.00  0.00    -0.270 OA
ATOM     22  N   UNL     1      33.512 -16.485 -24.775  0.00  0.00    -0.280 N 
ATOM     23  C   UNL     1      34.855 -18.604 -21.419  0.00  0.00    +0.139 C 
ATOM     24  C   UNL     1      34.834 -17.207 -21.397  0.00  0.00    +0.038 C 
ATOM     25  C   UNL     1      34.387 -16.498 -22.515  0.00  0.00    +0.017 C 
ATOM     26  C   UNL     1      34.430 -19.295 -22.555  0.00  0.00    +0.038 C 
ATOM     27  C   UNL     1      33.964 -17.199 -23.650  0.00  0.00    +0.051 C 
ATOM     28  C   UNL     1      33.983 -18.595 -23.674  0.00  0.00    +0.018 C 
ATOM     29  C   UNL     1      34.350 -15.038 -22.531  0.00  0.00    +0.006 C 
ATOM     30  C   UNL     1      33.918 -14.378 -23.612  0.00  0.00    +0.058 C 
ATOM     31  C   UNL     1      33.463 -15.105 -24.829  0.00  0.00    +0.250 C 
ATOM     32  H   UNL     1      33.218 -16.994 -25.564  0.00  0.00    +0.155 HD
ENDBRANCH  20  23
ENDBRANCH  19  20
ENDBRANCH  18  19
ENDBRANCH  17  18
ENDBRANCH   3  17
TORSDOF 8
ENDMDL
MODEL 2
REMARK VINA RESULT:     -11.6      1.223      1.967
REMARK  Name = 9908900
REMARK  8 active torsions:
REMARK  status: ('A' for Active; 'I' for Inactive)
REMARK    1  A    between atoms: N_2  and  C_6
REMARK    2  A    between atoms: N_2  and  C_14
REMARK    3  A    between atoms: N_3  and  C_17
REMARK    4  A    between atoms: C_7  and  O_12
REMARK    5  A    between atoms: C_17  and  C_18
REMARK    6  A    between atoms: C_18  and  C_19
REMARK    7  A    between atoms: C_19  and  O_20
REMARK    8  A    between atoms: O_20  and  C_23
REMARK                            x       y       z     vdW  Elec       q    Type
REMARK                         _______ _______ _______ _____ _____    ______ ____
ROOT
ATOM      1  O   UNL     1      33.763 -24.118 -16.945  0.00  0.00    -0.253 OA
ATOM      2  N   UNL     1      35.155 -22.913 -15.510  0.00  0.00    -0.265 N 
ATOM      3  N   UNL     1      33.980 -21.846 -17.255  0.00  0.00    -0.289 N 
ATOM      4  C   UNL     1      34.260 -23.041 -16.599  0.00  0.00    +0.304 C 
ATOM      5  H   UNL     1      34.405 -21.018 -16.935  0.00  0.00    +0.151 HD
ENDROOT
BRANCH   2   6
ATOM      6  C   UNL     1      35.132 -23.741 -14.324  0.00  0.00    +0.103 C 
ATOM      7  C   UNL     1      36.282 -24.757 -14.348  0.00  0.00    +0.129 C 
ATOM      8  C   UNL     1      35.186 -22.858 -13.075  0.00  0.00    +0.022 C 
ATOM      9  C   UNL     1      36.346 -25.567 -13.052  0.00  0.00    +0.031 C 
ATOM     10  C   UNL     1      35.246 -23.684 -11.795  0.00  0.00    +0.002 C 
ATOM     11  C   UNL     1      36.409 -24.671 -11.822  0.00  0.00    +0.003 C 
BRANCH   7  12
ATOM     12  O   UNL     1      36.079 -25.658 -15.437  0.00  0.00    -0.383 OA
ATOM     13  H   UNL     1      35.968 -26.558 -15.096  0.00  0.00    +0.210 HD
ENDBRANCH   7  12
ENDBRANCH   2   6
BRANCH   2  14
ATOM     14  C   UNL     1      36.161 -21.857 -15.564  0.00  0.00    +0.077 C 
ATOM     15  C   UNL     1      36.627 -21.296 -16.875  0.00  0.00    +0.022 C 
ATOM     16  C   UNL     1      37.554 -22.138 -16.047  0.00  0.00    +0.022 C 
ENDBRANCH   2  14
BRANCH   3  17
ATOM     17  C   UNL     1      33.087 -21.779 -18.389  0.00  0.00    +0.095 C 
BRANCH  17  18
ATOM     18  C   UNL     1      33.396 -20.603 -19.306  0.00  0.00    +0.069 C 
BRANCH  18  19
ATOM     19  C   UNL     1      34.747 -20.732 -19.998  0.00  0.00    +0.207 C 
BRANCH  19  20
ATOM     20  O   UNL     1      35.285 -19.432 -20.196  0.00  0.00    -0.475 OA
BRANCH  20  23
ATOM     21  O   UNL     1      33.133 -14.654 -25.751  0.00  0.00    -0.270 OA
ATOM     22  N   UNL     1      33.534 -16.656 -24.685  0.00  0.00    -0.280 N 
ATOM     23  C   UNL     1      34.856 -18.747 -21.303  0.00  0.00    +0.139 C 
ATOM     24  C   UNL     1      34.870 -17.350 -21.307  0.00  0.00    +0.038 C 
ATOM     25  C   UNL     1      34.430 -16.651 -22.433  0.00  0.00    +0.017 C 
ATOM     26  C   UNL     1      34.402 -19.448 -22.422  0.00  0.00    +0.038 C 
ATOM     27  C   UNL     1      33.978 -17.361 -23.552  0.00  0.00    +0.051 C 
ATOM     28  C   UNL     1      33.962 -18.757 -23.550  0.00  0.00    +0.018 C 
ATOM     29  C   UNL     1      34.430 -15.191 -22.476  0.00  0.00    +0.006 C 
ATOM     30  C   UNL     1      34.004 -14.540 -23.566  0.00  0.00    +0.058 C 
ATOM     31  C   UNL     1      33.519 -15.276 -24.764  0.00  0.00    +0.250 C 
ATOM     32  H   UNL     1      33.219 -17.172 -25.462  0.00  0.00    +0.155 HD
ENDBRANCH  20  23
ENDBRANCH  19  20
ENDBRANCH  18  19
ENDBRANCH  17  18
ENDBRANCH   3  17
TORSDOF 8
ENDMDL
MODEL 3
REMARK VINA RESULT:     -11.6      3.826     11.365
REMARK  Name = 9908900
REMARK  8 active torsions:
REMARK  status: ('A' for Active; 'I' for Inactive)
REMARK    1  A    between atoms: N_2  and  C_6
REMARK    2  A    between atoms: N_2  and  C_14
REMARK    3  A    between atoms: N_3  and  C_17
REMARK    4  A    between atoms: C_7  and  O_12
REMARK    5  A    between atoms: C_17  and  C_18
REMARK    6  A    between atoms: C_18  and  C_19
REMARK    7  A    between atoms: C_19  and  O_20
REMARK    8  A    between atoms: O_20  and  C_23
REMARK                            x       y       z     vdW  Elec       q    Type
REMARK                         _______ _______ _______ _____ _____    ______ ____
ROOT
ATOM      1  O   UNL     1      32.323 -13.280 -24.211  0.00  0.00    -0.253 OA
ATOM      2  N   UNL     1      33.135 -12.808 -22.074  0.00  0.00    -0.265 N 
ATOM      3  N   UNL     1      34.191 -14.398 -23.459  0.00  0.00    -0.289 N 
ATOM      4  C   UNL     1      33.153 -13.482 -23.319  0.00  0.00    +0.304 C 
ATOM      5  H   UNL     1      34.823 -14.518 -22.714  0.00  0.00    +0.151 HD
ENDROOT
BRANCH   2   6
ATOM      6  C   UNL     1      32.658 -11.457 -21.877  0.00  0.00    +0.103 C 
ATOM      7  C   UNL     1      32.689 -10.671 -23.195  0.00  0.00    +0.129 C 
ATOM      8  C   UNL     1      31.252 -11.487 -21.272  0.00  0.00    +0.022 C 
ATOM      9  C   UNL     1      32.081  -9.276 -23.035  0.00  0.00    +0.031 C 
ATOM     10  C   UNL     1      30.667 -10.088 -21.117  0.00  0.00    +0.002 C 
ATOM     11  C   UNL     1      30.680  -9.328 -22.440  0.00  0.00    +0.003 C 
BRANCH   7  12
ATOM     12  O   UNL     1      34.045 -10.531 -23.617  0.00  0.00    -0.383 OA
ATOM     13  H   UNL     1      34.171  -9.655 -24.015  0.00  0.00    +0.210 HD
ENDBRANCH   7  12
ENDBRANCH   2   6
BRANCH   2  14
ATOM     14  C   UNL     1      33.655 -13.507 -20.904  0.00  0.00    +0.077 C 
ATOM     15  C   UNL     1      33.843 -14.995 -20.908  0.00  0.00    +0.022 C 
ATOM     16  C   UNL     1      32.767 -14.378 -20.064  0.00  0.00    +0.022 C 
ENDBRANCH   2  14
BRANCH   3  17
ATOM     17  C   UNL     1      34.373 -15.180 -24.661  0.00  0.00    +0.095 C 
BRANCH  17  18
ATOM     18  C   UNL     1      33.296 -16.242 -24.833  0.00  0.00    +0.069 C 
BRANCH  18  19
ATOM     19  C   UNL     1      33.580 -17.508 -24.033  0.00  0.00    +0.207 C 
BRANCH  19  20
ATOM     20  O   UNL     1      34.798 -17.335 -23.321  0.00  0.00    -0.475 OA
BRANCH  20  23
ATOM     21  O   UNL     1      34.868 -22.237 -17.466  0.00  0.00    -0.270 OA
ATOM     22  N   UNL     1      35.674 -20.704 -18.984  0.00  0.00    -0.280 N 
ATOM     23  C   UNL     1      35.013 -18.167 -22.253  0.00  0.00    +0.139 C 
ATOM     24  C   UNL     1      33.961 -18.932 -21.743  0.00  0.00    +0.038 C 
ATOM     25  C   UNL     1      34.179 -19.779 -20.653  0.00  0.00    +0.017 C 
ATOM     26  C   UNL     1      36.283 -18.245 -21.677  0.00  0.00    +0.038 C 
ATOM     27  C   UNL     1      35.455 -19.852 -20.082  0.00  0.00    +0.051 C 
ATOM     28  C   UNL     1      36.508 -19.088 -20.590  0.00  0.00    +0.018 C 
ATOM     29  C   UNL     1      33.106 -20.594 -20.091  0.00  0.00    +0.006 C 
ATOM     30  C   UNL     1      33.336 -21.399 -19.046  0.00  0.00    +0.058 C 
ATOM     31  C   UNL     1      34.685 -21.491 -18.425  0.00  0.00    +0.250 C 
ATOM     32  H   UNL     1      36.577 -20.743 -18.596  0.00  0.00    +0.155 HD
ENDBRANCH  20  23
ENDBRANCH  19  20
ENDBRANCH  18  19
ENDBRANCH  17  18
ENDBRANCH   3  17
TORSDOF 8
ENDMDL
MODEL 4
REMARK VINA RESULT:     -11.2      3.551     11.453
REMARK  Name = 9908900
REMARK  8 active torsions:
REMARK  status: ('A' for Active; 'I' for Inactive)
REMARK    1  A    between atoms: N_2  and  C_6
REMARK    2  A    between atoms: N_2  and  C_14
REMARK    3  A    between atoms: N_3  and  C_17
REMARK    4  A    between atoms: C_7  and  O_12
REMARK    5  A    between atoms: C_17  and  C_18
REMARK    6  A    between atoms: C_18  and  C_19
REMARK    7  A    between atoms: C_19  and  O_20
REMARK    8  A    between atoms: O_20  and  C_23
REMARK                            x       y       z     vdW  Elec       q    Type
REMARK                         _______ _______ _______ _____ _____    ______ ____
ROOT
ATOM      1  O   UNL     1      33.987 -13.541 -20.671  0.00  0.00    -0.253 OA
ATOM      2  N   UNL     1      33.237 -13.246 -22.862  0.00  0.00    -0.265 N 
ATOM      3  N   UNL     1      34.095 -15.318 -22.132  0.00  0.00    -0.289 N 
ATOM      4  C   UNL     1      33.790 -14.002 -21.800  0.00  0.00    +0.304 C 
ATOM      5  H   UNL     1      33.917 -15.630 -23.048  0.00  0.00    +0.151 HD
ENDROOT
BRANCH   2   6
ATOM      6  C   UNL     1      32.282 -12.172 -22.697  0.00  0.00    +0.103 C 
ATOM      7  C   UNL     1      31.870 -12.031 -21.226  0.00  0.00    +0.129 C 
ATOM      8  C   UNL     1      32.871 -10.869 -23.245  0.00  0.00    +0.022 C 
ATOM      9  C   UNL     1      30.950 -10.828 -21.010  0.00  0.00    +0.031 C 
ATOM     10  C   UNL     1      31.937  -9.684 -23.024  0.00  0.00    +0.002 C 
ATOM     11  C   UNL     1      31.556  -9.540 -21.553  0.00  0.00    +0.003 C 
BRANCH   7  12
ATOM     12  O   UNL     1      31.176 -13.212 -20.826  0.00  0.00    -0.383 OA
ATOM     13  H   UNL     1      30.380 -13.320 -21.371  0.00  0.00    +0.210 HD
ENDBRANCH   7  12
ENDBRANCH   2   6
BRANCH   2  14
ATOM     14  C   UNL     1      33.630 -13.582 -24.226  0.00  0.00    +0.077 C 
ATOM     15  C   UNL     1      32.678 -13.414 -25.373  0.00  0.00    +0.022 C 
ATOM     16  C   UNL     1      33.070 -14.790 -24.919  0.00  0.00    +0.022 C 
ENDBRANCH   2  14
BRANCH   3  17
ATOM     17  C   UNL     1      34.666 -16.242 -21.178  0.00  0.00    +0.095 C 
BRANCH  17  18
ATOM     18  C   UNL     1      35.438 -17.370 -21.849  0.00  0.00    +0.069 C 
BRANCH  18  19
ATOM     19  C   UNL     1      36.070 -18.331 -20.850  0.00  0.00    +0.207 C 
BRANCH  19  20
ATOM     20  O   UNL     1      35.643 -19.652 -21.154  0.00  0.00    -0.475 OA
BRANCH  20  23
ATOM     21  O   UNL     1      31.047 -23.098 -16.121  0.00  0.00    -0.270 OA
ATOM     22  N   UNL     1      31.658 -21.812 -17.932  0.00  0.00    -0.280 N 
ATOM     23  C   UNL     1      34.662 -20.184 -20.358  0.00  0.00    +0.139 C 
ATOM     24  C   UNL     1      35.007 -20.987 -19.269  0.00  0.00    +0.038 C 
ATOM     25  C   UNL     1      34.007 -21.531 -18.459  0.00  0.00    +0.017 C 
ATOM     26  C   UNL     1      33.320 -19.922 -20.640  0.00  0.00    +0.038 C 
ATOM     27  C   UNL     1      32.664 -21.263 -18.748  0.00  0.00    +0.051 C 
ATOM     28  C   UNL     1      32.317 -20.460 -19.836  0.00  0.00    +0.018 C 
ATOM     29  C   UNL     1      34.328 -22.376 -17.311  0.00  0.00    +0.006 C 
ATOM     30  C   UNL     1      33.355 -22.888 -16.547  0.00  0.00    +0.058 C 
ATOM     31  C   UNL     1      31.921 -22.615 -16.838  0.00  0.00    +0.250 C 
ATOM     32  H   UNL     1      30.720 -21.613 -18.150  0.00  0.00    +0.155 HD
ENDBRANCH  20  23
ENDBRANCH  19  20
ENDBRANCH  18  19
ENDBRANCH  17  18
ENDBRANCH   3  17
TORSDOF 8
ENDMDL
MODEL 5
REMARK VINA RESULT:     -11.0      2.166      3.731
REMARK  Name = 9908900
REMARK  8 active torsions:
REMARK  status: ('A' for Active; 'I' for Inactive)
REMARK    1  A    between atoms: N_2  and  C_6
REMARK    2  A    between atoms: N_2  and  C_14
REMARK    3  A    between atoms: N_3  and  C_17
REMARK    4  A    between atoms: C_7  and  O_12
REMARK    5  A    between atoms: C_17  and  C_18
REMARK    6  A    between atoms: C_18  and  C_19
REMARK    7  A    between atoms: C_19  and  O_20
REMARK    8  A    between atoms: O_20  and  C_23
REMARK                            x       y       z     vdW  Elec       q    Type
REMARK                         _______ _______ _______ _____ _____    ______ ____
ROOT
ATOM      1  O   UNL     1      32.917 -23.405 -17.972  0.00  0.00    -0.253 OA
ATOM      2  N   UNL     1      33.439 -22.628 -15.834  0.00  0.00    -0.265 N 
ATOM      3  N   UNL     1      34.467 -21.715 -17.750  0.00  0.00    -0.289 N 
ATOM      4  C   UNL     1      33.560 -22.641 -17.244  0.00  0.00    +0.304 C 
ATOM      5  H   UNL     1      34.951 -21.133 -17.121  0.00  0.00    +0.151 HD
ENDROOT
BRANCH   2   6
ATOM      6  C   UNL     1      32.229 -22.948 -15.108  0.00  0.00    +0.103 C 
ATOM      7  C   UNL     1      31.072 -23.228 -16.077  0.00  0.00    +0.129 C 
ATOM      8  C   UNL     1      32.483 -24.136 -14.176  0.00  0.00    +0.022 C 
ATOM      9  C   UNL     1      29.813 -23.680 -15.336  0.00  0.00    +0.031 C 
ATOM     10  C   UNL     1      31.217 -24.568 -13.444  0.00  0.00    +0.002 C 
ATOM     11  C   UNL     1      30.084 -24.867 -14.421  0.00  0.00    +0.003 C 
BRANCH   7  12
ATOM     12  O   UNL     1      30.772 -22.032 -16.795  0.00  0.00    -0.383 OA
ATOM     13  H   UNL     1      29.872 -21.743 -16.581  0.00  0.00    +0.210 HD
ENDBRANCH   7  12
ENDBRANCH   2   6
BRANCH   2  14
ATOM     14  C   UNL     1      34.605 -22.243 -15.045  0.00  0.00    +0.077 C 
ATOM     15  C   UNL     1      35.987 -22.667 -15.444  0.00  0.00    +0.022 C 
ATOM     16  C   UNL     1      35.348 -23.250 -14.217  0.00  0.00    +0.022 C 
ENDBRANCH   2  14
BRANCH   3  17
ATOM     17  C   UNL     1      34.723 -21.581 -19.166  0.00  0.00    +0.095 C 
BRANCH  17  18
ATOM     18  C   UNL     1      33.913 -20.459 -19.801  0.00  0.00    +0.069 C 
BRANCH  18  19
ATOM     19  C   UNL     1      34.582 -19.871 -21.037  0.00  0.00    +0.207 C 
BRANCH  19  20
ATOM     20  O   UNL     1      35.172 -18.625 -20.689  0.00  0.00    -0.475 OA
BRANCH  20  23
ATOM     21  O   UNL     1      33.073 -12.014 -23.884  0.00  0.00    -0.270 OA
ATOM     22  N   UNL     1      33.710 -14.224 -23.758  0.00  0.00    -0.280 N 
ATOM     23  C   UNL     1      34.813 -17.540 -21.445  0.00  0.00    +0.139 C 
ATOM     24  C   UNL     1      34.512 -16.326 -20.822  0.00  0.00    +0.038 C 
ATOM     25  C   UNL     1      34.144 -15.219 -21.591  0.00  0.00    +0.017 C 
ATOM     26  C   UNL     1      34.747 -17.651 -22.835  0.00  0.00    +0.038 C 
ATOM     27  C   UNL     1      34.082 -15.339 -22.984  0.00  0.00    +0.051 C 
ATOM     28  C   UNL     1      34.382 -16.551 -23.609  0.00  0.00    +0.018 C 
ATOM     29  C   UNL     1      33.822 -13.934 -20.977  0.00  0.00    +0.006 C 
ATOM     30  C   UNL     1      33.472 -12.885 -21.732  0.00  0.00    +0.058 C 
ATOM     31  C   UNL     1      33.399 -12.992 -23.215  0.00  0.00    +0.250 C 
ATOM     32  H   UNL     1      33.672 -14.327 -24.736  0.00  0.00    +0.155 HD
ENDBRANCH  20  23
ENDBRANCH  19  20
ENDBRANCH  18  19
ENDBRANCH  17  18
ENDBRANCH   3  17
TORSDOF 8
ENDMDL
MODEL 6
REMARK VINA RESULT:     -11.0      2.292      3.771
REMARK  Name = 9908900
REMARK  8 active torsions:
REMARK  status: ('A' for Active; 'I' for Inactive)
REMARK    1  A    between atoms: N_2  and  C_6
REMARK    2  A    between atoms: N_2  and  C_14
REMARK    3  A    between atoms: N_3  and  C_17
REMARK    4  A    between atoms: C_7  and  O_12
REMARK    5  A    between atoms: C_17  and  C_18
REMARK    6  A    between atoms: C_18  and  C_19
REMARK    7  A    between atoms: C_19  and  O_20
REMARK    8  A    between atoms: O_20  and  C_23
REMARK                            x       y       z     vdW  Elec       q    Type
REMARK                         _______ _______ _______ _____ _____    ______ ____
ROOT
ATOM      1  O   UNL     1      35.420 -23.964 -15.633  0.00  0.00    -0.253 OA
ATOM      2  N   UNL     1      36.045 -23.735 -13.396  0.00  0.00    -0.265 N 
ATOM      3  N   UNL     1      33.774 -23.799 -14.030  0.00  0.00    -0.289 N 
ATOM      4  C   UNL     1      35.101 -23.842 -14.446  0.00  0.00    +0.304 C 
ATOM      5  H   UNL     1      33.581 -23.699 -13.070  0.00  0.00    +0.151 HD
ENDROOT
BRANCH   2   6
ATOM      6  C   UNL     1      37.351 -24.356 -13.397  0.00  0.00    +0.103 C 
ATOM      7  C   UNL     1      37.247 -25.843 -13.762  0.00  0.00    +0.129 C 
ATOM      8  C   UNL     1      38.281 -23.605 -14.353  0.00  0.00    +0.022 C 
ATOM      9  C   UNL     1      38.626 -26.493 -13.882  0.00  0.00    +0.031 C 
ATOM     10  C   UNL     1      39.651 -24.266 -14.455  0.00  0.00    +0.002 C 
ATOM     11  C   UNL     1      39.532 -25.737 -14.845  0.00  0.00    +0.003 C 
BRANCH   7  12
ATOM     12  O   UNL     1      36.512 -26.518 -12.742  0.00  0.00    -0.383 OA
ATOM     13  H   UNL     1      36.624 -26.052 -11.899  0.00  0.00    +0.210 HD
ENDBRANCH   7  12
ENDBRANCH   2   6
BRANCH   2  14
ATOM     14  C   UNL     1      35.675 -22.966 -12.212  0.00  0.00    +0.077 C 
ATOM     15  C   UNL     1      36.720 -22.414 -11.288  0.00  0.00    +0.022 C 
ATOM     16  C   UNL     1      35.837 -23.540 -10.834  0.00  0.00    +0.022 C 
ENDBRANCH   2  14
BRANCH   3  17
ATOM     17  C   UNL     1      32.671 -23.895 -14.959  0.00  0.00    +0.095 C 
BRANCH  17  18
ATOM     18  C   UNL     1      32.558 -22.670 -15.857  0.00  0.00    +0.069 C 
BRANCH  18  19
ATOM     19  C   UNL     1      32.709 -23.005 -17.336  0.00  0.00    +0.207 C 
BRANCH  19  20
ATOM     20  O   UNL     1      33.967 -22.522 -17.788  0.00  0.00    -0.475 OA
BRANCH  20  23
ATOM     21  O   UNL     1      35.001 -17.050 -23.013  0.00  0.00    -0.270 OA
ATOM     22  N   UNL     1      33.877 -18.578 -21.706  0.00  0.00    -0.280 N 
ATOM     23  C   UNL     1      33.946 -21.551 -18.755  0.00  0.00    +0.139 C 
ATOM     24  C   UNL     1      35.136 -20.935 -19.149  0.00  0.00    +0.038 C 
ATOM     25  C   UNL     1      35.115 -19.943 -20.133  0.00  0.00    +0.017 C 
ATOM     26  C   UNL     1      32.735 -21.179 -19.341  0.00  0.00    +0.038 C 
ATOM     27  C   UNL     1      33.897 -19.577 -20.716  0.00  0.00    +0.051 C 
ATOM     28  C   UNL     1      32.706 -20.191 -20.324  0.00  0.00    +0.018 C 
ATOM     29  C   UNL     1      36.338 -19.276 -20.572  0.00  0.00    +0.006 C 
ATOM     30  C   UNL     1      36.296 -18.328 -21.517  0.00  0.00    +0.058 C 
ATOM     31  C   UNL     1      35.011 -17.924 -22.148  0.00  0.00    +0.250 C 
ATOM     32  H   UNL     1      33.011 -18.333 -22.105  0.00  0.00    +0.155 HD
ENDBRANCH  20  23
ENDBRANCH  19  20
ENDBRANCH  18  19
ENDBRANCH  17  18
ENDBRANCH   3  17
TORSDOF 8
ENDMDL
MODEL 7
REMARK VINA RESULT:     -11.0      2.737      4.368
REMARK  Name = 9908900
REMARK  8 active torsions:
REMARK  status: ('A' for Active; 'I' for Inactive)
REMARK    1  A    between atoms: N_2  and  C_6
REMARK    2  A    between atoms: N_2  and  C_14
REMARK    3  A    between atoms: N_3  and  C_17
REMARK    4  A    between atoms: C_7  and  O_12
REMARK    5  A    between atoms: C_17  and  C_18
REMARK    6  A    between atoms: C_18  and  C_19
REMARK    7  A    between atoms: C_19  and  O_20
REMARK    8  A    between atoms: O_20  and  C_23
REMARK                            x       y       z     vdW  Elec       q    Type
REMARK                         _______ _______ _______ _____ _____    ______ ____
ROOT
ATOM      1  O   UNL     1      35.185 -23.865 -15.611  0.00  0.00    -0.253 OA
ATOM      2  N   UNL     1      35.798 -23.779 -13.360  0.00  0.00    -0.265 N 
ATOM      3  N   UNL     1      33.532 -23.894 -14.006  0.00  0.00    -0.289 N 
ATOM      4  C   UNL     1      34.861 -23.847 -14.419  0.00  0.00    +0.304 C 
ATOM      5  H   UNL     1      33.334 -23.876 -13.043  0.00  0.00    +0.151 HD
ENDROOT
BRANCH   2   6
ATOM      6  C   UNL     1      37.130 -24.341 -13.402  0.00  0.00    +0.103 C 
ATOM      7  C   UNL     1      37.081 -25.832 -13.761  0.00  0.00    +0.129 C 
ATOM      8  C   UNL     1      37.993 -23.551 -14.390  0.00  0.00    +0.022 C 
ATOM      9  C   UNL     1      38.483 -26.420 -13.925  0.00  0.00    +0.031 C 
ATOM     10  C   UNL     1      39.387 -24.151 -14.535  0.00  0.00    +0.002 C 
ATOM     11  C   UNL     1      39.323 -25.627 -14.918  0.00  0.00    +0.003 C 
BRANCH   7  12
ATOM     12  O   UNL     1      36.411 -26.536 -12.716  0.00  0.00    -0.383 OA
ATOM     13  H   UNL     1      36.222 -27.442 -13.005  0.00  0.00    +0.210 HD
ENDBRANCH   7  12
ENDBRANCH   2   6
BRANCH   2  14
ATOM     14  C   UNL     1      35.394 -23.119 -12.123  0.00  0.00    +0.077 C 
ATOM     15  C   UNL     1      36.396 -22.788 -11.057  0.00  0.00    +0.022 C 
ATOM     16  C   UNL     1      35.375 -23.862 -10.819  0.00  0.00    +0.022 C 
ENDBRANCH   2  14
BRANCH   3  17
ATOM     17  C   UNL     1      32.435 -23.967 -14.945  0.00  0.00    +0.095 C 
BRANCH  17  18
ATOM     18  C   UNL     1      31.883 -22.595 -15.304  0.00  0.00    +0.069 C 
BRANCH  18  19
ATOM     19  C   UNL     1      31.658 -22.420 -16.801  0.00  0.00    +0.207 C 
BRANCH  19  20
ATOM     20  O   UNL     1      32.760 -22.985 -17.498  0.00  0.00    -0.475 OA
BRANCH  20  23
ATOM     21  O   UNL     1      36.420 -17.873 -21.833  0.00  0.00    -0.270 OA
ATOM     22  N   UNL     1      36.111 -19.454 -20.187  0.00  0.00    -0.280 N 
ATOM     23  C   UNL     1      33.584 -22.113 -18.160  0.00  0.00    +0.139 C 
ATOM     24  C   UNL     1      33.082 -21.338 -19.209  0.00  0.00    +0.038 C 
ATOM     25  C   UNL     1      33.922 -20.451 -19.886  0.00  0.00    +0.017 C 
ATOM     26  C   UNL     1      34.925 -22.004 -17.786  0.00  0.00    +0.038 C 
ATOM     27  C   UNL     1      35.265 -20.347 -19.504  0.00  0.00    +0.051 C 
ATOM     28  C   UNL     1      35.769 -21.120 -18.457  0.00  0.00    +0.018 C 
ATOM     29  C   UNL     1      33.434 -19.624 -20.987  0.00  0.00    +0.006 C 
ATOM     30  C   UNL     1      34.256 -18.780 -21.622  0.00  0.00    +0.058 C 
ATOM     31  C   UNL     1      35.687 -18.655 -21.232  0.00  0.00    +0.250 C 
ATOM     32  H   UNL     1      37.052 -19.394 -19.905  0.00  0.00    +0.155 HD
ENDBRANCH  20  23
ENDBRANCH  19  20
ENDBRANCH  18  19
ENDBRANCH  17  18
ENDBRANCH   3  17
TORSDOF 8
ENDMDL
MODEL 8
REMARK VINA RESULT:     -11.0      2.141      3.645
REMARK  Name = 9908900
REMARK  8 active torsions:
REMARK  status: ('A' for Active; 'I' for Inactive)
REMARK    1  A    between atoms: N_2  and  C_6
REMARK    2  A    between atoms: N_2  and  C_14
REMARK    3  A    between atoms: N_3  and  C_17
REMARK    4  A    between atoms: C_7  and  O_12
REMARK    5  A    between atoms: C_17  and  C_18
REMARK    6  A    between atoms: C_18  and  C_19
REMARK    7  A    between atoms: C_19  and  O_20
REMARK    8  A    between atoms: O_20  and  C_23
REMARK                            x       y       z     vdW  Elec       q    Type
REMARK                         _______ _______ _______ _____ _____    ______ ____
ROOT
ATOM      1  O   UNL     1      33.077 -23.589 -18.401  0.00  0.00    -0.253 OA
ATOM      2  N   UNL     1      33.533 -22.868 -16.228  0.00  0.00    -0.265 N 
ATOM      3  N   UNL     1      34.371 -21.707 -18.102  0.00  0.00    -0.289 N 
ATOM      4  C   UNL     1      33.620 -22.782 -17.639  0.00  0.00    +0.304 C 
ATOM      5  H   UNL     1      34.780 -21.096 -17.448  0.00  0.00    +0.151 HD
ENDROOT
BRANCH   2   6
ATOM      6  C   UNL     1      32.400 -23.401 -15.504  0.00  0.00    +0.103 C 
ATOM      7  C   UNL     1      32.817 -23.858 -14.100  0.00  0.00    +0.129 C 
ATOM      8  C   UNL     1      31.282 -22.356 -15.449  0.00  0.00    +0.022 C 
ATOM      9  C   UNL     1      31.614 -24.319 -13.276  0.00  0.00    +0.031 C 
ATOM     10  C   UNL     1      30.092 -22.838 -14.627  0.00  0.00    +0.002 C 
ATOM     11  C   UNL     1      30.517 -23.263 -13.225  0.00  0.00    +0.003 C 
BRANCH   7  12
ATOM     12  O   UNL     1      33.730 -24.948 -14.221  0.00  0.00    -0.383 OA
ATOM     13  H   UNL     1      33.752 -25.251 -15.142  0.00  0.00    +0.210 HD
ENDBRANCH   7  12
ENDBRANCH   2   6
BRANCH   2  14
ATOM     14  C   UNL     1      34.649 -22.361 -15.437  0.00  0.00    +0.077 C 
ATOM     15  C   UNL     1      35.939 -21.956 -16.085  0.00  0.00    +0.022 C 
ATOM     16  C   UNL     1      35.886 -23.185 -15.225  0.00  0.00    +0.022 C 
ENDBRANCH   2  14
BRANCH   3  17
ATOM     17  C   UNL     1      34.570 -21.456 -19.512  0.00  0.00    +0.095 C 
BRANCH  17  18
ATOM     18  C   UNL     1      33.900 -20.170 -19.975  0.00  0.00    +0.069 C 
BRANCH  18  19
ATOM     19  C   UNL     1      34.655 -19.483 -21.107  0.00  0.00    +0.207 C 
BRANCH  19  20
ATOM     20  O   UNL     1      35.081 -18.203 -20.662  0.00  0.00    -0.475 OA
BRANCH  20  23
ATOM     21  O   UNL     1      32.961 -11.656 -23.973  0.00  0.00    -0.270 OA
ATOM     22  N   UNL     1      33.635 -13.852 -23.809  0.00  0.00    -0.280 N 
ATOM     23  C   UNL     1      34.726 -17.129 -21.437  0.00  0.00    +0.139 C 
ATOM     24  C   UNL     1      34.382 -15.918 -20.833  0.00  0.00    +0.038 C 
ATOM     25  C   UNL     1      34.018 -14.823 -21.622  0.00  0.00    +0.017 C 
ATOM     26  C   UNL     1      34.707 -17.252 -22.828  0.00  0.00    +0.038 C 
ATOM     27  C   UNL     1      34.003 -14.954 -23.016  0.00  0.00    +0.051 C 
ATOM     28  C   UNL     1      34.346 -16.164 -23.621  0.00  0.00    +0.018 C 
ATOM     29  C   UNL     1      33.652 -13.540 -21.028  0.00  0.00    +0.006 C 
ATOM     30  C   UNL     1      33.307 -12.504 -21.803  0.00  0.00    +0.058 C 
ATOM     31  C   UNL     1      33.283 -12.623 -23.286  0.00  0.00    +0.250 C 
ATOM     32  H   UNL     1      33.630 -13.962 -24.787  0.00  0.00    +0.155 HD
ENDBRANCH  20  23
ENDBRANCH  19  20
ENDBRANCH  18  19
ENDBRANCH  17  18
ENDBRANCH   3  17
TORSDOF 8
ENDMDL
MODEL 9
REMARK VINA RESULT:     -10.9      7.300     14.763
REMARK  Name = 9908900
REMARK  8 active torsions:
REMARK  status: ('A' for Active; 'I' for Inactive)
REMARK    1  A    between atoms: N_2  and  C_6
REMARK    2  A    between atoms: N_2  and  C_14
REMARK    3  A    between atoms: N_3  and  C_17
REMARK    4  A    between atoms: C_7  and  O_12
REMARK    5  A    between atoms: C_17  and  C_18
REMARK    6  A    between atoms: C_18  and  C_19
REMARK    7  A    between atoms: C_19  and  O_20
REMARK    8  A    between atoms: O_20  and  C_23
REMARK                            x       y       z     vdW  Elec       q    Type
REMARK                         _______ _______ _______ _____ _____    ______ ____
ROOT
ATOM      1  O   UNL     1      30.448  -8.699 -22.571  0.00  0.00    -0.253 OA
ATOM      2  N   UNL     1      32.006  -6.964 -22.451  0.00  0.00    -0.265 N 
ATOM      3  N   UNL     1      31.516  -8.298 -20.569  0.00  0.00    -0.289 N 
ATOM      4  C   UNL     1      31.259  -8.040 -21.912  0.00  0.00    +0.304 C 
ATOM      5  H   UNL     1      32.173  -7.740 -20.095  0.00  0.00    +0.151 HD
ENDROOT
BRANCH   2   6
ATOM      6  C   UNL     1      32.441  -6.873 -23.828  0.00  0.00    +0.103 C 
ATOM      7  C   UNL     1      31.458  -6.034 -24.655  0.00  0.00    +0.129 C 
ATOM      8  C   UNL     1      33.859  -6.300 -23.885  0.00  0.00    +0.022 C 
ATOM      9  C   UNL     1      31.956  -5.828 -26.086  0.00  0.00    +0.031 C 
ATOM     10  C   UNL     1      34.338  -6.107 -25.320  0.00  0.00    +0.002 C 
ATOM     11  C   UNL     1      33.365  -5.248 -26.123  0.00  0.00    +0.003 C 
BRANCH   7  12
ATOM     12  O   UNL     1      30.201  -6.709 -24.703  0.00  0.00    -0.383 OA
ATOM     13  H   UNL     1      29.498  -6.106 -24.416  0.00  0.00    +0.210 HD
ENDBRANCH   7  12
ENDBRANCH   2   6
BRANCH   2  14
ATOM     14  C   UNL     1      32.391  -5.876 -21.559  0.00  0.00    +0.077 C 
ATOM     15  C   UNL     1      31.412  -5.283 -20.589  0.00  0.00    +0.022 C 
ATOM     16  C   UNL     1      31.878  -4.482 -21.770  0.00  0.00    +0.022 C 
ENDBRANCH   2  14
BRANCH   3  17
ATOM     17  C   UNL     1      30.850  -9.359 -19.847  0.00  0.00    +0.095 C 
BRANCH  17  18
ATOM     18  C   UNL     1      31.630 -10.666 -19.882  0.00  0.00    +0.069 C 
BRANCH  18  19
ATOM     19  C   UNL     1      31.206 -11.578 -21.026  0.00  0.00    +0.207 C 
BRANCH  19  20
ATOM     20  O   UNL     1      32.207 -11.542 -22.034  0.00  0.00    -0.475 OA
BRANCH  20  23
ATOM     21  O   UNL     1      35.523 -18.377 -22.811  0.00  0.00    -0.270 OA
ATOM     22  N   UNL     1      34.540 -16.391 -23.438  0.00  0.00    -0.280 N 
ATOM     23  C   UNL     1      32.781 -12.738 -22.379  0.00  0.00    +0.139 C 
ATOM     24  C   UNL     1      33.227 -13.610 -21.383  0.00  0.00    +0.038 C 
ATOM     25  C   UNL     1      33.814 -14.828 -21.734  0.00  0.00    +0.017 C 
ATOM     26  C   UNL     1      32.919 -13.081 -23.726  0.00  0.00    +0.038 C 
ATOM     27  C   UNL     1      33.948 -15.164 -23.086  0.00  0.00    +0.051 C 
ATOM     28  C   UNL     1      33.503 -14.295 -24.083  0.00  0.00    +0.018 C 
ATOM     29  C   UNL     1      34.293 -15.766 -20.721  0.00  0.00    +0.006 C 
ATOM     30  C   UNL     1      34.853 -16.929 -21.078  0.00  0.00    +0.058 C 
ATOM     31  C   UNL     1      35.005 -17.304 -22.510  0.00  0.00    +0.250 C 
ATOM     32  H   UNL     1      34.627 -16.610 -24.393  0.00  0.00    +0.155 HD
ENDBRANCH  20  23
ENDBRANCH  19  20
ENDBRANCH  18  19
ENDBRANCH  17  18
ENDBRANCH   3  17
TORSDOF 8
ENDMDL
