MODEL 1
REMARK VINA RESULT:     -11.9      0.000      0.000
REMARK  Name = 25166913
REMARK  4 active torsions:
REMARK  status: ('A' for Active; 'I' for Inactive)
REMARK    1  A    between atoms: C_2  and  C_11
REMARK    2  A    between atoms: C_3  and  N_21
REMARK    3  A    between atoms: N_22  and  C_26
REMARK    4  A    between atoms: C_31  and  C_33
REMARK                            x       y       z     vdW  Elec       q    Type
REMARK                         _______ _______ _______ _____ _____    ______ ____
ROOT
ATOM      1  N   UNL     1      33.883 -22.354 -17.692  0.00  0.00    +0.389 N 
ATOM      2  C   UNL     1      35.072 -21.597 -17.223  0.00  0.00    -0.019 C 
ATOM      3  C   UNL     1      35.677 -21.052 -19.659  0.00  0.00    +0.069 C 
ATOM      4  C   UNL     1      36.178 -21.554 -18.304  0.00  0.00    +0.002 C 
ATOM      5  C   UNL     1      34.423 -21.818 -20.066  0.00  0.00    -0.003 C 
ATOM      6  C   UNL     1      33.366 -21.813 -18.961  0.00  0.00    -0.076 C 
ATOM      7  C   UNL     1      32.799 -22.342 -16.699  0.00  0.00    -0.100 C 
ATOM      8  H   UNL     1      34.197 -23.315 -17.832  0.00  0.00    -0.080 HD
ENDROOT
BRANCH   2  11
ATOM      9  N   UNL     1      36.803 -22.943 -15.974  0.00  0.00    -0.320 N 
ATOM     10  N   UNL     1      35.242 -21.982 -14.716  0.00  0.00    -0.320 N 
ATOM     11  C   UNL     1      35.683 -22.160 -15.942  0.00  0.00    +0.124 C 
ATOM     12  C   UNL     1      37.106 -23.293 -14.682  0.00  0.00    +0.059 C 
ATOM     13  C   UNL     1      36.118 -22.681 -13.917  0.00  0.00    +0.059 C 
ATOM     14  C   UNL     1      38.129 -24.068 -14.135  0.00  0.00    +0.016 C 
ATOM     15  C   UNL     1      36.135 -22.841 -12.521  0.00  0.00    +0.016 C 
ATOM     16  C   UNL     1      38.131 -24.218 -12.745  0.00  0.00    +0.001 C 
ATOM     17  C   UNL     1      37.153 -23.615 -11.950  0.00  0.00    +0.001 C 
ATOM     18  H   UNL     1      37.303 -23.208 -16.779  0.00  0.00    +0.148 HD
ATOM     19  H   UNL     1      34.456 -21.461 -14.432  0.00  0.00    +0.148 HD
ENDBRANCH   2  11
BRANCH   3  21
ATOM     20  O   UNL     1      34.872 -19.417 -21.876  0.00  0.00    -0.252 OA
ATOM     21  N   UNL     1      35.441 -19.627 -19.645  0.00  0.00    -0.290 N 
ATOM     22  N   UNL     1      34.901 -17.550 -20.454  0.00  0.00    -0.268 N 
ATOM     23  C   UNL     1      35.050 -18.901 -20.775  0.00  0.00    +0.304 C 
ATOM     24  H   UNL     1      35.564 -19.142 -18.796  0.00  0.00    +0.151 HD
ATOM     25  H   UNL     1      35.083 -17.304 -19.519  0.00  0.00    +0.156 HD
BRANCH  22  26
ATOM     26  C   UNL     1      34.518 -16.491 -21.311  0.00  0.00    +0.052 C 
ATOM     27  C   UNL     1      34.638 -16.633 -22.694  0.00  0.00    +0.015 C 
ATOM     28  C   UNL     1      34.018 -15.306 -20.773  0.00  0.00    +0.015 C 
ATOM     29  C   UNL     1      34.260 -15.588 -23.538  0.00  0.00    +0.012 C 
ATOM     30  C   UNL     1      33.640 -14.261 -21.616  0.00  0.00    +0.012 C 
ATOM     31  C   UNL     1      33.761 -14.402 -22.999  0.00  0.00    +0.069 C 
BRANCH  31  33
ATOM     32  N   UNL     1      33.058 -12.465 -24.567  0.00  0.00    -0.191 NA
ATOM     33  C   UNL     1      33.374 -13.333 -23.864  0.00  0.00    +0.100 C 
ENDBRANCH  31  33
ENDBRANCH  22  26
ENDBRANCH   3  21
TORSDOF 4
ENDMDL
MODEL 2
REMARK VINA RESULT:     -10.8      1.213      1.657
REMARK  Name = 25166913
REMARK  4 active torsions:
REMARK  status: ('A' for Active; 'I' for Inactive)
REMARK    1  A    between atoms: C_2  and  C_11
REMARK    2  A    between atoms: C_3  and  N_21
REMARK    3  A    between atoms: N_22  and  C_26
REMARK    4  A    between atoms: C_31  and  C_33
REMARK                            x       y       z     vdW  Elec       q    Type
REMARK                         _______ _______ _______ _____ _____    ______ ____
ROOT
ATOM      1  N   UNL     1      33.681 -21.768 -18.807  0.00  0.00    +0.389 N 
ATOM      2  C   UNL     1      34.847 -21.088 -18.186  0.00  0.00    -0.019 C 
ATOM      3  C   UNL     1      35.481 -20.104 -20.472  0.00  0.00    +0.069 C 
ATOM      4  C   UNL     1      35.970 -20.833 -19.220  0.00  0.00    +0.002 C 
ATOM      5  C   UNL     1      34.249 -20.805 -21.036  0.00  0.00    -0.003 C 
ATOM      6  C   UNL     1      33.174 -21.017 -19.969  0.00  0.00    -0.076 C 
ATOM      7  C   UNL     1      32.581 -21.952 -17.850  0.00  0.00    -0.100 C 
ATOM      8  H   UNL     1      34.016 -22.682 -19.111  0.00  0.00    -0.080 HD
ENDROOT
BRANCH   2  11
ATOM      9  N   UNL     1      34.653 -22.511 -16.112  0.00  0.00    -0.320 N 
ATOM     10  N   UNL     1      36.724 -21.998 -16.735  0.00  0.00    -0.320 N 
ATOM     11  C   UNL     1      35.447 -21.862 -17.015  0.00  0.00    +0.124 C 
ATOM     12  C   UNL     1      35.473 -23.108 -15.188  0.00  0.00    +0.059 C 
ATOM     13  C   UNL     1      36.760 -22.773 -15.598  0.00  0.00    +0.059 C 
ATOM     14  C   UNL     1      35.206 -23.888 -14.062  0.00  0.00    +0.016 C 
ATOM     15  C   UNL     1      37.858 -23.235 -14.854  0.00  0.00    +0.016 C 
ATOM     16  C   UNL     1      36.311 -24.339 -13.332  0.00  0.00    +0.001 C 
ATOM     17  C   UNL     1      37.614 -24.020 -13.720  0.00  0.00    +0.001 C 
ATOM     18  H   UNL     1      33.669 -22.545 -16.123  0.00  0.00    +0.148 HD
ATOM     19  H   UNL     1      37.489 -21.627 -17.231  0.00  0.00    +0.148 HD
ENDBRANCH   2  11
BRANCH   3  21
ATOM     20  O   UNL     1      34.635 -18.121 -22.368  0.00  0.00    -0.252 OA
ATOM     21  N   UNL     1      35.217 -18.709 -20.208  0.00  0.00    -0.290 N 
ATOM     22  N   UNL     1      34.632 -16.533 -20.639  0.00  0.00    -0.268 N 
ATOM     23  C   UNL     1      34.806 -17.804 -21.193  0.00  0.00    +0.304 C 
ATOM     24  H   UNL     1      35.332 -18.378 -19.287  0.00  0.00    +0.151 HD
ATOM     25  H   UNL     1      34.812 -16.452 -19.675  0.00  0.00    +0.156 HD
BRANCH  22  26
ATOM     26  C   UNL     1      34.224 -15.348 -21.296  0.00  0.00    +0.052 C 
ATOM     27  C   UNL     1      34.388 -15.223 -22.676  0.00  0.00    +0.015 C 
ATOM     28  C   UNL     1      33.657 -14.306 -20.564  0.00  0.00    +0.015 C 
ATOM     29  C   UNL     1      33.986 -14.054 -23.323  0.00  0.00    +0.012 C 
ATOM     30  C   UNL     1      33.255 -13.137 -21.211  0.00  0.00    +0.012 C 
ATOM     31  C   UNL     1      33.420 -13.011 -22.590  0.00  0.00    +0.069 C 
BRANCH  31  33
ATOM     32  N   UNL     1      32.673 -10.843 -23.791  0.00  0.00    -0.191 NA
ATOM     33  C   UNL     1      33.007 -11.815 -23.253  0.00  0.00    +0.100 C 
ENDBRANCH  31  33
ENDBRANCH  22  26
ENDBRANCH   3  21
TORSDOF 4
ENDMDL
MODEL 3
REMARK VINA RESULT:      -9.9      3.798      6.940
REMARK  Name = 25166913
REMARK  4 active torsions:
REMARK  status: ('A' for Active; 'I' for Inactive)
REMARK    1  A    between atoms: C_2  and  C_11
REMARK    2  A    between atoms: C_3  and  N_21
REMARK    3  A    between atoms: N_22  and  C_26
REMARK    4  A    between atoms: C_31  and  C_33
REMARK                            x       y       z     vdW  Elec       q    Type
REMARK                         _______ _______ _______ _____ _____    ______ ____
ROOT
ATOM      1  N   UNL     1      33.729 -18.011 -23.798  0.00  0.00    +0.389 N 
ATOM      2  C   UNL     1      33.721 -17.548 -22.386  0.00  0.00    -0.019 C 
ATOM      3  C   UNL     1      34.608 -15.258 -23.140  0.00  0.00    +0.069 C 
ATOM      4  C   UNL     1      34.754 -16.419 -22.155  0.00  0.00    +0.002 C 
ATOM      5  C   UNL     1      34.560 -15.789 -24.568  0.00  0.00    -0.003 C 
ATOM      6  C   UNL     1      33.514 -16.893 -24.733  0.00  0.00    -0.076 C 
ATOM      7  C   UNL     1      32.704 -19.034 -24.045  0.00  0.00    -0.100 C 
ATOM      8  H   UNL     1      34.651 -18.417 -23.957  0.00  0.00    -0.080 HD
ENDROOT
BRANCH   2  11
ATOM      9  N   UNL     1      32.999 -19.452 -20.897  0.00  0.00    -0.320 N 
ATOM     10  N   UNL     1      35.174 -18.990 -20.880  0.00  0.00    -0.320 N 
ATOM     11  C   UNL     1      34.004 -18.662 -21.381  0.00  0.00    +0.124 C 
ATOM     12  C   UNL     1      33.559 -20.351 -20.023  0.00  0.00    +0.059 C 
ATOM     13  C   UNL     1      34.915 -20.042 -20.030  0.00  0.00    +0.059 C 
ATOM     14  C   UNL     1      33.010 -21.376 -19.252  0.00  0.00    +0.016 C 
ATOM     15  C   UNL     1      35.792 -20.789 -19.227  0.00  0.00    +0.016 C 
ATOM     16  C   UNL     1      33.896 -22.110 -18.457  0.00  0.00    +0.001 C 
ATOM     17  C   UNL     1      35.264 -21.824 -18.444  0.00  0.00    +0.001 C 
ATOM     18  H   UNL     1      32.045 -19.388 -21.131  0.00  0.00    +0.148 HD
ATOM     19  H   UNL     1      36.045 -18.574 -21.070  0.00  0.00    +0.148 HD
ENDBRANCH   2  11
BRANCH   3  21
ATOM     20  O   UNL     1      34.500 -12.394 -22.982  0.00  0.00    -0.252 OA
ATOM     21  N   UNL     1      33.449 -14.449 -22.841  0.00  0.00    -0.290 N 
ATOM     22  N   UNL     1      32.214 -12.551 -22.473  0.00  0.00    -0.268 N 
ATOM     23  C   UNL     1      33.481 -13.052 -22.782  0.00  0.00    +0.304 C 
ATOM     24  H   UNL     1      32.593 -14.905 -22.669  0.00  0.00    +0.151 HD
ATOM     25  H   UNL     1      31.504 -13.220 -22.344  0.00  0.00    +0.156 HD
BRANCH  22  26
ATOM     26  C   UNL     1      31.828 -11.198 -22.323  0.00  0.00    +0.052 C 
ATOM     27  C   UNL     1      31.103 -10.799 -21.200  0.00  0.00    +0.015 C 
ATOM     28  C   UNL     1      32.173 -10.263 -23.299  0.00  0.00    +0.015 C 
ATOM     29  C   UNL     1      30.722  -9.465 -21.053  0.00  0.00    +0.012 C 
ATOM     30  C   UNL     1      31.793  -8.929 -23.152  0.00  0.00    +0.012 C 
ATOM     31  C   UNL     1      31.067  -8.530 -22.029  0.00  0.00    +0.069 C 
BRANCH  31  33
ATOM     32  N   UNL     1      30.361  -6.054 -21.756  0.00  0.00    -0.191 NA
ATOM     33  C   UNL     1      30.677  -7.164 -21.878  0.00  0.00    +0.100 C 
ENDBRANCH  31  33
ENDBRANCH  22  26
ENDBRANCH   3  21
TORSDOF 4
ENDMDL
MODEL 4
REMARK VINA RESULT:      -9.3      1.114      1.793
REMARK  Name = 25166913
REMARK  4 active torsions:
REMARK  status: ('A' for Active; 'I' for Inactive)
REMARK    1  A    between atoms: C_2  and  C_11
REMARK    2  A    between atoms: C_3  and  N_21
REMARK    3  A    between atoms: N_22  and  C_26
REMARK    4  A    between atoms: C_31  and  C_33
REMARK                            x       y       z     vdW  Elec       q    Type
REMARK                         _______ _______ _______ _____ _____    ______ ____
ROOT
ATOM      1  N   UNL     1      33.176 -22.491 -17.340  0.00  0.00    +0.389 N 
ATOM      2  C   UNL     1      34.392 -21.771 -16.882  0.00  0.00    -0.019 C 
ATOM      3  C   UNL     1      35.225 -21.650 -19.309  0.00  0.00    +0.069 C 
ATOM      4  C   UNL     1      35.575 -21.982 -17.858  0.00  0.00    +0.002 C 
ATOM      5  C   UNL     1      33.939 -22.364 -19.711  0.00  0.00    -0.003 C 
ATOM      6  C   UNL     1      32.808 -22.107 -18.714  0.00  0.00    -0.076 C 
ATOM      7  C   UNL     1      32.027 -22.241 -16.459  0.00  0.00    -0.100 C 
ATOM      8  H   UNL     1      33.408 -23.484 -17.313  0.00  0.00    -0.080 HD
ENDROOT
BRANCH   2  11
ATOM      9  N   UNL     1      34.000 -22.807 -14.615  0.00  0.00    -0.320 N 
ATOM     10  N   UNL     1      36.044 -22.005 -14.965  0.00  0.00    -0.320 N 
ATOM     11  C   UNL     1      34.850 -22.183 -15.485  0.00  0.00    +0.124 C 
ATOM     12  C   UNL     1      34.693 -23.048 -13.455  0.00  0.00    +0.059 C 
ATOM     13  C   UNL     1      35.965 -22.538 -13.698  0.00  0.00    +0.059 C 
ATOM     14  C   UNL     1      34.325 -23.649 -12.251  0.00  0.00    +0.016 C 
ATOM     15  C   UNL     1      36.941 -22.626 -12.693  0.00  0.00    +0.016 C 
ATOM     16  C   UNL     1      35.310 -23.728 -11.260  0.00  0.00    +0.001 C 
ATOM     17  C   UNL     1      36.596 -23.226 -11.475  0.00  0.00    +0.001 C 
ATOM     18  H   UNL     1      33.060 -23.041 -14.789  0.00  0.00    +0.148 HD
ATOM     19  H   UNL     1      36.825 -21.582 -15.389  0.00  0.00    +0.148 HD
ENDBRANCH   2  11
BRANCH   3  21
ATOM     20  O   UNL     1      34.522 -20.317 -21.751  0.00  0.00    -0.252 OA
ATOM     21  N   UNL     1      35.123 -20.226 -19.520  0.00  0.00    -0.290 N 
ATOM     22  N   UNL     1      34.759 -18.260 -20.646  0.00  0.00    -0.268 N 
ATOM     23  C   UNL     1      34.774 -19.653 -20.748  0.00  0.00    +0.304 C 
ATOM     24  H   UNL     1      35.311 -19.626 -18.761  0.00  0.00    +0.151 HD
ATOM     25  H   UNL     1      34.986 -17.888 -19.763  0.00  0.00    +0.156 HD
BRANCH  22  26
ATOM     26  C   UNL     1      34.455 -17.318 -21.656  0.00  0.00    +0.052 C 
ATOM     27  C   UNL     1      34.368 -15.961 -21.344  0.00  0.00    +0.015 C 
ATOM     28  C   UNL     1      34.245 -17.746 -22.967  0.00  0.00    +0.015 C 
ATOM     29  C   UNL     1      34.068 -15.033 -22.341  0.00  0.00    +0.012 C 
ATOM     30  C   UNL     1      33.946 -16.818 -23.965  0.00  0.00    +0.012 C 
ATOM     31  C   UNL     1      33.857 -15.461 -23.652  0.00  0.00    +0.069 C 
BRANCH  31  33
ATOM     32  N   UNL     1      33.303 -13.737 -25.502  0.00  0.00    -0.191 NA
ATOM     33  C   UNL     1      33.551 -14.510 -24.673  0.00  0.00    +0.100 C 
ENDBRANCH  31  33
ENDBRANCH  22  26
ENDBRANCH   3  21
TORSDOF 4
ENDMDL
