MODEL 1
REMARK VINA RESULT:     -12.8      0.000      0.000
REMARK  Name = 447653
REMARK  8 active torsions:
REMARK  status: ('A' for Active; 'I' for Inactive)
REMARK    1  A    between atoms: N_2  and  C_20
REMARK    2  A    between atoms: C_4  and  C_11
REMARK    3  A    between atoms: C_19  and  O_25
REMARK    4  A    between atoms: O_25  and  C_26
REMARK    5  A    between atoms: C_26  and  C_27
REMARK    6  A    between atoms: C_27  and  O_28
REMARK    7  A    between atoms: C_27  and  C_30
REMARK    8  A    between atoms: C_30  and  N_31
REMARK                            x       y       z     vdW  Elec       q    Type
REMARK                         _______ _______ _______ _____ _____    ______ ____
ROOT
ATOM      1  N   UNL     1      34.164 -22.562 -16.620  0.00  0.00    -0.340 NA
ATOM      2  N   UNL     1      32.370 -21.856 -17.957  0.00  0.00    -0.247 N 
ATOM      3  N   UNL     1      31.892 -23.118 -16.038  0.00  0.00    -0.170 NA
ATOM      4  C   UNL     1      34.564 -23.230 -15.521  0.00  0.00    +0.148 C 
ATOM      5  C   UNL     1      33.710 -23.859 -14.644  0.00  0.00    +0.052 C 
ATOM      6  C   UNL     1      32.831 -22.546 -16.816  0.00  0.00    +0.148 C 
ATOM      7  C   UNL     1      32.369 -23.769 -14.957  0.00  0.00    +0.114 C 
ATOM      8  H   UNL     1      31.391 -21.869 -18.060  0.00  0.00    +0.165 HD
ENDROOT
BRANCH   4  11
ATOM      9  N   UNL     1      36.685 -24.267 -14.716  0.00  0.00    -0.251 N 
ATOM     10  N   UNL     1      38.200 -22.718 -15.269  0.00  0.00    -0.393 NA
ATOM     11  C   UNL     1      35.994 -23.245 -15.315  0.00  0.00    +0.181 C 
ATOM     12  C   UNL     1      38.028 -23.898 -14.711  0.00  0.00    +0.187 C 
ATOM     13  C   UNL     1      36.945 -22.309 -15.646  0.00  0.00    +0.114 C 
ATOM     14  C   UNL     1      36.213 -25.467 -14.190  0.00  0.00    +0.068 C 
ATOM     15  C   UNL     1      38.949 -24.818 -14.129  0.00  0.00    +0.048 C 
ATOM     16  C   UNL     1      36.763 -21.009 -16.311  0.00  0.00    +0.064 C 
ATOM     17  C   UNL     1      37.087 -26.328 -13.644  0.00  0.00    +0.016 C 
ATOM     18  C   UNL     1      38.499 -25.981 -13.619  0.00  0.00    +0.005 C 
ENDBRANCH   4  11
BRANCH   2  20
ATOM     19  C   UNL     1      34.353 -19.750 -21.003  0.00  0.00    +0.139 C 
ATOM     20  C   UNL     1      33.035 -21.151 -18.978  0.00  0.00    +0.058 C 
ATOM     21  C   UNL     1      35.083 -20.527 -20.102  0.00  0.00    +0.038 C 
ATOM     22  C   UNL     1      32.965 -19.673 -20.891  0.00  0.00    +0.038 C 
ATOM     23  C   UNL     1      34.424 -21.226 -19.091  0.00  0.00    +0.018 C 
ATOM     24  C   UNL     1      32.307 -20.372 -19.880  0.00  0.00    +0.018 C 
BRANCH  19  25
ATOM     25  O   UNL     1      34.996 -19.068 -21.990  0.00  0.00    -0.473 OA
BRANCH  25  26
ATOM     26  C   UNL     1      35.605 -17.828 -21.630  0.00  0.00    +0.232 C 
BRANCH  26  27
ATOM     27  C   UNL     1      34.557 -16.722 -21.713  0.00  0.00    +0.133 C 
BRANCH  27  28
ATOM     28  O   UNL     1      34.539 -16.013 -20.471  0.00  0.00    -0.383 OA
ATOM     29  H   UNL     1      33.625 -15.926 -20.160  0.00  0.00    +0.210 HD
ENDBRANCH  27  28
BRANCH  27  30
ATOM     30  C   UNL     1      34.827 -15.715 -22.833  0.00  0.00    -0.044 C 
BRANCH  30  31
ATOM     31  N   UNL     1      33.622 -14.993 -23.222  0.00  0.00    +0.386 N 
ATOM     32  C   UNL     1      33.736 -13.575 -22.876  0.00  0.00    -0.101 C 
ATOM     33  C   UNL     1      33.370 -15.146 -24.656  0.00  0.00    -0.101 C 
ATOM     34  H   UNL     1      32.836 -15.390 -22.709  0.00  0.00    -0.080 HD
ENDBRANCH  30  31
ENDBRANCH  27  30
ENDBRANCH  26  27
ENDBRANCH  25  26
ENDBRANCH  19  25
ENDBRANCH   2  20
TORSDOF 8
ENDMDL
MODEL 2
REMARK VINA RESULT:     -12.5      2.879     11.739
REMARK  Name = 447653
REMARK  8 active torsions:
REMARK  status: ('A' for Active; 'I' for Inactive)
REMARK    1  A    between atoms: N_2  and  C_20
REMARK    2  A    between atoms: C_4  and  C_11
REMARK    3  A    between atoms: C_19  and  O_25
REMARK    4  A    between atoms: O_25  and  C_26
REMARK    5  A    between atoms: C_26  and  C_27
REMARK    6  A    between atoms: C_27  and  O_28
REMARK    7  A    between atoms: C_27  and  C_30
REMARK    8  A    between atoms: C_30  and  N_31
REMARK                            x       y       z     vdW  Elec       q    Type
REMARK                         _______ _______ _______ _____ _____    ______ ____
ROOT
ATOM      1  N   UNL     1      33.107 -14.280 -23.401  0.00  0.00    -0.340 NA
ATOM      2  N   UNL     1      33.918 -16.202 -24.474  0.00  0.00    -0.247 N 
ATOM      3  N   UNL     1      33.307 -14.365 -25.801  0.00  0.00    -0.170 NA
ATOM      4  C   UNL     1      32.636 -13.024 -23.528  0.00  0.00    +0.148 C 
ATOM      5  C   UNL     1      32.472 -12.378 -24.732  0.00  0.00    +0.052 C 
ATOM      6  C   UNL     1      33.420 -14.884 -24.564  0.00  0.00    +0.148 C 
ATOM      7  C   UNL     1      32.828 -13.106 -25.849  0.00  0.00    +0.114 C 
ATOM      8  H   UNL     1      34.133 -16.604 -25.347  0.00  0.00    +0.165 HD
ENDROOT
BRANCH   4  11
ATOM      9  N   UNL     1      31.902 -11.073 -22.159  0.00  0.00    -0.251 N 
ATOM     10  N   UNL     1      31.915 -11.924 -20.091  0.00  0.00    -0.393 NA
ATOM     11  C   UNL     1      32.302 -12.379 -22.279  0.00  0.00    +0.181 C 
ATOM     12  C   UNL     1      31.679 -10.842 -20.804  0.00  0.00    +0.187 C 
ATOM     13  C   UNL     1      32.301 -12.879 -20.998  0.00  0.00    +0.114 C 
ATOM     14  C   UNL     1      31.730 -10.104 -23.144  0.00  0.00    +0.068 C 
ATOM     15  C   UNL     1      31.251  -9.533 -20.432  0.00  0.00    +0.048 C 
ATOM     16  C   UNL     1      32.648 -14.234 -20.540  0.00  0.00    +0.064 C 
ATOM     17  C   UNL     1      31.327  -8.874 -22.786  0.00  0.00    +0.016 C 
ATOM     18  C   UNL     1      31.082  -8.592 -21.380  0.00  0.00    +0.005 C 
ENDBRANCH   4  11
BRANCH   2  20
ATOM     19  C   UNL     1      34.664 -18.748 -21.218  0.00  0.00    +0.139 C 
ATOM     20  C   UNL     1      34.168 -17.055 -23.382  0.00  0.00    +0.058 C 
ATOM     21  C   UNL     1      35.085 -17.418 -21.175  0.00  0.00    +0.038 C 
ATOM     22  C   UNL     1      33.997 -19.231 -22.342  0.00  0.00    +0.038 C 
ATOM     23  C   UNL     1      34.836 -16.572 -22.256  0.00  0.00    +0.018 C 
ATOM     24  C   UNL     1      33.749 -18.386 -23.424  0.00  0.00    +0.018 C 
BRANCH  19  25
ATOM     25  O   UNL     1      34.907 -19.572 -20.162  0.00  0.00    -0.473 OA
BRANCH  25  26
ATOM     26  C   UNL     1      33.837 -20.415 -19.738  0.00  0.00    +0.232 C 
BRANCH  26  27
ATOM     27  C   UNL     1      34.390 -21.473 -18.786  0.00  0.00    +0.133 C 
BRANCH  27  28
ATOM     28  O   UNL     1      34.155 -22.766 -19.349  0.00  0.00    -0.383 OA
ATOM     29  H   UNL     1      33.253 -22.806 -19.704  0.00  0.00    +0.210 HD
ENDBRANCH  27  28
BRANCH  27  30
ATOM     30  C   UNL     1      35.892 -21.330 -18.529  0.00  0.00    -0.044 C 
BRANCH  30  31
ATOM     31  N   UNL     1      36.257 -21.729 -17.176  0.00  0.00    +0.386 N 
ATOM     32  C   UNL     1      37.003 -20.662 -16.507  0.00  0.00    -0.101 C 
ATOM     33  C   UNL     1      35.064 -22.077 -16.401  0.00  0.00    -0.101 C 
ATOM     34  H   UNL     1      36.855 -22.552 -17.240  0.00  0.00    -0.080 HD
ENDBRANCH  30  31
ENDBRANCH  27  30
ENDBRANCH  26  27
ENDBRANCH  25  26
ENDBRANCH  19  25
ENDBRANCH   2  20
TORSDOF 8
ENDMDL
MODEL 3
REMARK VINA RESULT:     -12.4      1.423      1.524
REMARK  Name = 447653
REMARK  8 active torsions:
REMARK  status: ('A' for Active; 'I' for Inactive)
REMARK    1  A    between atoms: N_2  and  C_20
REMARK    2  A    between atoms: C_4  and  C_11
REMARK    3  A    between atoms: C_19  and  O_25
REMARK    4  A    between atoms: O_25  and  C_26
REMARK    5  A    between atoms: C_26  and  C_27
REMARK    6  A    between atoms: C_27  and  O_28
REMARK    7  A    between atoms: C_27  and  C_30
REMARK    8  A    between atoms: C_30  and  N_31
REMARK                            x       y       z     vdW  Elec       q    Type
REMARK                         _______ _______ _______ _____ _____    ______ ____
ROOT
ATOM      1  N   UNL     1      33.483 -22.446 -16.255  0.00  0.00    -0.340 NA
ATOM      2  N   UNL     1      31.992 -22.001 -18.011  0.00  0.00    -0.247 N 
ATOM      3  N   UNL     1      31.190 -23.181 -16.148  0.00  0.00    -0.170 NA
ATOM      4  C   UNL     1      33.673 -23.003 -15.043  0.00  0.00    +0.148 C 
ATOM      5  C   UNL     1      32.694 -23.655 -14.329  0.00  0.00    +0.052 C 
ATOM      6  C   UNL     1      32.233 -22.571 -16.742  0.00  0.00    +0.148 C 
ATOM      7  C   UNL     1      31.457 -23.715 -14.939  0.00  0.00    +0.114 C 
ATOM      8  H   UNL     1      31.066 -22.116 -18.327  0.00  0.00    +0.165 HD
ENDROOT
BRANCH   4  11
ATOM      9  N   UNL     1      35.401 -23.228 -13.259  0.00  0.00    -0.251 N 
ATOM     10  N   UNL     1      37.225 -22.426 -14.274  0.00  0.00    -0.393 NA
ATOM     11  C   UNL     1      35.014 -22.866 -14.524  0.00  0.00    +0.181 C 
ATOM     12  C   UNL     1      36.759 -22.939 -13.154  0.00  0.00    +0.187 C 
ATOM     13  C   UNL     1      36.150 -22.379 -15.126  0.00  0.00    +0.114 C 
ATOM     14  C   UNL     1      34.648 -23.779 -12.225  0.00  0.00    +0.068 C 
ATOM     15  C   UNL     1      37.389 -23.233 -11.909  0.00  0.00    +0.048 C 
ATOM     16  C   UNL     1      36.314 -21.850 -16.490  0.00  0.00    +0.064 C 
ATOM     17  C   UNL     1      35.249 -24.053 -11.056  0.00  0.00    +0.016 C 
ATOM     18  C   UNL     1      36.667 -23.767 -10.905  0.00  0.00    +0.005 C 
ENDBRANCH   4  11
BRANCH   2  20
ATOM     19  C   UNL     1      34.445 -19.908 -20.703  0.00  0.00    +0.139 C 
ATOM     20  C   UNL     1      32.814 -21.300 -18.913  0.00  0.00    +0.058 C 
ATOM     21  C   UNL     1      34.999 -20.865 -19.852  0.00  0.00    +0.038 C 
ATOM     22  C   UNL     1      33.076 -19.646 -20.658  0.00  0.00    +0.038 C 
ATOM     23  C   UNL     1      34.185 -21.561 -18.959  0.00  0.00    +0.018 C 
ATOM     24  C   UNL     1      32.261 -20.341 -19.764  0.00  0.00    +0.018 C 
BRANCH  19  25
ATOM     25  O   UNL     1      35.240 -19.230 -21.574  0.00  0.00    -0.473 OA
BRANCH  25  26
ATOM     26  C   UNL     1      35.707 -17.946 -21.162  0.00  0.00    +0.232 C 
BRANCH  26  27
ATOM     27  C   UNL     1      34.633 -16.908 -21.473  0.00  0.00    +0.133 C 
BRANCH  27  28
ATOM     28  O   UNL     1      34.517 -16.019 -20.359  0.00  0.00    -0.383 OA
ATOM     29  H   UNL     1      34.445 -15.106 -20.678  0.00  0.00    +0.210 HD
ENDBRANCH  27  28
BRANCH  27  30
ATOM     30  C   UNL     1      34.940 -16.073 -22.719  0.00  0.00    -0.044 C 
BRANCH  30  31
ATOM     31  N   UNL     1      33.769 -15.348 -23.195  0.00  0.00    +0.386 N 
ATOM     32  C   UNL     1      33.882 -13.922 -22.882  0.00  0.00    -0.101 C 
ATOM     33  C   UNL     1      33.595 -15.538 -24.636  0.00  0.00    -0.101 C 
ATOM     34  H   UNL     1      32.950 -15.721 -22.716  0.00  0.00    -0.080 HD
ENDBRANCH  30  31
ENDBRANCH  27  30
ENDBRANCH  26  27
ENDBRANCH  25  26
ENDBRANCH  19  25
ENDBRANCH   2  20
TORSDOF 8
ENDMDL
MODEL 4
REMARK VINA RESULT:     -11.3      2.794     11.636
REMARK  Name = 447653
REMARK  8 active torsions:
REMARK  status: ('A' for Active; 'I' for Inactive)
REMARK    1  A    between atoms: N_2  and  C_20
REMARK    2  A    between atoms: C_4  and  C_11
REMARK    3  A    between atoms: C_19  and  O_25
REMARK    4  A    between atoms: O_25  and  C_26
REMARK    5  A    between atoms: C_26  and  C_27
REMARK    6  A    between atoms: C_27  and  O_28
REMARK    7  A    between atoms: C_27  and  C_30
REMARK    8  A    between atoms: C_30  and  N_31
REMARK                            x       y       z     vdW  Elec       q    Type
REMARK                         _______ _______ _______ _____ _____    ______ ____
ROOT
ATOM      1  N   UNL     1      33.192 -14.493 -23.287  0.00  0.00    -0.340 NA
ATOM      2  N   UNL     1      34.002 -16.434 -24.328  0.00  0.00    -0.247 N 
ATOM      3  N   UNL     1      33.518 -14.573 -25.674  0.00  0.00    -0.170 NA
ATOM      4  C   UNL     1      32.765 -13.224 -23.431  0.00  0.00    +0.148 C 
ATOM      5  C   UNL     1      32.685 -12.567 -24.637  0.00  0.00    +0.052 C 
ATOM      6  C   UNL     1      33.549 -15.101 -24.435  0.00  0.00    +0.148 C 
ATOM      7  C   UNL     1      33.079 -13.300 -25.738  0.00  0.00    +0.114 C 
ATOM      8  H   UNL     1      34.252 -16.837 -25.191  0.00  0.00    +0.165 HD
ENDROOT
BRANCH   4  11
ATOM      9  N   UNL     1      31.941 -11.281 -22.101  0.00  0.00    -0.251 N 
ATOM     10  N   UNL     1      31.935 -12.108 -20.024  0.00  0.00    -0.393 NA
ATOM     11  C   UNL     1      32.384 -12.575 -22.197  0.00  0.00    +0.181 C 
ATOM     12  C   UNL     1      31.681 -11.042 -20.755  0.00  0.00    +0.187 C 
ATOM     13  C   UNL     1      32.370 -13.060 -20.911  0.00  0.00    +0.114 C 
ATOM     14  C   UNL     1      31.760 -10.330 -23.102  0.00  0.00    +0.068 C 
ATOM     15  C   UNL     1      31.204  -9.743 -20.408  0.00  0.00    +0.048 C 
ATOM     16  C   UNL     1      32.750 -14.398 -20.428  0.00  0.00    +0.064 C 
ATOM     17  C   UNL     1      31.311  -9.109 -22.767  0.00  0.00    +0.016 C 
ATOM     18  C   UNL     1      31.026  -8.819 -21.371  0.00  0.00    +0.005 C 
ENDBRANCH   4  11
BRANCH   2  20
ATOM     19  C   UNL     1      34.497 -19.012 -21.050  0.00  0.00    +0.139 C 
ATOM     20  C   UNL     1      34.168 -17.298 -23.230  0.00  0.00    +0.058 C 
ATOM     21  C   UNL     1      33.761 -19.428 -22.159  0.00  0.00    +0.038 C 
ATOM     22  C   UNL     1      35.068 -17.740 -21.029  0.00  0.00    +0.038 C 
ATOM     23  C   UNL     1      33.597 -18.572 -23.249  0.00  0.00    +0.018 C 
ATOM     24  C   UNL     1      34.904 -16.883 -22.117  0.00  0.00    +0.018 C 
BRANCH  19  25
ATOM     25  O   UNL     1      34.657 -19.848 -19.987  0.00  0.00    -0.473 OA
BRANCH  25  26
ATOM     26  C   UNL     1      35.955 -20.408 -19.792  0.00  0.00    +0.232 C 
BRANCH  26  27
ATOM     27  C   UNL     1      35.989 -21.113 -18.438  0.00  0.00    +0.133 C 
BRANCH  27  28
ATOM     28  O   UNL     1      36.687 -20.282 -17.506  0.00  0.00    -0.383 OA
ATOM     29  H   UNL     1      36.817 -20.766 -16.676  0.00  0.00    +0.210 HD
ENDBRANCH  27  28
BRANCH  27  30
ATOM     30  C   UNL     1      34.598 -21.401 -17.870  0.00  0.00    -0.044 C 
BRANCH  30  31
ATOM     31  N   UNL     1      34.595 -22.563 -16.991  0.00  0.00    +0.386 N 
ATOM     32  C   UNL     1      35.165 -22.224 -15.686  0.00  0.00    -0.101 C 
ATOM     33  C   UNL     1      33.236 -23.086 -16.831  0.00  0.00    -0.101 C 
ATOM     34  H   UNL     1      35.173 -23.285 -17.420  0.00  0.00    -0.080 HD
ENDBRANCH  30  31
ENDBRANCH  27  30
ENDBRANCH  26  27
ENDBRANCH  25  26
ENDBRANCH  19  25
ENDBRANCH   2  20
TORSDOF 8
ENDMDL
MODEL 5
REMARK VINA RESULT:     -10.9      1.957      4.301
REMARK  Name = 447653
REMARK  8 active torsions:
REMARK  status: ('A' for Active; 'I' for Inactive)
REMARK    1  A    between atoms: N_2  and  C_20
REMARK    2  A    between atoms: C_4  and  C_11
REMARK    3  A    between atoms: C_19  and  O_25
REMARK    4  A    between atoms: O_25  and  C_26
REMARK    5  A    between atoms: C_26  and  C_27
REMARK    6  A    between atoms: C_27  and  O_28
REMARK    7  A    between atoms: C_27  and  C_30
REMARK    8  A    between atoms: C_30  and  N_31
REMARK                            x       y       z     vdW  Elec       q    Type
REMARK                         _______ _______ _______ _____ _____    ______ ____
ROOT
ATOM      1  N   UNL     1      34.589 -21.739 -17.330  0.00  0.00    -0.340 NA
ATOM      2  N   UNL     1      36.398 -20.787 -18.480  0.00  0.00    -0.247 N 
ATOM      3  N   UNL     1      36.844 -21.994 -16.518  0.00  0.00    -0.170 NA
ATOM      4  C   UNL     1      34.172 -22.466 -16.275  0.00  0.00    +0.148 C 
ATOM      5  C   UNL     1      35.010 -22.984 -15.314  0.00  0.00    +0.052 C 
ATOM      6  C   UNL     1      35.921 -21.544 -17.389  0.00  0.00    +0.148 C 
ATOM      7  C   UNL     1      36.352 -22.713 -15.488  0.00  0.00    +0.114 C 
ATOM      8  H   UNL     1      37.376 -20.670 -18.483  0.00  0.00    +0.165 HD
ENDROOT
BRANCH   4  11
ATOM      9  N   UNL     1      32.098 -23.375 -15.230  0.00  0.00    -0.251 N 
ATOM     10  N   UNL     1      30.516 -22.666 -16.642  0.00  0.00    -0.393 NA
ATOM     11  C   UNL     1      32.744 -22.673 -16.215  0.00  0.00    +0.181 C 
ATOM     12  C   UNL     1      30.740 -23.343 -15.535  0.00  0.00    +0.187 C 
ATOM     13  C   UNL     1      31.752 -22.249 -17.067  0.00  0.00    +0.114 C 
ATOM     14  C   UNL     1      32.622 -24.022 -14.114  0.00  0.00    +0.068 C 
ATOM     15  C   UNL     1      29.859 -24.017 -14.638  0.00  0.00    +0.048 C 
ATOM     16  C   UNL     1      31.877 -21.452 -18.299  0.00  0.00    +0.064 C 
ATOM     17  C   UNL     1      31.786 -24.655 -13.275  0.00  0.00    +0.016 C 
ATOM     18  C   UNL     1      30.360 -24.645 -13.557  0.00  0.00    +0.005 C 
ENDBRANCH   4  11
BRANCH   2  20
ATOM     19  C   UNL     1      34.471 -18.935 -21.720  0.00  0.00    +0.139 C 
ATOM     20  C   UNL     1      35.752 -20.166 -19.566  0.00  0.00    +0.058 C 
ATOM     21  C   UNL     1      33.821 -19.940 -21.003  0.00  0.00    +0.038 C 
ATOM     22  C   UNL     1      35.762 -18.547 -21.362  0.00  0.00    +0.038 C 
ATOM     23  C   UNL     1      34.461 -20.554 -19.927  0.00  0.00    +0.018 C 
ATOM     24  C   UNL     1      36.402 -19.162 -20.286  0.00  0.00    +0.018 C 
BRANCH  19  25
ATOM     25  O   UNL     1      33.846 -18.336 -22.771  0.00  0.00    -0.473 OA
BRANCH  25  26
ATOM     26  C   UNL     1      34.118 -16.951 -22.983  0.00  0.00    +0.232 C 
BRANCH  26  27
ATOM     27  C   UNL     1      33.880 -16.622 -24.454  0.00  0.00    +0.133 C 
BRANCH  27  28
ATOM     28  O   UNL     1      32.531 -16.959 -24.788  0.00  0.00    -0.383 OA
ATOM     29  H   UNL     1      32.181 -16.310 -25.418  0.00  0.00    +0.210 HD
ENDBRANCH  27  28
BRANCH  27  30
ATOM     30  C   UNL     1      34.099 -15.144 -24.787  0.00  0.00    -0.044 C 
BRANCH  30  31
ATOM     31  N   UNL     1      32.916 -14.339 -24.511  0.00  0.00    +0.386 N 
ATOM     32  C   UNL     1      33.061 -13.628 -23.239  0.00  0.00    -0.101 C 
ATOM     33  C   UNL     1      32.673 -13.389 -25.598  0.00  0.00    -0.101 C 
ATOM     34  H   UNL     1      32.116 -14.967 -24.443  0.00  0.00    -0.080 HD
ENDBRANCH  30  31
ENDBRANCH  27  30
ENDBRANCH  26  27
ENDBRANCH  25  26
ENDBRANCH  19  25
ENDBRANCH   2  20
TORSDOF 8
ENDMDL
MODEL 6
REMARK VINA RESULT:     -10.5      1.615      2.481
REMARK  Name = 447653
REMARK  8 active torsions:
REMARK  status: ('A' for Active; 'I' for Inactive)
REMARK    1  A    between atoms: N_2  and  C_20
REMARK    2  A    between atoms: C_4  and  C_11
REMARK    3  A    between atoms: C_19  and  O_25
REMARK    4  A    between atoms: O_25  and  C_26
REMARK    5  A    between atoms: C_26  and  C_27
REMARK    6  A    between atoms: C_27  and  O_28
REMARK    7  A    between atoms: C_27  and  C_30
REMARK    8  A    between atoms: C_30  and  N_31
REMARK                            x       y       z     vdW  Elec       q    Type
REMARK                         _______ _______ _______ _____ _____    ______ ____
ROOT
ATOM      1  N   UNL     1      32.865 -22.516 -16.136  0.00  0.00    -0.340 NA
ATOM      2  N   UNL     1      31.516 -21.821 -17.926  0.00  0.00    -0.247 N 
ATOM      3  N   UNL     1      30.479 -22.856 -16.092  0.00  0.00    -0.170 NA
ATOM      4  C   UNL     1      32.927 -23.100 -14.924  0.00  0.00    +0.148 C 
ATOM      5  C   UNL     1      31.834 -23.581 -14.240  0.00  0.00    +0.052 C 
ATOM      6  C   UNL     1      31.625 -22.427 -16.656  0.00  0.00    +0.148 C 
ATOM      7  C   UNL     1      30.621 -23.430 -14.881  0.00  0.00    +0.114 C 
ATOM      8  H   UNL     1      30.593 -21.777 -18.265  0.00  0.00    +0.165 HD
ENDROOT
BRANCH   4  11
ATOM      9  N   UNL     1      35.400 -22.789 -15.012  0.00  0.00    -0.251 N 
ATOM     10  N   UNL     1      36.041 -23.580 -13.021  0.00  0.00    -0.393 NA
ATOM     11  C   UNL     1      34.258 -23.193 -14.370  0.00  0.00    +0.181 C 
ATOM     12  C   UNL     1      36.462 -23.046 -14.149  0.00  0.00    +0.187 C 
ATOM     13  C   UNL     1      34.678 -23.674 -13.152  0.00  0.00    +0.114 C 
ATOM     14  C   UNL     1      35.554 -22.224 -16.276  0.00  0.00    +0.068 C 
ATOM     15  C   UNL     1      37.768 -22.703 -14.609  0.00  0.00    +0.048 C 
ATOM     16  C   UNL     1      33.870 -24.237 -12.058  0.00  0.00    +0.064 C 
ATOM     17  C   UNL     1      36.787 -21.904 -16.702  0.00  0.00    +0.016 C 
ATOM     18  C   UNL     1      37.923 -22.157 -15.830  0.00  0.00    +0.005 C 
ENDBRANCH   4  11
BRANCH   2  20
ATOM     19  C   UNL     1      34.355 -20.160 -20.538  0.00  0.00    +0.139 C 
ATOM     20  C   UNL     1      32.468 -21.265 -18.801  0.00  0.00    +0.058 C 
ATOM     21  C   UNL     1      34.735 -21.151 -19.633  0.00  0.00    +0.038 C 
ATOM     22  C   UNL     1      33.032 -19.721 -20.575  0.00  0.00    +0.038 C 
ATOM     23  C   UNL     1      33.793 -21.703 -18.765  0.00  0.00    +0.018 C 
ATOM     24  C   UNL     1      32.089 -20.272 -19.707  0.00  0.00    +0.018 C 
BRANCH  19  25
ATOM     25  O   UNL     1      35.276 -19.622 -21.384  0.00  0.00    -0.473 OA
BRANCH  25  26
ATOM     26  C   UNL     1      35.627 -18.255 -21.176  0.00  0.00    +0.232 C 
BRANCH  26  27
ATOM     27  C   UNL     1      35.278 -17.460 -22.432  0.00  0.00    +0.133 C 
BRANCH  27  28
ATOM     28  O   UNL     1      34.490 -18.286 -23.294  0.00  0.00    -0.383 OA
ATOM     29  H   UNL     1      35.034 -18.591 -24.036  0.00  0.00    +0.210 HD
ENDBRANCH  27  28
BRANCH  27  30
ATOM     30  C   UNL     1      34.486 -16.183 -22.140  0.00  0.00    -0.044 C 
BRANCH  30  31
ATOM     31  N   UNL     1      34.654 -15.183 -23.186  0.00  0.00    +0.386 N 
ATOM     32  C   UNL     1      34.159 -15.688 -24.468  0.00  0.00    -0.101 C 
ATOM     33  C   UNL     1      33.964 -13.942 -22.829  0.00  0.00    -0.101 C 
ATOM     34  H   UNL     1      35.650 -14.987 -23.278  0.00  0.00    -0.080 HD
ENDBRANCH  30  31
ENDBRANCH  27  30
ENDBRANCH  26  27
ENDBRANCH  25  26
ENDBRANCH  19  25
ENDBRANCH   2  20
TORSDOF 8
ENDMDL
MODEL 7
REMARK VINA RESULT:     -10.4      1.784      2.380
REMARK  Name = 447653
REMARK  8 active torsions:
REMARK  status: ('A' for Active; 'I' for Inactive)
REMARK    1  A    between atoms: N_2  and  C_20
REMARK    2  A    between atoms: C_4  and  C_11
REMARK    3  A    between atoms: C_19  and  O_25
REMARK    4  A    between atoms: O_25  and  C_26
REMARK    5  A    between atoms: C_26  and  C_27
REMARK    6  A    between atoms: C_27  and  O_28
REMARK    7  A    between atoms: C_27  and  C_30
REMARK    8  A    between atoms: C_30  and  N_31
REMARK                            x       y       z     vdW  Elec       q    Type
REMARK                         _______ _______ _______ _____ _____    ______ ____
ROOT
ATOM      1  N   UNL     1      33.206 -23.472 -14.941  0.00  0.00    -0.340 NA
ATOM      2  N   UNL     1      31.812 -22.700 -16.664  0.00  0.00    -0.247 N 
ATOM      3  N   UNL     1      30.822 -23.813 -14.851  0.00  0.00    -0.170 NA
ATOM      4  C   UNL     1      33.299 -24.108 -13.758  0.00  0.00    +0.148 C 
ATOM      5  C   UNL     1      32.223 -24.618 -13.067  0.00  0.00    +0.052 C 
ATOM      6  C   UNL     1      31.953 -23.361 -15.424  0.00  0.00    +0.148 C 
ATOM      7  C   UNL     1      30.994 -24.439 -13.669  0.00  0.00    +0.114 C 
ATOM      8  H   UNL     1      30.880 -22.642 -16.977  0.00  0.00    +0.165 HD
ENDROOT
BRANCH   4  11
ATOM      9  N   UNL     1      35.632 -24.990 -13.809  0.00  0.00    -0.251 N 
ATOM     10  N   UNL     1      36.535 -24.019 -12.008  0.00  0.00    -0.393 NA
ATOM     11  C   UNL     1      34.644 -24.225 -13.243  0.00  0.00    +0.181 C 
ATOM     12  C   UNL     1      36.767 -24.832 -13.018  0.00  0.00    +0.187 C 
ATOM     13  C   UNL     1      35.223 -23.640 -12.142  0.00  0.00    +0.114 C 
ATOM     14  C   UNL     1      35.589 -25.793 -14.945  0.00  0.00    +0.068 C 
ATOM     15  C   UNL     1      37.937 -25.544 -13.417  0.00  0.00    +0.048 C 
ATOM     16  C   UNL     1      34.620 -22.718 -11.166  0.00  0.00    +0.064 C 
ATOM     17  C   UNL     1      36.695 -26.460 -15.314  0.00  0.00    +0.016 C 
ATOM     18  C   UNL     1      37.903 -26.322 -14.515  0.00  0.00    +0.005 C 
ENDBRANCH   4  11
BRANCH   2  20
ATOM     19  C   UNL     1      34.583 -20.929 -19.276  0.00  0.00    +0.139 C 
ATOM     20  C   UNL     1      32.741 -22.107 -17.539  0.00  0.00    +0.058 C 
ATOM     21  C   UNL     1      35.030 -21.683 -18.191  0.00  0.00    +0.038 C 
ATOM     22  C   UNL     1      33.216 -20.762 -19.492  0.00  0.00    +0.038 C 
ATOM     23  C   UNL     1      34.110 -22.272 -17.324  0.00  0.00    +0.018 C 
ATOM     24  C   UNL     1      32.295 -21.350 -18.625  0.00  0.00    +0.018 C 
BRANCH  19  25
ATOM     25  O   UNL     1      35.482 -20.355 -20.122  0.00  0.00    -0.473 OA
BRANCH  25  26
ATOM     26  C   UNL     1      34.956 -19.650 -21.246  0.00  0.00    +0.232 C 
BRANCH  26  27
ATOM     27  C   UNL     1      35.340 -18.178 -21.128  0.00  0.00    +0.133 C 
BRANCH  27  28
ATOM     28  O   UNL     1      36.662 -18.089 -20.590  0.00  0.00    -0.383 OA
ATOM     29  H   UNL     1      37.015 -17.200 -20.743  0.00  0.00    +0.210 HD
ENDBRANCH  27  28
BRANCH  27  30
ATOM     30  C   UNL     1      35.320 -17.438 -22.468  0.00  0.00    -0.044 C 
BRANCH  30  31
ATOM     31  N   UNL     1      34.278 -16.421 -22.517  0.00  0.00    +0.386 N 
ATOM     32  C   UNL     1      34.330 -15.571 -21.326  0.00  0.00    -0.101 C 
ATOM     33  C   UNL     1      34.408 -15.606 -23.727  0.00  0.00    -0.101 C 
ATOM     34  H   UNL     1      33.375 -16.895 -22.539  0.00  0.00    -0.080 HD
ENDBRANCH  30  31
ENDBRANCH  27  30
ENDBRANCH  26  27
ENDBRANCH  25  26
ENDBRANCH  19  25
ENDBRANCH   2  20
TORSDOF 8
ENDMDL
MODEL 8
REMARK VINA RESULT:     -10.0      7.061     11.430
REMARK  Name = 447653
REMARK  8 active torsions:
REMARK  status: ('A' for Active; 'I' for Inactive)
REMARK    1  A    between atoms: N_2  and  C_20
REMARK    2  A    between atoms: C_4  and  C_11
REMARK    3  A    between atoms: C_19  and  O_25
REMARK    4  A    between atoms: O_25  and  C_26
REMARK    5  A    between atoms: C_26  and  C_27
REMARK    6  A    between atoms: C_27  and  O_28
REMARK    7  A    between atoms: C_27  and  C_30
REMARK    8  A    between atoms: C_30  and  N_31
REMARK                            x       y       z     vdW  Elec       q    Type
REMARK                         _______ _______ _______ _____ _____    ______ ____
ROOT
ATOM      1  N   UNL     1      33.032 -13.256 -23.358  0.00  0.00    -0.340 NA
ATOM      2  N   UNL     1      32.189 -11.246 -24.227  0.00  0.00    -0.247 N 
ATOM      3  N   UNL     1      32.650 -12.994 -25.723  0.00  0.00    -0.170 NA
ATOM      4  C   UNL     1      33.462 -14.508 -23.610  0.00  0.00    +0.148 C 
ATOM      5  C   UNL     1      33.516 -15.069 -24.865  0.00  0.00    +0.052 C 
ATOM      6  C   UNL     1      32.646 -12.563 -24.447  0.00  0.00    +0.148 C 
ATOM      7  C   UNL     1      33.093 -14.256 -25.896  0.00  0.00    +0.114 C 
ATOM      8  H   UNL     1      31.917 -10.779 -25.050  0.00  0.00    +0.165 HD
ENDROOT
BRANCH   4  11
ATOM      9  N   UNL     1      34.215 -16.576 -22.436  0.00  0.00    -0.251 N 
ATOM     10  N   UNL     1      34.437 -15.860 -20.329  0.00  0.00    -0.393 NA
ATOM     11  C   UNL     1      33.875 -15.247 -22.439  0.00  0.00    +0.181 C 
ATOM     12  C   UNL     1      34.550 -16.903 -21.125  0.00  0.00    +0.187 C 
ATOM     13  C   UNL     1      34.019 -14.832 -21.136  0.00  0.00    +0.114 C 
ATOM     14  C   UNL     1      34.246 -17.485 -23.489  0.00  0.00    +0.068 C 
ATOM     15  C   UNL     1      34.942 -18.252 -20.875  0.00  0.00    +0.048 C 
ATOM     16  C   UNL     1      33.787 -13.495 -20.566  0.00  0.00    +0.064 C 
ATOM     17  C   UNL     1      34.616 -18.753 -23.246  0.00  0.00    +0.016 C 
ATOM     18  C   UNL     1      34.973 -19.137 -21.889  0.00  0.00    +0.005 C 
ENDBRANCH   4  11
BRANCH   2  20
ATOM     19  C   UNL     1      31.758  -8.927 -20.752  0.00  0.00    +0.139 C 
ATOM     20  C   UNL     1      32.045 -10.470 -23.062  0.00  0.00    +0.058 C 
ATOM     21  C   UNL     1      31.278 -10.237 -20.780  0.00  0.00    +0.038 C 
ATOM     22  C   UNL     1      32.380  -8.388 -21.877  0.00  0.00    +0.038 C 
ATOM     23  C   UNL     1      31.422 -11.008 -21.934  0.00  0.00    +0.018 C 
ATOM     24  C   UNL     1      32.523  -9.158 -23.031  0.00  0.00    +0.018 C 
BRANCH  19  25
ATOM     25  O   UNL     1      31.618  -8.176 -19.625  0.00  0.00    -0.473 OA
BRANCH  25  26
ATOM     26  C   UNL     1      30.863  -6.971 -19.739  0.00  0.00    +0.232 C 
BRANCH  26  27
ATOM     27  C   UNL     1      31.818  -5.782 -19.654  0.00  0.00    +0.133 C 
BRANCH  27  28
ATOM     28  O   UNL     1      33.100  -6.253 -19.230  0.00  0.00    -0.383 OA
ATOM     29  H   UNL     1      33.497  -6.788 -19.934  0.00  0.00    +0.210 HD
ENDBRANCH  27  28
BRANCH  27  30
ATOM     30  C   UNL     1      31.995  -5.051 -20.987  0.00  0.00    -0.044 C 
BRANCH  30  31
ATOM     31  N   UNL     1      30.770  -5.044 -21.775  0.00  0.00    +0.386 N 
ATOM     32  C   UNL     1      30.088  -3.753 -21.657  0.00  0.00    -0.101 C 
ATOM     33  C   UNL     1      31.057  -5.338 -23.180  0.00  0.00    -0.101 C 
ATOM     34  H   UNL     1      30.154  -5.770 -21.409  0.00  0.00    -0.080 HD
ENDBRANCH  30  31
ENDBRANCH  27  30
ENDBRANCH  26  27
ENDBRANCH  25  26
ENDBRANCH  19  25
ENDBRANCH   2  20
TORSDOF 8
ENDMDL
MODEL 9
REMARK VINA RESULT:     -10.0      7.136     16.009
REMARK  Name = 447653
REMARK  8 active torsions:
REMARK  status: ('A' for Active; 'I' for Inactive)
REMARK    1  A    between atoms: N_2  and  C_20
REMARK    2  A    between atoms: C_4  and  C_11
REMARK    3  A    between atoms: C_19  and  O_25
REMARK    4  A    between atoms: O_25  and  C_26
REMARK    5  A    between atoms: C_26  and  C_27
REMARK    6  A    between atoms: C_27  and  O_28
REMARK    7  A    between atoms: C_27  and  C_30
REMARK    8  A    between atoms: C_30  and  N_31
REMARK                            x       y       z     vdW  Elec       q    Type
REMARK                         _______ _______ _______ _____ _____    ______ ____
ROOT
ATOM      1  N   UNL     1      32.058  -7.181 -22.103  0.00  0.00    -0.340 NA
ATOM      2  N   UNL     1      31.326  -8.726 -20.497  0.00  0.00    -0.247 N 
ATOM      3  N   UNL     1      31.081  -6.440 -20.029  0.00  0.00    -0.170 NA
ATOM      4  C   UNL     1      32.203  -5.887 -22.447  0.00  0.00    +0.148 C 
ATOM      5  C   UNL     1      31.821  -4.828 -21.655  0.00  0.00    +0.052 C 
ATOM      6  C   UNL     1      31.496  -7.383 -20.895  0.00  0.00    +0.148 C 
ATOM      7  C   UNL     1      31.260  -5.169 -20.442  0.00  0.00    +0.114 C 
ATOM      8  H   UNL     1      30.912  -8.826 -19.609  0.00  0.00    +0.165 HD
ENDROOT
BRANCH   4  11
ATOM      9  N   UNL     1      32.424  -4.700 -24.631  0.00  0.00    -0.251 N 
ATOM     10  N   UNL     1      34.101  -5.818 -25.600  0.00  0.00    -0.393 NA
ATOM     11  C   UNL     1      32.806  -5.674 -23.743  0.00  0.00    +0.181 C 
ATOM     12  C   UNL     1      33.244  -4.830 -25.749  0.00  0.00    +0.187 C 
ATOM     13  C   UNL     1      33.835  -6.344 -24.361  0.00  0.00    +0.114 C 
ATOM     14  C   UNL     1      31.426  -3.737 -24.514  0.00  0.00    +0.068 C 
ATOM     15  C   UNL     1      33.027  -3.912 -26.819  0.00  0.00    +0.048 C 
ATOM     16  C   UNL     1      34.620  -7.485 -23.861  0.00  0.00    +0.064 C 
ATOM     17  C   UNL     1      31.229  -2.876 -25.525  0.00  0.00    +0.016 C 
ATOM     18  C   UNL     1      32.064  -2.977 -26.712  0.00  0.00    +0.005 C 
ENDBRANCH   4  11
BRANCH   2  20
ATOM     19  C   UNL     1      32.234 -12.383 -22.353  0.00  0.00    +0.139 C 
ATOM     20  C   UNL     1      31.631  -9.951 -21.119  0.00  0.00    +0.058 C 
ATOM     21  C   UNL     1      32.316 -11.193 -23.078  0.00  0.00    +0.038 C 
ATOM     22  C   UNL     1      31.850 -12.357 -21.013  0.00  0.00    +0.038 C 
ATOM     23  C   UNL     1      32.015  -9.978 -22.461  0.00  0.00    +0.018 C 
ATOM     24  C   UNL     1      31.548 -11.143 -20.396  0.00  0.00    +0.018 C 
BRANCH  19  25
ATOM     25  O   UNL     1      32.528 -13.568 -22.956  0.00  0.00    -0.473 OA
BRANCH  25  26
ATOM     26  C   UNL     1      33.895 -13.977 -22.949  0.00  0.00    +0.232 C 
BRANCH  26  27
ATOM     27  C   UNL     1      33.962 -15.473 -23.246  0.00  0.00    +0.133 C 
BRANCH  27  28
ATOM     28  O   UNL     1      34.723 -15.670 -24.440  0.00  0.00    -0.383 OA
ATOM     29  H   UNL     1      34.336 -16.394 -24.956  0.00  0.00    +0.210 HD
ENDBRANCH  27  28
BRANCH  27  30
ATOM     30  C   UNL     1      34.617 -16.284 -22.124  0.00  0.00    -0.044 C 
BRANCH  30  31
ATOM     31  N   UNL     1      35.242 -17.501 -22.622  0.00  0.00    +0.386 N 
ATOM     32  C   UNL     1      36.285 -17.960 -21.701  0.00  0.00    -0.101 C 
ATOM     33  C   UNL     1      34.242 -18.553 -22.818  0.00  0.00    -0.101 C 
ATOM     34  H   UNL     1      35.674 -17.291 -23.521  0.00  0.00    -0.080 HD
ENDBRANCH  30  31
ENDBRANCH  27  30
ENDBRANCH  26  27
ENDBRANCH  25  26
ENDBRANCH  19  25
ENDBRANCH   2  20
TORSDOF 8
ENDMDL
