MODEL 1
REMARK VINA RESULT:     -11.0      0.000      0.000
REMARK  Name = 5281417
REMARK  8 active torsions:
REMARK  status: ('A' for Active; 'I' for Inactive)
REMARK    1  A    between atoms: C_2  and  O_7
REMARK    2  A    between atoms: C_3  and  O_9
REMARK    3  A    between atoms: C_4  and  O_11
REMARK    4  A    between atoms: C_5  and  C_27
REMARK    5  A    between atoms: C_6  and  O_13
REMARK    6  A    between atoms: O_13  and  C_16
REMARK    7  A    between atoms: C_18  and  O_25
REMARK    8  A    between atoms: C_27  and  O_28
REMARK                            x       y       z     vdW  Elec       q    Type
REMARK                         _______ _______ _______ _____ _____    ______ ____
ROOT
ATOM      1  O   UNL     1      35.649 -22.746 -16.232  0.00  0.00    -0.316 OA
ATOM      2  C   UNL     1      33.369 -23.004 -14.504  0.00  0.00    +0.173 C 
ATOM      3  C   UNL     1      34.796 -23.273 -14.024  0.00  0.00    +0.169 C 
ATOM      4  C   UNL     1      33.262 -23.137 -16.024  0.00  0.00    +0.210 C 
ATOM      5  C   UNL     1      35.805 -22.461 -14.840  0.00  0.00    +0.177 C 
ATOM      6  C   UNL     1      34.372 -22.358 -16.730  0.00  0.00    +0.318 C 
ENDROOT
BRANCH   2   7
ATOM      7  O   UNL     1      32.507 -23.956 -13.881  0.00  0.00    -0.379 OA
ATOM      8  H   UNL     1      32.984 -24.791 -13.755  0.00  0.00    +0.211 HD
ENDBRANCH   2   7
BRANCH   3   9
ATOM      9  O   UNL     1      34.906 -22.916 -12.649  0.00  0.00    -0.379 OA
ATOM     10  H   UNL     1      34.693 -23.685 -12.098  0.00  0.00    +0.211 HD
ENDBRANCH   3   9
BRANCH   4  11
ATOM     11  O   UNL     1      32.005 -22.616 -16.456  0.00  0.00    -0.377 OA
ATOM     12  H   UNL     1      31.287 -23.156 -16.089  0.00  0.00    +0.211 HD
ENDBRANCH   4  11
BRANCH   6  13
ATOM     13  O   UNL     1      34.291 -22.646 -18.125  0.00  0.00    -0.447 OA
BRANCH  13  16
ATOM     14  O   UNL     1      33.966 -18.298 -21.543  0.00  0.00    -0.421 OA
ATOM     15  O   UNL     1      35.006 -16.660 -22.761  0.00  0.00    -0.244 OA
ATOM     16  C   UNL     1      34.210 -21.572 -18.968  0.00  0.00    +0.175 C 
ATOM     17  C   UNL     1      35.386 -20.947 -19.386  0.00  0.00    +0.043 C 
ATOM     18  C   UNL     1      32.968 -21.113 -19.403  0.00  0.00    +0.171 C 
ATOM     19  C   UNL     1      35.322 -19.850 -20.248  0.00  0.00    +0.038 C 
ATOM     20  C   UNL     1      34.074 -19.402 -20.674  0.00  0.00    +0.152 C 
ATOM     21  C   UNL     1      32.894 -20.019 -20.262  0.00  0.00    +0.077 C 
ATOM     22  C   UNL     1      36.511 -19.159 -20.715  0.00  0.00    +0.010 C 
ATOM     23  C   UNL     1      36.401 -18.114 -21.539  0.00  0.00    +0.082 C 
ATOM     24  C   UNL     1      35.090 -17.621 -22.003  0.00  0.00    +0.346 C 
BRANCH  18  25
ATOM     25  O   UNL     1      31.821 -21.725 -18.996  0.00  0.00    -0.503 OA
ATOM     26  H   UNL     1      30.989 -21.376 -19.247  0.00  0.00    +0.292 HD
ENDBRANCH  18  25
ENDBRANCH  13  16
ENDBRANCH   6  13
BRANCH   5  27
ATOM     27  C   UNL     1      37.243 -22.800 -14.459  0.00  0.00    +0.169 C 
BRANCH  27  28
ATOM     28  O   UNL     1      38.040 -22.765 -15.628  0.00  0.00    -0.379 OA
ATOM     29  H   UNL     1      38.258 -23.671 -15.897  0.00  0.00    +0.211 HD
ENDBRANCH  27  28
ENDBRANCH   5  27
TORSDOF 8
ENDMDL
MODEL 2
REMARK VINA RESULT:     -10.9      2.700      8.778
REMARK  Name = 5281417
REMARK  8 active torsions:
REMARK  status: ('A' for Active; 'I' for Inactive)
REMARK    1  A    between atoms: C_2  and  O_7
REMARK    2  A    between atoms: C_3  and  O_9
REMARK    3  A    between atoms: C_4  and  O_11
REMARK    4  A    between atoms: C_5  and  C_27
REMARK    5  A    between atoms: C_6  and  O_13
REMARK    6  A    between atoms: O_13  and  C_16
REMARK    7  A    between atoms: C_18  and  O_25
REMARK    8  A    between atoms: C_27  and  O_28
REMARK                            x       y       z     vdW  Elec       q    Type
REMARK                         _______ _______ _______ _____ _____    ______ ____
ROOT
ATOM      1  O   UNL     1      34.085 -15.974 -21.722  0.00  0.00    -0.316 OA
ATOM      2  C   UNL     1      33.552 -14.099 -23.831  0.00  0.00    +0.173 C 
ATOM      3  C   UNL     1      33.041 -13.895 -22.404  0.00  0.00    +0.169 C 
ATOM      4  C   UNL     1      33.854 -15.572 -24.105  0.00  0.00    +0.210 C 
ATOM      5  C   UNL     1      33.959 -14.589 -21.395  0.00  0.00    +0.177 C 
ATOM      6  C   UNL     1      34.701 -16.183 -22.989  0.00  0.00    +0.318 C 
ENDROOT
BRANCH   2   7
ATOM      7  O   UNL     1      32.540 -13.645 -24.731  0.00  0.00    -0.379 OA
ATOM      8  H   UNL     1      31.738 -14.178 -24.611  0.00  0.00    +0.211 HD
ENDBRANCH   2   7
BRANCH   3   9
ATOM      9  O   UNL     1      32.993 -12.499 -22.115  0.00  0.00    -0.379 OA
ATOM     10  H   UNL     1      32.853 -12.005 -22.937  0.00  0.00    +0.211 HD
ENDBRANCH   3   9
BRANCH   4  11
ATOM     11  O   UNL     1      34.577 -15.687 -25.331  0.00  0.00    -0.377 OA
ATOM     12  H   UNL     1      35.454 -15.284 -25.228  0.00  0.00    +0.211 HD
ENDBRANCH   4  11
BRANCH   6  13
ATOM     13  O   UNL     1      34.818 -17.582 -23.243  0.00  0.00    -0.447 OA
BRANCH  13  16
ATOM     14  O   UNL     1      35.361 -20.873 -18.819  0.00  0.00    -0.421 OA
ATOM     15  O   UNL     1      34.424 -22.294 -17.287  0.00  0.00    -0.244 OA
ATOM     16  C   UNL     1      34.953 -18.394 -22.150  0.00  0.00    +0.175 C 
ATOM     17  C   UNL     1      33.829 -19.058 -21.655  0.00  0.00    +0.043 C 
ATOM     18  C   UNL     1      36.198 -18.554 -21.544  0.00  0.00    +0.171 C 
ATOM     19  C   UNL     1      33.949 -19.891 -20.541  0.00  0.00    +0.038 C 
ATOM     20  C   UNL     1      35.199 -20.041 -19.945  0.00  0.00    +0.152 C 
ATOM     21  C   UNL     1      36.327 -19.383 -20.432  0.00  0.00    +0.077 C 
ATOM     22  C   UNL     1      32.815 -20.607 -19.981  0.00  0.00    +0.010 C 
ATOM     23  C   UNL     1      32.977 -21.392 -18.914  0.00  0.00    +0.082 C 
ATOM     24  C   UNL     1      34.291 -21.567 -18.265  0.00  0.00    +0.346 C 
BRANCH  18  25
ATOM     25  O   UNL     1      37.294 -17.908 -22.029  0.00  0.00    -0.503 OA
ATOM     26  H   UNL     1      37.896 -17.498 -21.439  0.00  0.00    +0.292 HD
ENDBRANCH  18  25
ENDBRANCH  13  16
ENDBRANCH   6  13
BRANCH   5  27
ATOM     27  C   UNL     1      33.408 -14.499 -19.975  0.00  0.00    +0.169 C 
BRANCH  27  28
ATOM     28  O   UNL     1      32.087 -13.992 -20.036  0.00  0.00    -0.379 OA
ATOM     29  H   UNL     1      31.514 -14.638 -20.475  0.00  0.00    +0.211 HD
ENDBRANCH  27  28
ENDBRANCH   5  27
TORSDOF 8
ENDMDL
MODEL 3
REMARK VINA RESULT:     -10.9      3.679      5.890
REMARK  Name = 5281417
REMARK  8 active torsions:
REMARK  status: ('A' for Active; 'I' for Inactive)
REMARK    1  A    between atoms: C_2  and  O_7
REMARK    2  A    between atoms: C_3  and  O_9
REMARK    3  A    between atoms: C_4  and  O_11
REMARK    4  A    between atoms: C_5  and  C_27
REMARK    5  A    between atoms: C_6  and  O_13
REMARK    6  A    between atoms: O_13  and  C_16
REMARK    7  A    between atoms: C_18  and  O_25
REMARK    8  A    between atoms: C_27  and  O_28
REMARK                            x       y       z     vdW  Elec       q    Type
REMARK                         _______ _______ _______ _____ _____    ______ ____
ROOT
ATOM      1  O   UNL     1      35.807 -23.358 -13.468  0.00  0.00    -0.316 OA
ATOM      2  C   UNL     1      36.645 -26.099 -13.645  0.00  0.00    +0.173 C 
ATOM      3  C   UNL     1      37.034 -25.197 -12.474  0.00  0.00    +0.169 C 
ATOM      4  C   UNL     1      36.279 -25.276 -14.880  0.00  0.00    +0.210 C 
ATOM      5  C   UNL     1      35.986 -24.101 -12.261  0.00  0.00    +0.177 C 
ATOM      6  C   UNL     1      35.297 -24.157 -14.532  0.00  0.00    +0.318 C 
ENDROOT
BRANCH   2   7
ATOM      7  O   UNL     1      37.760 -26.938 -13.946  0.00  0.00    -0.379 OA
ATOM      8  H   UNL     1      37.498 -27.603 -14.602  0.00  0.00    +0.211 HD
ENDBRANCH   2   7
BRANCH   3   9
ATOM      9  O   UNL     1      37.141 -25.983 -11.289  0.00  0.00    -0.379 OA
ATOM     10  H   UNL     1      36.264 -26.314 -11.042  0.00  0.00    +0.211 HD
ENDBRANCH   3   9
BRANCH   4  11
ATOM     11  O   UNL     1      35.665 -26.125 -15.850  0.00  0.00    -0.377 OA
ATOM     12  H   UNL     1      36.223 -26.905 -15.996  0.00  0.00    +0.211 HD
ENDBRANCH   4  11
BRANCH   6  13
ATOM     13  O   UNL     1      35.118 -23.352 -15.697  0.00  0.00    -0.447 OA
BRANCH  13  16
ATOM     14  O   UNL     1      29.909 -21.972 -16.982  0.00  0.00    -0.421 OA
ATOM     15  O   UNL     1      27.704 -21.805 -16.383  0.00  0.00    -0.244 OA
ATOM     16  C   UNL     1      33.832 -23.012 -16.014  0.00  0.00    +0.175 C 
ATOM     17  C   UNL     1      32.829 -23.184 -15.060  0.00  0.00    +0.043 C 
ATOM     18  C   UNL     1      33.533 -22.499 -17.276  0.00  0.00    +0.171 C 
ATOM     19  C   UNL     1      31.510 -22.841 -15.368  0.00  0.00    +0.038 C 
ATOM     20  C   UNL     1      31.226 -22.331 -16.632  0.00  0.00    +0.152 C 
ATOM     21  C   UNL     1      32.221 -22.155 -17.592  0.00  0.00    +0.077 C 
ATOM     22  C   UNL     1      30.424 -22.998 -14.415  0.00  0.00    +0.010 C 
ATOM     23  C   UNL     1      29.179 -22.658 -14.754  0.00  0.00    +0.082 C 
ATOM     24  C   UNL     1      28.853 -22.115 -16.087  0.00  0.00    +0.346 C 
BRANCH  18  25
ATOM     25  O   UNL     1      34.513 -22.330 -18.207  0.00  0.00    -0.503 OA
ATOM     26  H   UNL     1      34.894 -21.485 -18.337  0.00  0.00    +0.292 HD
ENDBRANCH  18  25
ENDBRANCH  13  16
ENDBRANCH   6  13
BRANCH   5  27
ATOM     27  C   UNL     1      36.410 -23.118 -11.174  0.00  0.00    +0.169 C 
BRANCH  27  28
ATOM     28  O   UNL     1      36.056 -23.659  -9.915  0.00  0.00    -0.379 OA
ATOM     29  H   UNL     1      35.144 -23.408  -9.700  0.00  0.00    +0.211 HD
ENDBRANCH  27  28
ENDBRANCH   5  27
TORSDOF 8
ENDMDL
MODEL 4
REMARK VINA RESULT:     -10.8      2.792      9.088
REMARK  Name = 5281417
REMARK  8 active torsions:
REMARK  status: ('A' for Active; 'I' for Inactive)
REMARK    1  A    between atoms: C_2  and  O_7
REMARK    2  A    between atoms: C_3  and  O_9
REMARK    3  A    between atoms: C_4  and  O_11
REMARK    4  A    between atoms: C_5  and  C_27
REMARK    5  A    between atoms: C_6  and  O_13
REMARK    6  A    between atoms: O_13  and  C_16
REMARK    7  A    between atoms: C_18  and  O_25
REMARK    8  A    between atoms: C_27  and  O_28
REMARK                            x       y       z     vdW  Elec       q    Type
REMARK                         _______ _______ _______ _____ _____    ______ ____
ROOT
ATOM      1  O   UNL     1      34.122 -15.671 -24.150  0.00  0.00    -0.316 OA
ATOM      2  C   UNL     1      33.559 -14.187 -21.757  0.00  0.00    +0.173 C 
ATOM      3  C   UNL     1      33.415 -13.578 -23.152  0.00  0.00    +0.169 C 
ATOM      4  C   UNL     1      34.510 -15.383 -21.771  0.00  0.00    +0.210 C 
ATOM      5  C   UNL     1      33.110 -14.662 -24.189  0.00  0.00    +0.177 C 
ATOM      6  C   UNL     1      34.166 -16.354 -22.901  0.00  0.00    +0.318 C 
ENDROOT
BRANCH   2   7
ATOM      7  O   UNL     1      34.074 -13.179 -20.887  0.00  0.00    -0.379 OA
ATOM      8  H   UNL     1      33.587 -13.195 -20.048  0.00  0.00    +0.211 HD
ENDBRANCH   2   7
BRANCH   3   9
ATOM      9  O   UNL     1      32.355 -12.624 -23.144  0.00  0.00    -0.379 OA
ATOM     10  H   UNL     1      31.861 -12.684 -23.976  0.00  0.00    +0.211 HD
ENDBRANCH   3   9
BRANCH   4  11
ATOM     11  O   UNL     1      34.406 -16.084 -20.531  0.00  0.00    -0.377 OA
ATOM     12  H   UNL     1      35.011 -16.843 -20.537  0.00  0.00    +0.211 HD
ENDBRANCH   4  11
BRANCH   6  13
ATOM     13  O   UNL     1      35.177 -17.361 -22.937  0.00  0.00    -0.447 OA
BRANCH  13  16
ATOM     14  O   UNL     1      35.083 -21.119 -18.868  0.00  0.00    -0.421 OA
ATOM     15  O   UNL     1      33.904 -22.576 -17.551  0.00  0.00    -0.244 OA
ATOM     16  C   UNL     1      35.153 -18.288 -21.931  0.00  0.00    +0.175 C 
ATOM     17  C   UNL     1      33.937 -18.871 -21.574  0.00  0.00    +0.043 C 
ATOM     18  C   UNL     1      36.332 -18.643 -21.277  0.00  0.00    +0.171 C 
ATOM     19  C   UNL     1      33.896 -19.821 -20.550  0.00  0.00    +0.038 C 
ATOM     20  C   UNL     1      35.082 -20.166 -19.905  0.00  0.00    +0.152 C 
ATOM     21  C   UNL     1      36.301 -19.589 -20.255  0.00  0.00    +0.077 C 
ATOM     22  C   UNL     1      32.660 -20.461 -20.134  0.00  0.00    +0.010 C 
ATOM     23  C   UNL     1      32.669 -21.363 -19.150  0.00  0.00    +0.082 C 
ATOM     24  C   UNL     1      33.912 -21.744 -18.452  0.00  0.00    +0.346 C 
BRANCH  18  25
ATOM     25  O   UNL     1      37.519 -18.074 -21.629  0.00  0.00    -0.503 OA
ATOM     26  H   UNL     1      37.538 -17.203 -21.970  0.00  0.00    +0.292 HD
ENDBRANCH  18  25
ENDBRANCH  13  16
ENDBRANCH   6  13
BRANCH   5  27
ATOM     27  C   UNL     1      33.078 -14.096 -25.606  0.00  0.00    +0.169 C 
BRANCH  27  28
ATOM     28  O   UNL     1      31.902 -13.324 -25.756  0.00  0.00    -0.379 OA
ATOM     29  H   UNL     1      31.865 -12.963 -26.655  0.00  0.00    +0.211 HD
ENDBRANCH  27  28
ENDBRANCH   5  27
TORSDOF 8
ENDMDL
MODEL 5
REMARK VINA RESULT:     -10.7      1.844      3.054
REMARK  Name = 5281417
REMARK  8 active torsions:
REMARK  status: ('A' for Active; 'I' for Inactive)
REMARK    1  A    between atoms: C_2  and  O_7
REMARK    2  A    between atoms: C_3  and  O_9
REMARK    3  A    between atoms: C_4  and  O_11
REMARK    4  A    between atoms: C_5  and  C_27
REMARK    5  A    between atoms: C_6  and  O_13
REMARK    6  A    between atoms: O_13  and  C_16
REMARK    7  A    between atoms: C_18  and  O_25
REMARK    8  A    between atoms: C_27  and  O_28
REMARK                            x       y       z     vdW  Elec       q    Type
REMARK                         _______ _______ _______ _____ _____    ______ ____
ROOT
ATOM      1  O   UNL     1      32.947 -23.385 -15.346  0.00  0.00    -0.316 OA
ATOM      2  C   UNL     1      30.230 -22.690 -14.730  0.00  0.00    +0.173 C 
ATOM      3  C   UNL     1      31.133 -23.425 -13.738  0.00  0.00    +0.169 C 
ATOM      4  C   UNL     1      30.719 -22.873 -16.166  0.00  0.00    +0.210 C 
ATOM      5  C   UNL     1      32.604 -23.086 -13.992  0.00  0.00    +0.177 C 
ATOM      6  C   UNL     1      32.218 -22.595 -16.282  0.00  0.00    +0.318 C 
ENDROOT
BRANCH   2   7
ATOM      7  O   UNL     1      28.911 -23.225 -14.605  0.00  0.00    -0.379 OA
ATOM      8  H   UNL     1      28.945 -24.191 -14.686  0.00  0.00    +0.211 HD
ENDBRANCH   2   7
BRANCH   3   9
ATOM      9  O   UNL     1      30.784 -23.043 -12.410  0.00  0.00    -0.379 OA
ATOM     10  H   UNL     1      31.159 -23.680 -11.782  0.00  0.00    +0.211 HD
ENDBRANCH   3   9
BRANCH   4  11
ATOM     11  O   UNL     1      30.028 -21.963 -17.021  0.00  0.00    -0.377 OA
ATOM     12  H   UNL     1      29.759 -21.182 -16.513  0.00  0.00    +0.211 HD
ENDBRANCH   4  11
BRANCH   6  13
ATOM     13  O   UNL     1      32.624 -22.924 -17.610  0.00  0.00    -0.447 OA
BRANCH  13  16
ATOM     14  O   UNL     1      36.269 -19.507 -20.003  0.00  0.00    -0.421 OA
ATOM     15  O   UNL     1      36.750 -17.932 -21.596  0.00  0.00    -0.244 OA
ATOM     16  C   UNL     1      33.525 -22.081 -18.201  0.00  0.00    +0.175 C 
ATOM     17  C   UNL     1      33.110 -21.288 -19.272  0.00  0.00    +0.043 C 
ATOM     18  C   UNL     1      34.837 -22.017 -17.735  0.00  0.00    +0.171 C 
ATOM     19  C   UNL     1      34.016 -20.421 -19.887  0.00  0.00    +0.038 C 
ATOM     20  C   UNL     1      35.324 -20.368 -19.411  0.00  0.00    +0.152 C 
ATOM     21  C   UNL     1      35.748 -21.156 -18.342  0.00  0.00    +0.077 C 
ATOM     22  C   UNL     1      33.643 -19.572 -21.005  0.00  0.00    +0.010 C 
ATOM     23  C   UNL     1      34.543 -18.759 -21.561  0.00  0.00    +0.082 C 
ATOM     24  C   UNL     1      35.935 -18.686 -21.076  0.00  0.00    +0.346 C 
BRANCH  18  25
ATOM     25  O   UNL     1      35.240 -22.791 -16.689  0.00  0.00    -0.503 OA
ATOM     26  H   UNL     1      34.609 -23.267 -16.188  0.00  0.00    +0.292 HD
ENDBRANCH  18  25
ENDBRANCH  13  16
ENDBRANCH   6  13
BRANCH   5  27
ATOM     27  C   UNL     1      33.533 -23.897 -13.092  0.00  0.00    +0.169 C 
BRANCH  27  28
ATOM     28  O   UNL     1      33.790 -23.148 -11.919  0.00  0.00    -0.379 OA
ATOM     29  H   UNL     1      34.577 -23.502 -11.476  0.00  0.00    +0.211 HD
ENDBRANCH  27  28
ENDBRANCH   5  27
TORSDOF 8
ENDMDL
MODEL 6
REMARK VINA RESULT:     -10.3      2.092      3.564
REMARK  Name = 5281417
REMARK  8 active torsions:
REMARK  status: ('A' for Active; 'I' for Inactive)
REMARK    1  A    between atoms: C_2  and  O_7
REMARK    2  A    between atoms: C_3  and  O_9
REMARK    3  A    between atoms: C_4  and  O_11
REMARK    4  A    between atoms: C_5  and  C_27
REMARK    5  A    between atoms: C_6  and  O_13
REMARK    6  A    between atoms: O_13  and  C_16
REMARK    7  A    between atoms: C_18  and  O_25
REMARK    8  A    between atoms: C_27  and  O_28
REMARK                            x       y       z     vdW  Elec       q    Type
REMARK                         _______ _______ _______ _____ _____    ______ ____
ROOT
ATOM      1  O   UNL     1      35.397 -24.853 -14.426  0.00  0.00    -0.316 OA
ATOM      2  C   UNL     1      35.476 -24.264 -11.617  0.00  0.00    +0.173 C 
ATOM      3  C   UNL     1      36.412 -25.282 -12.267  0.00  0.00    +0.169 C 
ATOM      4  C   UNL     1      34.220 -24.048 -12.461  0.00  0.00    +0.210 C 
ATOM      5  C   UNL     1      36.648 -24.940 -13.740  0.00  0.00    +0.177 C 
ATOM      6  C   UNL     1      34.573 -23.803 -13.929  0.00  0.00    +0.318 C 
ENDROOT
BRANCH   2   7
ATOM      7  O   UNL     1      35.105 -24.763 -10.331  0.00  0.00    -0.379 OA
ATOM      8  H   UNL     1      34.139 -24.738 -10.241  0.00  0.00    +0.211 HD
ENDBRANCH   2   7
BRANCH   3   9
ATOM      9  O   UNL     1      37.661 -25.283 -11.578  0.00  0.00    -0.379 OA
ATOM     10  H   UNL     1      37.545 -24.888 -10.700  0.00  0.00    +0.211 HD
ENDBRANCH   3   9
BRANCH   4  11
ATOM     11  O   UNL     1      33.513 -22.908 -11.974  0.00  0.00    -0.377 OA
ATOM     12  H   UNL     1      34.120 -22.338 -11.477  0.00  0.00    +0.211 HD
ENDBRANCH   4  11
BRANCH   6  13
ATOM     13  O   UNL     1      33.354 -23.755 -14.670  0.00  0.00    -0.447 OA
BRANCH  13  16
ATOM     14  O   UNL     1      33.472 -20.963 -19.454  0.00  0.00    -0.421 OA
ATOM     15  O   UNL     1      34.661 -19.838 -21.056  0.00  0.00    -0.244 OA
ATOM     16  C   UNL     1      33.383 -23.065 -15.851  0.00  0.00    +0.175 C 
ATOM     17  C   UNL     1      34.604 -22.587 -16.328  0.00  0.00    +0.043 C 
ATOM     18  C   UNL     1      32.205 -22.846 -16.565  0.00  0.00    +0.171 C 
ATOM     19  C   UNL     1      34.651 -21.881 -17.533  0.00  0.00    +0.038 C 
ATOM     20  C   UNL     1      33.467 -21.670 -18.235  0.00  0.00    +0.152 C 
ATOM     21  C   UNL     1      32.243 -22.143 -17.767  0.00  0.00    +0.077 C 
ATOM     22  C   UNL     1      35.892 -21.360 -18.079  0.00  0.00    +0.010 C 
ATOM     23  C   UNL     1      35.888 -20.690 -19.234  0.00  0.00    +0.082 C 
ATOM     24  C   UNL     1      34.647 -20.453 -19.996  0.00  0.00    +0.346 C 
BRANCH  18  25
ATOM     25  O   UNL     1      31.014 -23.315 -16.099  0.00  0.00    -0.503 OA
ATOM     26  H   UNL     1      30.603 -22.902 -15.366  0.00  0.00    +0.292 HD
ENDBRANCH  18  25
ENDBRANCH  13  16
ENDBRANCH   6  13
BRANCH   5  27
ATOM     27  C   UNL     1      37.485 -26.006 -14.441  0.00  0.00    +0.169 C 
BRANCH  27  28
ATOM     28  O   UNL     1      36.809 -26.407 -15.619  0.00  0.00    -0.379 OA
ATOM     29  H   UNL     1      37.375 -26.240 -16.388  0.00  0.00    +0.211 HD
ENDBRANCH  27  28
ENDBRANCH   5  27
TORSDOF 8
ENDMDL
MODEL 7
REMARK VINA RESULT:     -10.1      2.428      4.198
REMARK  Name = 5281417
REMARK  8 active torsions:
REMARK  status: ('A' for Active; 'I' for Inactive)
REMARK    1  A    between atoms: C_2  and  O_7
REMARK    2  A    between atoms: C_3  and  O_9
REMARK    3  A    between atoms: C_4  and  O_11
REMARK    4  A    between atoms: C_5  and  C_27
REMARK    5  A    between atoms: C_6  and  O_13
REMARK    6  A    between atoms: O_13  and  C_16
REMARK    7  A    between atoms: C_18  and  O_25
REMARK    8  A    between atoms: C_27  and  O_28
REMARK                            x       y       z     vdW  Elec       q    Type
REMARK                         _______ _______ _______ _____ _____    ______ ____
ROOT
ATOM      1  O   UNL     1      36.200 -24.293 -14.293  0.00  0.00    -0.316 OA
ATOM      2  C   UNL     1      36.330 -23.407 -11.565  0.00  0.00    +0.173 C 
ATOM      3  C   UNL     1      37.531 -24.021 -12.285  0.00  0.00    +0.169 C 
ATOM      4  C   UNL     1      35.016 -23.821 -12.227  0.00  0.00    +0.210 C 
ATOM      5  C   UNL     1      37.438 -23.782 -13.795  0.00  0.00    +0.177 C 
ATOM      6  C   UNL     1      35.070 -23.623 -13.742  0.00  0.00    +0.318 C 
ENDROOT
BRANCH   2   7
ATOM      7  O   UNL     1      36.347 -23.864 -10.212  0.00  0.00    -0.379 OA
ATOM      8  H   UNL     1      37.252 -24.108  -9.964  0.00  0.00    +0.211 HD
ENDBRANCH   2   7
BRANCH   3   9
ATOM      9  O   UNL     1      38.731 -23.432 -11.789  0.00  0.00    -0.379 OA
ATOM     10  H   UNL     1      38.968 -22.669 -12.339  0.00  0.00    +0.211 HD
ENDBRANCH   3   9
BRANCH   4  11
ATOM     11  O   UNL     1      33.953 -23.023 -11.708  0.00  0.00    -0.377 OA
ATOM     12  H   UNL     1      33.163 -23.573 -11.589  0.00  0.00    +0.211 HD
ENDBRANCH   4  11
BRANCH   6  13
ATOM     13  O   UNL     1      33.872 -24.162 -14.298  0.00  0.00    -0.447 OA
BRANCH  13  16
ATOM     14  O   UNL     1      31.615 -21.366 -18.514  0.00  0.00    -0.421 OA
ATOM     15  O   UNL     1      31.862 -20.222 -20.484  0.00  0.00    -0.244 OA
ATOM     16  C   UNL     1      33.314 -23.471 -15.338  0.00  0.00    +0.175 C 
ATOM     17  C   UNL     1      34.144 -22.974 -16.345  0.00  0.00    +0.043 C 
ATOM     18  C   UNL     1      31.936 -23.270 -15.389  0.00  0.00    +0.171 C 
ATOM     19  C   UNL     1      33.591 -22.267 -17.415  0.00  0.00    +0.038 C 
ATOM     20  C   UNL     1      32.212 -22.074 -17.452  0.00  0.00    +0.152 C 
ATOM     21  C   UNL     1      31.376 -22.566 -16.452  0.00  0.00    +0.077 C 
ATOM     22  C   UNL     1      34.403 -21.726 -18.491  0.00  0.00    +0.010 C 
ATOM     23  C   UNL     1      33.831 -21.056 -19.493  0.00  0.00    +0.082 C 
ATOM     24  C   UNL     1      32.373 -20.838 -19.555  0.00  0.00    +0.346 C 
BRANCH  18  25
ATOM     25  O   UNL     1      31.127 -23.758 -14.407  0.00  0.00    -0.503 OA
ATOM     26  H   UNL     1      30.958 -23.245 -13.642  0.00  0.00    +0.292 HD
ENDBRANCH  18  25
ENDBRANCH  13  16
ENDBRANCH   6  13
BRANCH   5  27
ATOM     27  C   UNL     1      38.564 -24.486 -14.548  0.00  0.00    +0.169 C 
BRANCH  27  28
ATOM     28  O   UNL     1      38.083 -25.733 -15.013  0.00  0.00    -0.379 OA
ATOM     29  H   UNL     1      37.428 -26.080 -14.389  0.00  0.00    +0.211 HD
ENDBRANCH  27  28
ENDBRANCH   5  27
TORSDOF 8
ENDMDL
MODEL 8
REMARK VINA RESULT:      -9.6      3.575      7.577
REMARK  Name = 5281417
REMARK  8 active torsions:
REMARK  status: ('A' for Active; 'I' for Inactive)
REMARK    1  A    between atoms: C_2  and  O_7
REMARK    2  A    between atoms: C_3  and  O_9
REMARK    3  A    between atoms: C_4  and  O_11
REMARK    4  A    between atoms: C_5  and  C_27
REMARK    5  A    between atoms: C_6  and  O_13
REMARK    6  A    between atoms: O_13  and  C_16
REMARK    7  A    between atoms: C_18  and  O_25
REMARK    8  A    between atoms: C_27  and  O_28
REMARK                            x       y       z     vdW  Elec       q    Type
REMARK                         _______ _______ _______ _____ _____    ______ ____
ROOT
ATOM      1  O   UNL     1      33.529 -22.465 -15.694  0.00  0.00    -0.316 OA
ATOM      2  C   UNL     1      30.893 -23.153 -14.786  0.00  0.00    +0.173 C 
ATOM      3  C   UNL     1      31.152 -22.543 -16.164  0.00  0.00    +0.169 C 
ATOM      4  C   UNL     1      32.034 -22.838 -13.818  0.00  0.00    +0.210 C 
ATOM      5  C   UNL     1      32.560 -22.889 -16.655  0.00  0.00    +0.177 C 
ATOM      6  C   UNL     1      33.395 -23.139 -14.447  0.00  0.00    +0.318 C 
ENDROOT
BRANCH   2   7
ATOM      7  O   UNL     1      29.676 -22.602 -14.281  0.00  0.00    -0.379 OA
ATOM      8  H   UNL     1      28.924 -23.113 -14.621  0.00  0.00    +0.211 HD
ENDBRANCH   2   7
BRANCH   3   9
ATOM      9  O   UNL     1      30.193 -23.047 -17.091  0.00  0.00    -0.379 OA
ATOM     10  H   UNL     1      30.524 -23.870 -17.482  0.00  0.00    +0.211 HD
ENDBRANCH   3   9
BRANCH   4  11
ATOM     11  O   UNL     1      31.895 -23.641 -12.646  0.00  0.00    -0.377 OA
ATOM     12  H   UNL     1      31.002 -24.020 -12.617  0.00  0.00    +0.211 HD
ENDBRANCH   4  11
BRANCH   6  13
ATOM     13  O   UNL     1      34.404 -22.689 -13.544  0.00  0.00    -0.447 OA
BRANCH  13  16
ATOM     14  O   UNL     1      38.866 -25.926 -12.992  0.00  0.00    -0.421 OA
ATOM     15  O   UNL     1      40.952 -26.553 -13.700  0.00  0.00    -0.244 OA
ATOM     16  C   UNL     1      35.505 -23.489 -13.408  0.00  0.00    +0.175 C 
ATOM     17  C   UNL     1      36.573 -23.331 -14.293  0.00  0.00    +0.043 C 
ATOM     18  C   UNL     1      35.556 -24.447 -12.396  0.00  0.00    +0.171 C 
ATOM     19  C   UNL     1      37.705 -24.139 -14.167  0.00  0.00    +0.038 C 
ATOM     20  C   UNL     1      37.742 -25.092 -13.152  0.00  0.00    +0.152 C 
ATOM     21  C   UNL     1      36.681 -25.257 -12.263  0.00  0.00    +0.077 C 
ATOM     22  C   UNL     1      38.846 -24.021 -15.059  0.00  0.00    +0.010 C 
ATOM     23  C   UNL     1      39.907 -24.815 -14.901  0.00  0.00    +0.082 C 
ATOM     24  C   UNL     1      39.969 -25.832 -13.833  0.00  0.00    +0.346 C 
BRANCH  18  25
ATOM     25  O   UNL     1      34.514 -24.599 -11.532  0.00  0.00    -0.503 OA
ATOM     26  H   UNL     1      34.311 -23.920 -10.919  0.00  0.00    +0.292 HD
ENDBRANCH  18  25
ENDBRANCH  13  16
ENDBRANCH   6  13
BRANCH   5  27
ATOM     27  C   UNL     1      32.884 -22.195 -17.974  0.00  0.00    +0.169 C 
BRANCH  27  28
ATOM     28  O   UNL     1      33.332 -23.170 -18.898  0.00  0.00    -0.379 OA
ATOM     29  H   UNL     1      33.637 -22.732 -19.707  0.00  0.00    +0.211 HD
ENDBRANCH  27  28
ENDBRANCH   5  27
TORSDOF 8
ENDMDL
MODEL 9
REMARK VINA RESULT:      -9.6      1.374      2.269
REMARK  Name = 5281417
REMARK  8 active torsions:
REMARK  status: ('A' for Active; 'I' for Inactive)
REMARK    1  A    between atoms: C_2  and  O_7
REMARK    2  A    between atoms: C_3  and  O_9
REMARK    3  A    between atoms: C_4  and  O_11
REMARK    4  A    between atoms: C_5  and  C_27
REMARK    5  A    between atoms: C_6  and  O_13
REMARK    6  A    between atoms: O_13  and  C_16
REMARK    7  A    between atoms: C_18  and  O_25
REMARK    8  A    between atoms: C_27  and  O_28
REMARK                            x       y       z     vdW  Elec       q    Type
REMARK                         _______ _______ _______ _____ _____    ______ ____
ROOT
ATOM      1  O   UNL     1      35.199 -23.236 -15.024  0.00  0.00    -0.316 OA
ATOM      2  C   UNL     1      32.791 -23.158 -13.461  0.00  0.00    +0.173 C 
ATOM      3  C   UNL     1      34.141 -23.559 -12.867  0.00  0.00    +0.169 C 
ATOM      4  C   UNL     1      32.774 -23.352 -14.978  0.00  0.00    +0.210 C 
ATOM      5  C   UNL     1      35.290 -22.903 -13.637  0.00  0.00    +0.177 C 
ATOM      6  C   UNL     1      34.012 -22.735 -15.630  0.00  0.00    +0.318 C 
ENDROOT
BRANCH   2   7
ATOM      7  O   UNL     1      31.785 -23.980 -12.866  0.00  0.00    -0.379 OA
ATOM      8  H   UNL     1      32.175 -24.493 -12.141  0.00  0.00    +0.211 HD
ENDBRANCH   2   7
BRANCH   3   9
ATOM      9  O   UNL     1      34.196 -23.150 -11.502  0.00  0.00    -0.379 OA
ATOM     10  H   UNL     1      33.400 -22.641 -11.286  0.00  0.00    +0.211 HD
ENDBRANCH   3   9
BRANCH   4  11
ATOM     11  O   UNL     1      31.617 -22.718 -15.523  0.00  0.00    -0.377 OA
ATOM     12  H   UNL     1      31.327 -22.008 -14.929  0.00  0.00    +0.211 HD
ENDBRANCH   4  11
BRANCH   6  13
ATOM     13  O   UNL     1      33.995 -23.079 -17.015  0.00  0.00    -0.447 OA
BRANCH  13  16
ATOM     14  O   UNL     1      35.756 -19.197 -20.554  0.00  0.00    -0.421 OA
ATOM     15  O   UNL     1      35.322 -17.748 -22.274  0.00  0.00    -0.244 OA
ATOM     16  C   UNL     1      34.430 -22.121 -17.890  0.00  0.00    +0.175 C 
ATOM     17  C   UNL     1      33.528 -21.577 -18.805  0.00  0.00    +0.043 C 
ATOM     18  C   UNL     1      35.758 -21.696 -17.861  0.00  0.00    +0.171 C 
ATOM     19  C   UNL     1      33.956 -20.598 -19.704  0.00  0.00    +0.038 C 
ATOM     20  C   UNL     1      35.286 -20.183 -19.664  0.00  0.00    +0.152 C 
ATOM     21  C   UNL     1      36.194 -20.720 -18.754  0.00  0.00    +0.077 C 
ATOM     22  C   UNL     1      33.064 -19.996 -20.679  0.00  0.00    +0.010 C 
ATOM     23  C   UNL     1      33.517 -19.063 -21.519  0.00  0.00    +0.082 C 
ATOM     24  C   UNL     1      34.921 -18.608 -21.497  0.00  0.00    +0.346 C 
BRANCH  18  25
ATOM     25  O   UNL     1      36.637 -22.227 -16.965  0.00  0.00    -0.503 OA
ATOM     26  H   UNL     1      36.389 -22.966 -16.447  0.00  0.00    +0.292 HD
ENDBRANCH  18  25
ENDBRANCH  13  16
ENDBRANCH   6  13
BRANCH   5  27
ATOM     27  C   UNL     1      36.650 -23.380 -13.137  0.00  0.00    +0.169 C 
BRANCH  27  28
ATOM     28  O   UNL     1      37.168 -22.410 -12.245  0.00  0.00    -0.379 OA
ATOM     29  H   UNL     1      37.485 -21.644 -12.748  0.00  0.00    +0.211 HD
ENDBRANCH  27  28
ENDBRANCH   5  27
TORSDOF 8
ENDMDL
