MODEL 1
REMARK VINA RESULT:     -12.0      0.000      0.000
REMARK  Name = 24905144
REMARK  1 active torsions:
REMARK  status: ('A' for Active; 'I' for Inactive)
REMARK    1  A    between atoms: C_5  and  C_11
REMARK                            x       y       z     vdW  Elec       q    Type
REMARK                         _______ _______ _______ _____ _____    ______ ____
ROOT
ATOM      1  N   UNL     1      33.925 -14.054 -21.785  0.00  0.00    -0.196 N 
ATOM      2  N   UNL     1      34.292 -15.067 -20.979  0.00  0.00    -0.180 NA
ATOM      3  N   UNL     1      33.293 -13.655 -24.088  0.00  0.00    -0.231 NA
ATOM      4  N   UNL     1      33.317 -15.712 -25.399  0.00  0.00    -0.234 NA
ATOM      5  C   UNL     1      34.273 -16.132 -21.789  0.00  0.00    +0.090 C 
ATOM      6  C   UNL     1      33.895 -15.806 -23.105  0.00  0.00    +0.150 C 
ATOM      7  C   UNL     1      33.675 -14.441 -23.068  0.00  0.00    +0.137 C 
ATOM      8  C   UNL     1      33.703 -16.444 -24.326  0.00  0.00    +0.112 C 
ATOM      9  C   UNL     1      33.832 -12.716 -21.249  0.00  0.00    +0.141 C 
ATOM     10  C   UNL     1      33.139 -14.382 -25.216  0.00  0.00    +0.252 C 
ATOM     11  N   UNL     1      33.900 -17.830 -24.464  0.00  0.00    -0.346 N 
ATOM     12  H   UNL     1      33.758 -18.263 -25.337  0.00  0.00    +0.143 HD
ATOM     13  H   UNL     1      34.180 -18.368 -23.689  0.00  0.00    +0.143 HD
ENDROOT
BRANCH   5  14
ATOM     14  C   UNL     1      34.617 -17.428 -21.273  0.00  0.00    +0.016 C 
ATOM     15  C   UNL     1      33.933 -19.559 -20.320  0.00  0.00    +0.000 C 
ATOM     16  C   UNL     1      33.614 -18.290 -20.829  0.00  0.00    +0.001 C 
ATOM     17  C   UNL     1      35.289 -19.960 -20.263  0.00  0.00    +0.000 C 
ATOM     18  C   UNL     1      35.950 -17.822 -21.216  0.00  0.00    +0.001 C 
ATOM     19  C   UNL     1      36.286 -19.079 -20.714  0.00  0.00    +0.000 C 
ATOM     20  C   UNL     1      32.936 -20.440 -19.870  0.00  0.00    +0.000 C 
ATOM     21  C   UNL     1      35.609 -21.229 -19.754  0.00  0.00    +0.000 C 
ATOM     22  C   UNL     1      33.272 -21.697 -19.367  0.00  0.00    +0.000 C 
ATOM     23  C   UNL     1      34.606 -22.091 -19.310  0.00  0.00    +0.000 C 
ENDBRANCH   5  14
TORSDOF 1
ENDMDL
MODEL 2
REMARK VINA RESULT:     -11.7      3.575      6.920
REMARK  Name = 24905144
REMARK  1 active torsions:
REMARK  status: ('A' for Active; 'I' for Inactive)
REMARK    1  A    between atoms: C_5  and  C_11
REMARK                            x       y       z     vdW  Elec       q    Type
REMARK                         _______ _______ _______ _____ _____    ______ ____
ROOT
ATOM      1  N   UNL     1      35.822 -21.126 -18.257  0.00  0.00    -0.196 N 
ATOM      2  N   UNL     1      36.039 -20.255 -19.259  0.00  0.00    -0.180 NA
ATOM      3  N   UNL     1      34.020 -22.412 -17.278  0.00  0.00    -0.231 NA
ATOM      4  N   UNL     1      31.909 -22.040 -18.445  0.00  0.00    -0.234 NA
ATOM      5  C   UNL     1      34.833 -20.124 -19.824  0.00  0.00    +0.090 C 
ATOM      6  C   UNL     1      33.850 -20.906 -19.191  0.00  0.00    +0.150 C 
ATOM      7  C   UNL     1      34.530 -21.548 -18.171  0.00  0.00    +0.137 C 
ATOM      8  C   UNL     1      32.491 -21.177 -19.313  0.00  0.00    +0.112 C 
ATOM      9  C   UNL     1      36.921 -21.519 -17.406  0.00  0.00    +0.141 C 
ATOM     10  C   UNL     1      32.699 -22.596 -17.495  0.00  0.00    +0.252 C 
ATOM     11  N   UNL     1      31.714 -20.575 -20.319  0.00  0.00    -0.346 N 
ATOM     12  H   UNL     1      30.753 -20.780 -20.389  0.00  0.00    +0.143 HD
ATOM     13  H   UNL     1      32.130 -19.947 -20.954  0.00  0.00    +0.143 HD
ENDROOT
BRANCH   5  14
ATOM     14  C   UNL     1      34.665 -19.253 -20.954  0.00  0.00    +0.016 C 
ATOM     15  C   UNL     1      34.480 -17.005 -21.865  0.00  0.00    +0.000 C 
ATOM     16  C   UNL     1      34.646 -17.870 -20.771  0.00  0.00    +0.001 C 
ATOM     17  C   UNL     1      34.334 -17.550 -23.163  0.00  0.00    +0.000 C 
ATOM     18  C   UNL     1      34.520 -19.789 -22.230  0.00  0.00    +0.001 C 
ATOM     19  C   UNL     1      34.356 -18.945 -23.328  0.00  0.00    +0.000 C 
ATOM     20  C   UNL     1      34.459 -15.611 -21.699  0.00  0.00    +0.000 C 
ATOM     21  C   UNL     1      34.169 -16.686 -24.256  0.00  0.00    +0.000 C 
ATOM     22  C   UNL     1      34.294 -14.766 -22.797  0.00  0.00    +0.000 C 
ATOM     23  C   UNL     1      34.149 -15.302 -24.073  0.00  0.00    +0.000 C 
ENDBRANCH   5  14
TORSDOF 1
ENDMDL
MODEL 3
REMARK VINA RESULT:     -10.9      0.916      2.532
REMARK  Name = 24905144
REMARK  1 active torsions:
REMARK  status: ('A' for Active; 'I' for Inactive)
REMARK    1  A    between atoms: C_5  and  C_11
REMARK                            x       y       z     vdW  Elec       q    Type
REMARK                         _______ _______ _______ _____ _____    ______ ____
ROOT
ATOM      1  N   UNL     1      33.735 -15.179 -24.361  0.00  0.00    -0.196 N 
ATOM      2  N   UNL     1      34.162 -16.400 -23.988  0.00  0.00    -0.180 NA
ATOM      3  N   UNL     1      33.101 -13.059 -23.379  0.00  0.00    -0.231 NA
ATOM      4  N   UNL     1      33.275 -13.104 -20.946  0.00  0.00    -0.234 NA
ATOM      5  C   UNL     1      34.220 -16.315 -22.654  0.00  0.00    +0.090 C 
ATOM      6  C   UNL     1      33.835 -15.050 -22.174  0.00  0.00    +0.150 C 
ATOM      7  C   UNL     1      33.525 -14.332 -23.315  0.00  0.00    +0.137 C 
ATOM      8  C   UNL     1      33.698 -14.391 -20.956  0.00  0.00    +0.112 C 
ATOM      9  C   UNL     1      33.548 -14.889 -25.764  0.00  0.00    +0.141 C 
ATOM     10  C   UNL     1      33.006 -12.526 -22.142  0.00  0.00    +0.252 C 
ATOM     11  N   UNL     1      33.992 -15.035 -19.741  0.00  0.00    -0.346 N 
ATOM     12  H   UNL     1      33.889 -14.552 -18.889  0.00  0.00    +0.143 HD
ATOM     13  H   UNL     1      34.300 -15.971 -19.740  0.00  0.00    +0.143 HD
ENDROOT
BRANCH   5  14
ATOM     14  C   UNL     1      34.645 -17.451 -21.885  0.00  0.00    +0.016 C 
ATOM     15  C   UNL     1      34.095 -19.426 -20.575  0.00  0.00    +0.000 C 
ATOM     16  C   UNL     1      33.697 -18.311 -21.332  0.00  0.00    +0.001 C 
ATOM     17  C   UNL     1      35.475 -19.671 -20.379  0.00  0.00    +0.000 C 
ATOM     18  C   UNL     1      36.002 -17.691 -21.691  0.00  0.00    +0.001 C 
ATOM     19  C   UNL     1      36.416 -18.794 -20.943  0.00  0.00    +0.000 C 
ATOM     20  C   UNL     1      33.155 -20.303 -20.012  0.00  0.00    +0.000 C 
ATOM     21  C   UNL     1      35.874 -20.785 -19.623  0.00  0.00    +0.000 C 
ATOM     22  C   UNL     1      33.569 -21.405 -19.263  0.00  0.00    +0.000 C 
ATOM     23  C   UNL     1      34.925 -21.646 -19.069  0.00  0.00    +0.000 C 
ENDBRANCH   5  14
TORSDOF 1
ENDMDL
MODEL 4
REMARK VINA RESULT:     -10.8      5.206      8.559
REMARK  Name = 24905144
REMARK  1 active torsions:
REMARK  status: ('A' for Active; 'I' for Inactive)
REMARK    1  A    between atoms: C_5  and  C_11
REMARK                            x       y       z     vdW  Elec       q    Type
REMARK                         _______ _______ _______ _____ _____    ______ ____
ROOT
ATOM      1  N   UNL     1      35.607 -23.032 -15.695  0.00  0.00    -0.196 N 
ATOM      2  N   UNL     1      35.835 -22.303 -16.803  0.00  0.00    -0.180 NA
ATOM      3  N   UNL     1      33.757 -23.941 -14.425  0.00  0.00    -0.231 NA
ATOM      4  N   UNL     1      31.608 -23.382 -15.435  0.00  0.00    -0.234 NA
ATOM      5  C   UNL     1      34.606 -22.054 -17.270  0.00  0.00    +0.090 C 
ATOM      6  C   UNL     1      33.596 -22.620 -16.470  0.00  0.00    +0.150 C 
ATOM      7  C   UNL     1      34.284 -23.252 -15.450  0.00  0.00    +0.137 C 
ATOM      8  C   UNL     1      32.208 -22.702 -16.441  0.00  0.00    +0.112 C 
ATOM      9  C   UNL     1      36.724 -23.495 -14.906  0.00  0.00    +0.141 C 
ATOM     10  C   UNL     1      32.409 -23.951 -14.502  0.00  0.00    +0.252 C 
ATOM     11  N   UNL     1      31.420 -22.093 -17.435  0.00  0.00    -0.346 N 
ATOM     12  H   UNL     1      30.438 -22.163 -17.397  0.00  0.00    +0.143 HD
ATOM     13  H   UNL     1      31.849 -21.597 -18.170  0.00  0.00    +0.143 HD
ENDROOT
BRANCH   5  14
ATOM     14  C   UNL     1      34.441 -21.282 -18.470  0.00  0.00    +0.016 C 
ATOM     15  C   UNL     1      35.377 -19.812 -20.168  0.00  0.00    +0.000 C 
ATOM     16  C   UNL     1      35.521 -20.574 -18.997  0.00  0.00    +0.001 C 
ATOM     17  C   UNL     1      34.120 -19.771 -20.816  0.00  0.00    +0.000 C 
ATOM     18  C   UNL     1      33.205 -21.241 -19.106  0.00  0.00    +0.001 C 
ATOM     19  C   UNL     1      33.043 -20.491 -20.272  0.00  0.00    +0.000 C 
ATOM     20  C   UNL     1      36.454 -19.094 -20.712  0.00  0.00    +0.000 C 
ATOM     21  C   UNL     1      33.974 -19.010 -21.987  0.00  0.00    +0.000 C 
ATOM     22  C   UNL     1      36.292 -18.343 -21.877  0.00  0.00    +0.000 C 
ATOM     23  C   UNL     1      35.055 -18.302 -22.513  0.00  0.00    +0.000 C 
ENDBRANCH   5  14
TORSDOF 1
ENDMDL
MODEL 5
REMARK VINA RESULT:     -10.8      7.294     10.862
REMARK  Name = 24905144
REMARK  1 active torsions:
REMARK  status: ('A' for Active; 'I' for Inactive)
REMARK    1  A    between atoms: C_5  and  C_11
REMARK                            x       y       z     vdW  Elec       q    Type
REMARK                         _______ _______ _______ _____ _____    ______ ____
ROOT
ATOM      1  N   UNL     1      37.739 -24.211 -13.622  0.00  0.00    -0.196 N 
ATOM      2  N   UNL     1      37.349 -23.796 -14.842  0.00  0.00    -0.180 NA
ATOM      3  N   UNL     1      36.855 -24.467 -11.383  0.00  0.00    -0.231 NA
ATOM      4  N   UNL     1      34.523 -23.761 -11.248  0.00  0.00    -0.234 NA
ATOM      5  C   UNL     1      36.073 -23.437 -14.655  0.00  0.00    +0.090 C 
ATOM      6  C   UNL     1      35.647 -23.620 -13.327  0.00  0.00    +0.150 C 
ATOM      7  C   UNL     1      36.759 -24.127 -12.679  0.00  0.00    +0.137 C 
ATOM      8  C   UNL     1      34.499 -23.439 -12.563  0.00  0.00    +0.112 C 
ATOM      9  C   UNL     1      39.089 -24.684 -13.431  0.00  0.00    +0.141 C 
ATOM     10  C   UNL     1      35.684 -24.248 -10.746  0.00  0.00    +0.252 C 
ATOM     11  N   UNL     1      33.316 -22.931 -13.132  0.00  0.00    -0.346 N 
ATOM     12  H   UNL     1      32.513 -22.811 -12.574  0.00  0.00    +0.143 HD
ATOM     13  H   UNL     1      33.291 -22.695 -14.088  0.00  0.00    +0.143 HD
ENDROOT
BRANCH   5  14
ATOM     14  C   UNL     1      35.306 -22.930 -15.759  0.00  0.00    +0.016 C 
ATOM     15  C   UNL     1      35.182 -21.630 -17.811  0.00  0.00    +0.000 C 
ATOM     16  C   UNL     1      35.918 -22.135 -16.727  0.00  0.00    +0.001 C 
ATOM     17  C   UNL     1      33.805 -21.938 -17.915  0.00  0.00    +0.000 C 
ATOM     18  C   UNL     1      33.951 -23.232 -15.860  0.00  0.00    +0.001 C 
ATOM     19  C   UNL     1      33.204 -22.740 -16.931  0.00  0.00    +0.000 C 
ATOM     20  C   UNL     1      35.783 -20.829 -18.795  0.00  0.00    +0.000 C 
ATOM     21  C   UNL     1      33.068 -21.434 -18.998  0.00  0.00    +0.000 C 
ATOM     22  C   UNL     1      35.036 -20.336 -19.866  0.00  0.00    +0.000 C 
ATOM     23  C   UNL     1      33.681 -20.638 -19.967  0.00  0.00    +0.000 C 
ENDBRANCH   5  14
TORSDOF 1
ENDMDL
MODEL 6
REMARK VINA RESULT:     -10.3      3.741      6.252
REMARK  Name = 24905144
REMARK  1 active torsions:
REMARK  status: ('A' for Active; 'I' for Inactive)
REMARK    1  A    between atoms: C_5  and  C_11
REMARK                            x       y       z     vdW  Elec       q    Type
REMARK                         _______ _______ _______ _____ _____    ______ ____
ROOT
ATOM      1  N   UNL     1      33.482  -8.960 -23.293  0.00  0.00    -0.196 N 
ATOM      2  N   UNL     1      33.893 -10.126 -23.825  0.00  0.00    -0.180 NA
ATOM      3  N   UNL     1      31.881  -8.121 -21.684  0.00  0.00    -0.231 NA
ATOM      4  N   UNL     1      30.576  -9.924 -20.686  0.00  0.00    -0.234 NA
ATOM      5  C   UNL     1      33.122 -11.034 -23.215  0.00  0.00    +0.090 C 
ATOM      6  C   UNL     1      32.224 -10.457 -22.300  0.00  0.00    +0.150 C 
ATOM      7  C   UNL     1      32.486  -9.101 -22.375  0.00  0.00    +0.137 C 
ATOM      8  C   UNL     1      31.229 -10.860 -21.416  0.00  0.00    +0.112 C 
ATOM      9  C   UNL     1      34.102  -7.727 -23.720  0.00  0.00    +0.141 C 
ATOM     10  C   UNL     1      30.937  -8.631 -20.863  0.00  0.00    +0.252 C 
ATOM     11  N   UNL     1      30.891 -12.218 -21.267  0.00  0.00    -0.346 N 
ATOM     12  H   UNL     1      30.183 -12.483 -20.635  0.00  0.00    +0.143 HD
ATOM     13  H   UNL     1      31.361 -12.904 -21.794  0.00  0.00    +0.143 HD
ENDROOT
BRANCH   5  14
ATOM     14  C   UNL     1      33.274 -12.427 -23.533  0.00  0.00    +0.016 C 
ATOM     15  C   UNL     1      33.959 -14.669 -22.880  0.00  0.00    +0.000 C 
ATOM     16  C   UNL     1      33.803 -13.304 -22.585  0.00  0.00    +0.001 C 
ATOM     17  C   UNL     1      33.572 -15.150 -24.153  0.00  0.00    +0.000 C 
ATOM     18  C   UNL     1      32.895 -12.901 -24.785  0.00  0.00    +0.001 C 
ATOM     19  C   UNL     1      33.042 -14.253 -25.095  0.00  0.00    +0.000 C 
ATOM     20  C   UNL     1      34.489 -15.565 -21.938  0.00  0.00    +0.000 C 
ATOM     21  C   UNL     1      33.729 -16.514 -24.449  0.00  0.00    +0.000 C 
ATOM     22  C   UNL     1      34.637 -16.917 -22.248  0.00  0.00    +0.000 C 
ATOM     23  C   UNL     1      34.258 -17.391 -23.500  0.00  0.00    +0.000 C 
ENDBRANCH   5  14
TORSDOF 1
ENDMDL
MODEL 7
REMARK VINA RESULT:     -10.2      6.374      9.550
REMARK  Name = 24905144
REMARK  1 active torsions:
REMARK  status: ('A' for Active; 'I' for Inactive)
REMARK    1  A    between atoms: C_5  and  C_11
REMARK                            x       y       z     vdW  Elec       q    Type
REMARK                         _______ _______ _______ _____ _____    ______ ____
ROOT
ATOM      1  N   UNL     1      29.103 -22.906 -15.925  0.00  0.00    -0.196 N 
ATOM      2  N   UNL     1      29.863 -22.362 -16.894  0.00  0.00    -0.180 NA
ATOM      3  N   UNL     1      29.345 -24.082 -13.823  0.00  0.00    -0.231 NA
ATOM      4  N   UNL     1      31.691 -24.410 -13.237  0.00  0.00    -0.234 NA
ATOM      5  C   UNL     1      31.112 -22.596 -16.477  0.00  0.00    +0.090 C 
ATOM      6  C   UNL     1      31.156 -23.283 -15.250  0.00  0.00    +0.150 C 
ATOM      7  C   UNL     1      29.826 -23.469 -14.917  0.00  0.00    +0.137 C 
ATOM      8  C   UNL     1      32.105 -23.779 -14.363  0.00  0.00    +0.112 C 
ATOM      9  C   UNL     1      27.664 -22.846 -16.032  0.00  0.00    +0.141 C 
ATOM     10  C   UNL     1      30.355 -24.521 -13.040  0.00  0.00    +0.252 C 
ATOM     11  N   UNL     1      33.482 -23.637 -14.612  0.00  0.00    -0.346 N 
ATOM     12  H   UNL     1      34.139 -23.995 -13.971  0.00  0.00    +0.143 HD
ATOM     13  H   UNL     1      33.791 -23.180 -15.428  0.00  0.00    +0.143 HD
ENDROOT
BRANCH   5  14
ATOM     14  C   UNL     1      32.224 -22.151 -17.270  0.00  0.00    +0.016 C 
ATOM     15  C   UNL     1      33.084 -20.874 -19.155  0.00  0.00    +0.000 C 
ATOM     16  C   UNL     1      32.008 -21.317 -18.367  0.00  0.00    +0.001 C 
ATOM     17  C   UNL     1      34.398 -21.282 -18.823  0.00  0.00    +0.000 C 
ATOM     18  C   UNL     1      33.516 -22.553 -16.945  0.00  0.00    +0.001 C 
ATOM     19  C   UNL     1      34.596 -22.123 -17.715  0.00  0.00    +0.000 C 
ATOM     20  C   UNL     1      32.884 -20.034 -20.262  0.00  0.00    +0.000 C 
ATOM     21  C   UNL     1      35.474 -20.841 -19.609  0.00  0.00    +0.000 C 
ATOM     22  C   UNL     1      33.965 -19.604 -21.032  0.00  0.00    +0.000 C 
ATOM     23  C   UNL     1      35.257 -20.006 -20.707  0.00  0.00    +0.000 C 
ENDBRANCH   5  14
TORSDOF 1
ENDMDL
MODEL 8
REMARK VINA RESULT:     -10.2      5.055      8.269
REMARK  Name = 24905144
REMARK  1 active torsions:
REMARK  status: ('A' for Active; 'I' for Inactive)
REMARK    1  A    between atoms: C_5  and  C_11
REMARK                            x       y       z     vdW  Elec       q    Type
REMARK                         _______ _______ _______ _____ _____    ______ ____
ROOT
ATOM      1  N   UNL     1      31.947 -22.933 -16.541  0.00  0.00    -0.196 N 
ATOM      2  N   UNL     1      31.848 -22.174 -17.648  0.00  0.00    -0.180 NA
ATOM      3  N   UNL     1      33.624 -23.742 -14.995  0.00  0.00    -0.231 NA
ATOM      4  N   UNL     1      35.856 -22.957 -15.592  0.00  0.00    -0.234 NA
ATOM      5  C   UNL     1      33.111 -21.802 -17.884  0.00  0.00    +0.090 C 
ATOM      6  C   UNL     1      34.015 -22.317 -16.937  0.00  0.00    +0.150 C 
ATOM      7  C   UNL     1      33.221 -23.052 -16.074  0.00  0.00    +0.137 C 
ATOM      8  C   UNL     1      35.378 -22.283 -16.666  0.00  0.00    +0.112 C 
ATOM      9  C   UNL     1      30.757 -23.524 -15.976  0.00  0.00    +0.141 C 
ATOM     10  C   UNL     1      34.961 -23.636 -14.834  0.00  0.00    +0.252 C 
ATOM     11  N   UNL     1      36.267 -21.562 -17.485  0.00  0.00    -0.346 N 
ATOM     12  H   UNL     1      37.230 -21.550 -17.276  0.00  0.00    +0.143 HD
ATOM     13  H   UNL     1      35.928 -21.069 -18.267  0.00  0.00    +0.143 HD
ENDROOT
BRANCH   5  14
ATOM     14  C   UNL     1      33.409 -20.963 -19.012  0.00  0.00    +0.016 C 
ATOM     15  C   UNL     1      35.026 -19.710 -20.330  0.00  0.00    +0.000 C 
ATOM     16  C   UNL     1      34.717 -20.532 -19.233  0.00  0.00    +0.001 C 
ATOM     17  C   UNL     1      33.992 -19.322 -21.215  0.00  0.00    +0.000 C 
ATOM     18  C   UNL     1      32.393 -20.581 -19.882  0.00  0.00    +0.001 C 
ATOM     19  C   UNL     1      32.681 -19.766 -20.977  0.00  0.00    +0.000 C 
ATOM     20  C   UNL     1      36.337 -19.267 -20.568  0.00  0.00    +0.000 C 
ATOM     21  C   UNL     1      34.299 -18.500 -22.311  0.00  0.00    +0.000 C 
ATOM     22  C   UNL     1      36.624 -18.451 -21.662  0.00  0.00    +0.000 C 
ATOM     23  C   UNL     1      35.608 -18.069 -22.532  0.00  0.00    +0.000 C 
ENDBRANCH   5  14
TORSDOF 1
ENDMDL
MODEL 9
REMARK VINA RESULT:     -10.1      7.561     10.890
REMARK  Name = 24905144
REMARK  1 active torsions:
REMARK  status: ('A' for Active; 'I' for Inactive)
REMARK    1  A    between atoms: C_5  and  C_11
REMARK                            x       y       z     vdW  Elec       q    Type
REMARK                         _______ _______ _______ _____ _____    ______ ____
ROOT
ATOM      1  N   UNL     1      35.382 -23.600 -12.052  0.00  0.00    -0.196 N 
ATOM      2  N   UNL     1      34.995 -22.863 -13.109  0.00  0.00    -0.180 NA
ATOM      3  N   UNL     1      37.138 -25.139 -11.410  0.00  0.00    -0.231 NA
ATOM      4  N   UNL     1      38.731 -25.497 -13.223  0.00  0.00    -0.234 NA
ATOM      5  C   UNL     1      35.926 -23.132 -14.033  0.00  0.00    +0.090 C 
ATOM      6  C   UNL     1      36.903 -24.033 -13.573  0.00  0.00    +0.150 C 
ATOM      7  C   UNL     1      36.519 -24.319 -12.275  0.00  0.00    +0.137 C 
ATOM      8  C   UNL     1      38.054 -24.656 -14.042  0.00  0.00    +0.112 C 
ATOM      9  C   UNL     1      34.602 -23.566 -10.837  0.00  0.00    +0.141 C 
ATOM     10  C   UNL     1      38.237 -25.684 -11.975  0.00  0.00    +0.252 C 
ATOM     11  N   UNL     1      38.527 -24.428 -15.347  0.00  0.00    -0.346 N 
ATOM     12  H   UNL     1      39.345 -24.878 -15.661  0.00  0.00    +0.143 HD
ATOM     13  H   UNL     1      38.041 -23.817 -15.948  0.00  0.00    +0.143 HD
ENDROOT
BRANCH   5  14
ATOM     14  C   UNL     1      35.846 -22.513 -15.327  0.00  0.00    +0.016 C 
ATOM     15  C   UNL     1      34.585 -22.030 -17.351  0.00  0.00    +0.000 C 
ATOM     16  C   UNL     1      34.679 -22.627 -16.083  0.00  0.00    +0.001 C 
ATOM     17  C   UNL     1      35.690 -21.305 -17.858  0.00  0.00    +0.000 C 
ATOM     18  C   UNL     1      36.932 -21.802 -15.826  0.00  0.00    +0.001 C 
ATOM     19  C   UNL     1      36.857 -21.201 -17.083  0.00  0.00    +0.000 C 
ATOM     20  C   UNL     1      33.418 -22.133 -18.124  0.00  0.00    +0.000 C 
ATOM     21  C   UNL     1      35.597 -20.708 -19.125  0.00  0.00    +0.000 C 
ATOM     22  C   UNL     1      33.342 -21.534 -19.382  0.00  0.00    +0.000 C 
ATOM     23  C   UNL     1      34.429 -20.822 -19.881  0.00  0.00    +0.000 C 
ENDBRANCH   5  14
TORSDOF 1
ENDMDL
