MODEL 1
REMARK VINA RESULT:     -11.2      0.000      0.000
REMARK  Name = 40466858
REMARK  6 active torsions:
REMARK  status: ('A' for Active; 'I' for Inactive)
REMARK    1  A    between atoms: C_1  and  C_21
REMARK    2  A    between atoms: C_2  and  C_3
REMARK    3  A    between atoms: C_2  and  C_11
REMARK    4  A    between atoms: C_14  and  C_16
REMARK    5  A    between atoms: C_17  and  C_20
REMARK    6  A    between atoms: C_21  and  N_22
REMARK                            x       y       z     vdW  Elec       q    Type
REMARK                         _______ _______ _______ _____ _____    ______ ____
ROOT
ATOM      1  C   UNL     1      33.641 -22.512 -16.614  0.00  0.00    -0.047 C 
ATOM      2  C   UNL     1      33.626 -23.235 -15.472  0.00  0.00    +0.023 C 
ENDROOT
BRANCH   2   3
ATOM      3  C   UNL     1      34.896 -23.643 -14.830  0.00  0.00    +0.002 C 
ATOM      4  C   UNL     1      35.378 -24.942 -14.998  0.00  0.00    -0.000 C 
ATOM      5  C   UNL     1      35.613 -22.728 -14.058  0.00  0.00    -0.000 C 
ATOM      6  C   UNL     1      36.575 -25.326 -14.394  0.00  0.00    -0.004 C 
ATOM      7  C   UNL     1      36.810 -23.113 -13.454  0.00  0.00    -0.004 C 
ATOM      8  C   UNL     1      37.291 -24.411 -13.622  0.00  0.00    -0.022 C 
ATOM      9  C   UNL     1      38.570 -24.821 -12.975  0.00  0.00    +0.031 C 
ENDBRANCH   2   3
BRANCH   2  11
ATOM     10  N   UNL     1      31.228 -23.317 -15.671  0.00  0.00    -0.406 NA
ATOM     11  C   UNL     1      32.302 -23.585 -14.895  0.00  0.00    +0.130 C 
ATOM     12  C   UNL     1      32.225 -24.151 -13.633  0.00  0.00    +0.028 C 
ATOM     13  C   UNL     1      30.965 -24.462 -13.134  0.00  0.00    -0.016 C 
ATOM     14  C   UNL     1      30.020 -23.633 -15.154  0.00  0.00    +0.114 C 
ATOM     15  C   UNL     1      29.836 -24.202 -13.904  0.00  0.00    +0.085 C 
BRANCH  14  16
ATOM     16  C   UNL     1      28.871 -23.341 -15.995  0.00  0.00    +0.035 C 
ATOM     17  C   UNL     1      28.148 -22.199 -15.963  0.00  0.00    +0.088 C 
BRANCH  17  20
ATOM     18  O   UNL     1      26.663 -22.956 -17.626  0.00  0.00    -0.241 OA
ATOM     19  O   UNL     1      26.353 -20.854 -16.793  0.00  0.00    -0.241 OA
ATOM     20  C   UNL     1      26.936 -21.970 -16.880  0.00  0.00    +0.388 C 
ENDBRANCH  17  20
ENDBRANCH  14  16
ENDBRANCH   2  11
BRANCH   1  21
ATOM     21  C   UNL     1      34.833 -22.025 -17.382  0.00  0.00    -0.050 C 
BRANCH  21  22
ATOM     22  N   UNL     1      34.532 -21.795 -18.828  0.00  0.00    +0.390 N 
ATOM     23  C   UNL     1      35.290 -20.634 -19.431  0.00  0.00    -0.077 C 
ATOM     24  C   UNL     1      33.060 -21.588 -19.136  0.00  0.00    -0.077 C 
ATOM     25  C   UNL     1      34.365 -20.141 -20.523  0.00  0.00    -0.025 C 
ATOM     26  C   UNL     1      32.999 -20.266 -19.879  0.00  0.00    -0.025 C 
ATOM     27  H   UNL     1      34.843 -22.669 -19.253  0.00  0.00    -0.079 HD
ENDBRANCH  21  22
ENDBRANCH   1  21
TORSDOF 6
ENDMDL
MODEL 2
REMARK VINA RESULT:     -10.8      1.535      4.766
REMARK  Name = 40466858
REMARK  6 active torsions:
REMARK  status: ('A' for Active; 'I' for Inactive)
REMARK    1  A    between atoms: C_1  and  C_21
REMARK    2  A    between atoms: C_2  and  C_3
REMARK    3  A    between atoms: C_2  and  C_11
REMARK    4  A    between atoms: C_14  and  C_16
REMARK    5  A    between atoms: C_17  and  C_20
REMARK    6  A    between atoms: C_21  and  N_22
REMARK                            x       y       z     vdW  Elec       q    Type
REMARK                         _______ _______ _______ _____ _____    ______ ____
ROOT
ATOM      1  C   UNL     1      34.622 -24.257 -14.634  0.00  0.00    -0.047 C 
ATOM      2  C   UNL     1      33.825 -23.367 -15.265  0.00  0.00    +0.023 C 
ENDROOT
BRANCH   2   3
ATOM      3  C   UNL     1      34.317 -22.634 -16.453  0.00  0.00    +0.002 C 
ATOM      4  C   UNL     1      35.571 -22.022 -16.427  0.00  0.00    -0.000 C 
ATOM      5  C   UNL     1      33.528 -22.557 -17.601  0.00  0.00    -0.000 C 
ATOM      6  C   UNL     1      36.035 -21.333 -17.547  0.00  0.00    -0.004 C 
ATOM      7  C   UNL     1      33.993 -21.867 -18.722  0.00  0.00    -0.004 C 
ATOM      8  C   UNL     1      35.246 -21.255 -18.694  0.00  0.00    -0.022 C 
ATOM      9  C   UNL     1      35.741 -20.518 -19.892  0.00  0.00    +0.031 C 
ENDBRANCH   2   3
BRANCH   2  11
ATOM     10  N   UNL     1      31.481 -22.970 -15.645  0.00  0.00    -0.406 NA
ATOM     11  C   UNL     1      32.453 -23.170 -14.728  0.00  0.00    +0.130 C 
ATOM     12  C   UNL     1      32.235 -23.199 -13.360  0.00  0.00    +0.028 C 
ATOM     13  C   UNL     1      30.936 -23.010 -12.904  0.00  0.00    -0.016 C 
ATOM     14  C   UNL     1      30.230 -22.791 -15.165  0.00  0.00    +0.114 C 
ATOM     15  C   UNL     1      29.908 -22.803 -13.818  0.00  0.00    +0.085 C 
BRANCH  14  16
ATOM     16  C   UNL     1      29.191 -22.577 -16.159  0.00  0.00    +0.035 C 
ATOM     17  C   UNL     1      27.940 -22.132 -15.899  0.00  0.00    +0.088 C 
BRANCH  17  20
ATOM     18  O   UNL     1      26.802 -22.922 -17.803  0.00  0.00    -0.241 OA
ATOM     19  O   UNL     1      26.246 -20.857 -17.005  0.00  0.00    -0.241 OA
ATOM     20  C   UNL     1      26.893 -21.942 -17.006  0.00  0.00    +0.388 C 
ENDBRANCH  17  20
ENDBRANCH  14  16
ENDBRANCH   2  11
BRANCH   1  21
ATOM     21  C   UNL     1      36.029 -24.643 -14.981  0.00  0.00    -0.050 C 
BRANCH  21  22
ATOM     22  N   UNL     1      36.993 -24.368 -13.872  0.00  0.00    +0.390 N 
ATOM     23  C   UNL     1      36.849 -25.305 -12.693  0.00  0.00    -0.077 C 
ATOM     24  C   UNL     1      36.941 -22.949 -13.335  0.00  0.00    -0.077 C 
ATOM     25  C   UNL     1      37.303 -24.464 -11.520  0.00  0.00    -0.025 C 
ATOM     26  C   UNL     1      36.715 -23.105 -11.842  0.00  0.00    -0.025 C 
ATOM     27  H   UNL     1      37.893 -24.521 -14.327  0.00  0.00    -0.079 HD
ENDBRANCH  21  22
ENDBRANCH   1  21
TORSDOF 6
ENDMDL
MODEL 3
REMARK VINA RESULT:     -10.1      3.642      7.508
REMARK  Name = 40466858
REMARK  6 active torsions:
REMARK  status: ('A' for Active; 'I' for Inactive)
REMARK    1  A    between atoms: C_1  and  C_21
REMARK    2  A    between atoms: C_2  and  C_3
REMARK    3  A    between atoms: C_2  and  C_11
REMARK    4  A    between atoms: C_14  and  C_16
REMARK    5  A    between atoms: C_17  and  C_20
REMARK    6  A    between atoms: C_21  and  N_22
REMARK                            x       y       z     vdW  Elec       q    Type
REMARK                         _______ _______ _______ _____ _____    ______ ____
ROOT
ATOM      1  C   UNL     1      32.834 -22.642 -16.619  0.00  0.00    -0.047 C 
ATOM      2  C   UNL     1      33.964 -22.140 -17.165  0.00  0.00    +0.023 C 
ENDROOT
BRANCH   2   3
ATOM      3  C   UNL     1      33.905 -21.368 -18.427  0.00  0.00    +0.002 C 
ATOM      4  C   UNL     1      35.084 -21.009 -19.081  0.00  0.00    -0.000 C 
ATOM      5  C   UNL     1      32.670 -21.001 -18.962  0.00  0.00    -0.000 C 
ATOM      6  C   UNL     1      35.027 -20.282 -20.270  0.00  0.00    -0.004 C 
ATOM      7  C   UNL     1      32.615 -20.274 -20.152  0.00  0.00    -0.004 C 
ATOM      8  C   UNL     1      33.793 -19.915 -20.805  0.00  0.00    -0.022 C 
ATOM      9  C   UNL     1      33.732 -19.137 -22.076  0.00  0.00    +0.031 C 
ENDBRANCH   2   3
BRANCH   2  11
ATOM     10  N   UNL     1      35.181 -23.232 -15.396  0.00  0.00    -0.406 NA
ATOM     11  C   UNL     1      35.243 -22.384 -16.447  0.00  0.00    +0.130 C 
ATOM     12  C   UNL     1      36.403 -21.755 -16.870  0.00  0.00    +0.028 C 
ATOM     13  C   UNL     1      37.576 -22.013 -16.168  0.00  0.00    -0.016 C 
ATOM     14  C   UNL     1      36.339 -23.458 -14.739  0.00  0.00    +0.114 C 
ATOM     15  C   UNL     1      37.552 -22.881 -15.081  0.00  0.00    +0.085 C 
BRANCH  14  16
ATOM     16  C   UNL     1      36.263 -24.372 -13.610  0.00  0.00    +0.035 C 
ATOM     17  C   UNL     1      36.040 -24.010 -12.326  0.00  0.00    +0.088 C 
BRANCH  17  20
ATOM     18  O   UNL     1      35.117 -24.777 -10.300  0.00  0.00    -0.241 OA
ATOM     19  O   UNL     1      36.788 -26.010 -11.248  0.00  0.00    -0.241 OA
ATOM     20  C   UNL     1      35.985 -25.037 -11.185  0.00  0.00    +0.388 C 
ENDBRANCH  17  20
ENDBRANCH  14  16
ENDBRANCH   2  11
BRANCH   1  21
ATOM     21  C   UNL     1      31.431 -22.527 -17.134  0.00  0.00    -0.050 C 
BRANCH  21  22
ATOM     22  N   UNL     1      30.419 -22.435 -16.037  0.00  0.00    +0.390 N 
ATOM     23  C   UNL     1      31.025 -22.381 -14.653  0.00  0.00    -0.077 C 
ATOM     24  C   UNL     1      29.389 -23.551 -16.041  0.00  0.00    -0.077 C 
ATOM     25  C   UNL     1      29.964 -23.018 -13.781  0.00  0.00    -0.025 C 
ATOM     26  C   UNL     1      29.462 -24.154 -14.651  0.00  0.00    -0.025 C 
ATOM     27  H   UNL     1      29.956 -21.551 -16.247  0.00  0.00    -0.079 HD
ENDBRANCH  21  22
ENDBRANCH   1  21
TORSDOF 6
ENDMDL
MODEL 4
REMARK VINA RESULT:      -9.6      4.275      7.199
REMARK  Name = 40466858
REMARK  6 active torsions:
REMARK  status: ('A' for Active; 'I' for Inactive)
REMARK    1  A    between atoms: C_1  and  C_21
REMARK    2  A    between atoms: C_2  and  C_3
REMARK    3  A    between atoms: C_2  and  C_11
REMARK    4  A    between atoms: C_14  and  C_16
REMARK    5  A    between atoms: C_17  and  C_20
REMARK    6  A    between atoms: C_21  and  N_22
REMARK                            x       y       z     vdW  Elec       q    Type
REMARK                         _______ _______ _______ _____ _____    ______ ____
ROOT
ATOM      1  C   UNL     1      33.840 -22.778 -17.074  0.00  0.00    -0.047 C 
ATOM      2  C   UNL     1      33.247 -23.102 -15.904  0.00  0.00    +0.023 C 
ENDROOT
BRANCH   2   3
ATOM      3  C   UNL     1      31.771 -23.097 -15.788  0.00  0.00    +0.002 C 
ATOM      4  C   UNL     1      31.013 -22.224 -16.569  0.00  0.00    -0.000 C 
ATOM      5  C   UNL     1      31.139 -23.967 -14.900  0.00  0.00    -0.000 C 
ATOM      6  C   UNL     1      29.622 -22.221 -16.460  0.00  0.00    -0.004 C 
ATOM      7  C   UNL     1      29.747 -23.962 -14.791  0.00  0.00    -0.004 C 
ATOM      8  C   UNL     1      28.990 -23.089 -15.572  0.00  0.00    -0.022 C 
ATOM      9  C   UNL     1      27.503 -23.085 -15.455  0.00  0.00    +0.031 C 
ENDBRANCH   2   3
BRANCH   2  11
ATOM     10  N   UNL     1      35.422 -23.710 -15.068  0.00  0.00    -0.406 NA
ATOM     11  C   UNL     1      34.127 -23.468 -14.764  0.00  0.00    +0.130 C 
ATOM     12  C   UNL     1      33.605 -23.542 -13.483  0.00  0.00    +0.028 C 
ATOM     13  C   UNL     1      34.466 -23.887 -12.447  0.00  0.00    -0.016 C 
ATOM     14  C   UNL     1      36.229 -24.043 -14.036  0.00  0.00    +0.114 C 
ATOM     15  C   UNL     1      35.805 -24.144 -12.721  0.00  0.00    +0.085 C 
BRANCH  14  16
ATOM     16  C   UNL     1      37.619 -24.303 -14.373  0.00  0.00    +0.035 C 
ATOM     17  C   UNL     1      38.464 -25.083 -13.661  0.00  0.00    +0.088 C 
BRANCH  17  20
ATOM     18  O   UNL     1      40.587 -24.226 -14.213  0.00  0.00    -0.241 OA
ATOM     19  O   UNL     1      40.309 -26.492 -14.236  0.00  0.00    -0.241 OA
ATOM     20  C   UNL     1      39.927 -25.299 -14.078  0.00  0.00    +0.388 C 
ENDBRANCH  17  20
ENDBRANCH  14  16
ENDBRANCH   2  11
BRANCH   1  21
ATOM     21  C   UNL     1      33.183 -22.388 -18.365  0.00  0.00    -0.050 C 
BRANCH  21  22
ATOM     22  N   UNL     1      33.562 -21.013 -18.812  0.00  0.00    +0.390 N 
ATOM     23  C   UNL     1      32.723 -20.492 -19.957  0.00  0.00    -0.077 C 
ATOM     24  C   UNL     1      35.020 -20.865 -19.212  0.00  0.00    -0.077 C 
ATOM     25  C   UNL     1      33.663 -19.554 -20.682  0.00  0.00    -0.025 C 
ATOM     26  C   UNL     1      34.983 -20.298 -20.619  0.00  0.00    -0.025 C 
ATOM     27  H   UNL     1      33.387 -20.459 -17.974  0.00  0.00    -0.079 HD
ENDBRANCH  21  22
ENDBRANCH   1  21
TORSDOF 6
ENDMDL
MODEL 5
REMARK VINA RESULT:      -9.5      3.300      7.240
REMARK  Name = 40466858
REMARK  6 active torsions:
REMARK  status: ('A' for Active; 'I' for Inactive)
REMARK    1  A    between atoms: C_1  and  C_21
REMARK    2  A    between atoms: C_2  and  C_3
REMARK    3  A    between atoms: C_2  and  C_11
REMARK    4  A    between atoms: C_14  and  C_16
REMARK    5  A    between atoms: C_17  and  C_20
REMARK    6  A    between atoms: C_21  and  N_22
REMARK                            x       y       z     vdW  Elec       q    Type
REMARK                         _______ _______ _______ _____ _____    ______ ____
ROOT
ATOM      1  C   UNL     1      35.448 -24.125 -15.326  0.00  0.00    -0.047 C 
ATOM      2  C   UNL     1      34.757 -23.051 -15.770  0.00  0.00    +0.023 C 
ENDROOT
BRANCH   2   3
ATOM      3  C   UNL     1      33.309 -22.928 -15.489  0.00  0.00    +0.002 C 
ATOM      4  C   UNL     1      32.392 -22.923 -16.541  0.00  0.00    -0.000 C 
ATOM      5  C   UNL     1      32.860 -22.819 -14.173  0.00  0.00    -0.000 C 
ATOM      6  C   UNL     1      31.027 -22.808 -16.277  0.00  0.00    -0.004 C 
ATOM      7  C   UNL     1      31.495 -22.703 -13.909  0.00  0.00    -0.004 C 
ATOM      8  C   UNL     1      30.579 -22.698 -14.961  0.00  0.00    -0.022 C 
ATOM      9  C   UNL     1      29.120 -22.574 -14.678  0.00  0.00    +0.031 C 
ENDBRANCH   2   3
BRANCH   2  11
ATOM     10  N   UNL     1      35.060 -21.754 -17.775  0.00  0.00    -0.406 NA
ATOM     11  C   UNL     1      35.506 -22.015 -16.526  0.00  0.00    +0.130 C 
ATOM     12  C   UNL     1      36.590 -21.380 -15.941  0.00  0.00    +0.028 C 
ATOM     13  C   UNL     1      37.260 -20.416 -16.686  0.00  0.00    -0.016 C 
ATOM     14  C   UNL     1      35.736 -20.812 -18.469  0.00  0.00    +0.114 C 
ATOM     15  C   UNL     1      36.830 -20.120 -17.976  0.00  0.00    +0.085 C 
BRANCH  14  16
ATOM     16  C   UNL     1      35.249 -20.538 -19.812  0.00  0.00    +0.035 C 
ATOM     17  C   UNL     1      35.289 -19.335 -20.429  0.00  0.00    +0.088 C 
BRANCH  17  20
ATOM     18  O   UNL     1      33.523 -19.435 -21.982  0.00  0.00    -0.241 OA
ATOM     19  O   UNL     1      35.546 -18.673 -22.712  0.00  0.00    -0.241 OA
ATOM     20  C   UNL     1      34.743 -19.125 -21.849  0.00  0.00    +0.388 C 
ENDBRANCH  17  20
ENDBRANCH  14  16
ENDBRANCH   2  11
BRANCH   1  21
ATOM     21  C   UNL     1      34.934 -25.292 -14.537  0.00  0.00    -0.050 C 
BRANCH  21  22
ATOM     22  N   UNL     1      35.865 -25.703 -13.442  0.00  0.00    +0.390 N 
ATOM     23  C   UNL     1      36.082 -24.635 -12.394  0.00  0.00    -0.077 C 
ATOM     24  C   UNL     1      37.232 -26.156 -13.922  0.00  0.00    -0.077 C 
ATOM     25  C   UNL     1      37.481 -24.919 -11.890  0.00  0.00    -0.025 C 
ATOM     26  C   UNL     1      38.220 -25.291 -13.161  0.00  0.00    -0.025 C 
ATOM     27  H   UNL     1      35.375 -26.497 -13.031  0.00  0.00    -0.079 HD
ENDBRANCH  21  22
ENDBRANCH   1  21
TORSDOF 6
ENDMDL
MODEL 6
REMARK VINA RESULT:      -9.4     13.326     17.361
REMARK  Name = 40466858
REMARK  6 active torsions:
REMARK  status: ('A' for Active; 'I' for Inactive)
REMARK    1  A    between atoms: C_1  and  C_21
REMARK    2  A    between atoms: C_2  and  C_3
REMARK    3  A    between atoms: C_2  and  C_11
REMARK    4  A    between atoms: C_14  and  C_16
REMARK    5  A    between atoms: C_17  and  C_20
REMARK    6  A    between atoms: C_21  and  N_22
REMARK                            x       y       z     vdW  Elec       q    Type
REMARK                         _______ _______ _______ _____ _____    ______ ____
ROOT
ATOM      1  C   UNL     1      32.623  -6.981 -21.266  0.00  0.00    -0.047 C 
ATOM      2  C   UNL     1      32.402  -7.707 -22.384  0.00  0.00    +0.023 C 
ENDROOT
BRANCH   2   3
ATOM      3  C   UNL     1      32.588  -7.097 -23.720  0.00  0.00    +0.002 C 
ATOM      4  C   UNL     1      31.486  -6.877 -24.547  0.00  0.00    -0.000 C 
ATOM      5  C   UNL     1      33.866  -6.740 -24.152  0.00  0.00    -0.000 C 
ATOM      6  C   UNL     1      31.662  -6.301 -25.805  0.00  0.00    -0.004 C 
ATOM      7  C   UNL     1      34.041  -6.165 -25.411  0.00  0.00    -0.004 C 
ATOM      8  C   UNL     1      32.939  -5.945 -26.237  0.00  0.00    -0.022 C 
ATOM      9  C   UNL     1      33.127  -5.330 -27.582  0.00  0.00    +0.031 C 
ENDBRANCH   2   3
BRANCH   2  11
ATOM     10  N   UNL     1      32.607 -10.024 -23.007  0.00  0.00    -0.406 NA
ATOM     11  C   UNL     1      31.985  -9.123 -22.214  0.00  0.00    +0.130 C 
ATOM     12  C   UNL     1      31.012  -9.450 -21.284  0.00  0.00    +0.028 C 
ATOM     13  C   UNL     1      30.653 -10.788 -21.159  0.00  0.00    -0.016 C 
ATOM     14  C   UNL     1      32.233 -11.314 -22.858  0.00  0.00    +0.114 C 
ATOM     15  C   UNL     1      31.272 -11.744 -21.957  0.00  0.00    +0.085 C 
BRANCH  14  16
ATOM     16  C   UNL     1      32.907 -12.276 -23.715  0.00  0.00    +0.035 C 
ATOM     17  C   UNL     1      32.724 -13.615 -23.683  0.00  0.00    +0.088 C 
BRANCH  17  20
ATOM     18  O   UNL     1      34.395 -15.235 -24.041  0.00  0.00    -0.241 OA
ATOM     19  O   UNL     1      33.130 -14.590 -25.828  0.00  0.00    -0.241 OA
ATOM     20  C   UNL     1      33.485 -14.569 -24.617  0.00  0.00    +0.388 C 
ENDBRANCH  17  20
ENDBRANCH  14  16
ENDBRANCH   2  11
BRANCH   1  21
ATOM     21  C   UNL     1      33.059  -5.549 -21.167  0.00  0.00    -0.050 C 
BRANCH  21  22
ATOM     22  N   UNL     1      31.908  -4.595 -21.157  0.00  0.00    +0.390 N 
ATOM     23  C   UNL     1      30.583  -5.242 -20.821  0.00  0.00    -0.077 C 
ATOM     24  C   UNL     1      31.723  -3.825 -22.452  0.00  0.00    -0.077 C 
ATOM     25  C   UNL     1      29.577  -4.383 -21.555  0.00  0.00    -0.025 C 
ATOM     26  C   UNL     1      30.287  -4.090 -22.863  0.00  0.00    -0.025 C 
ATOM     27  H   UNL     1      32.174  -3.946 -20.417  0.00  0.00    -0.079 HD
ENDBRANCH  21  22
ENDBRANCH   1  21
TORSDOF 6
ENDMDL
MODEL 7
REMARK VINA RESULT:      -8.9      3.642      7.069
REMARK  Name = 40466858
REMARK  6 active torsions:
REMARK  status: ('A' for Active; 'I' for Inactive)
REMARK    1  A    between atoms: C_1  and  C_21
REMARK    2  A    between atoms: C_2  and  C_3
REMARK    3  A    between atoms: C_2  and  C_11
REMARK    4  A    between atoms: C_14  and  C_16
REMARK    5  A    between atoms: C_17  and  C_20
REMARK    6  A    between atoms: C_21  and  N_22
REMARK                            x       y       z     vdW  Elec       q    Type
REMARK                         _______ _______ _______ _____ _____    ______ ____
ROOT
ATOM      1  C   UNL     1      35.573 -22.344 -15.268  0.00  0.00    -0.047 C 
ATOM      2  C   UNL     1      34.350 -22.568 -15.798  0.00  0.00    +0.023 C 
ENDROOT
BRANCH   2   3
ATOM      3  C   UNL     1      33.219 -22.961 -14.926  0.00  0.00    +0.002 C 
ATOM      4  C   UNL     1      33.296 -24.129 -14.167  0.00  0.00    -0.000 C 
ATOM      5  C   UNL     1      32.078 -22.162 -14.862  0.00  0.00    -0.000 C 
ATOM      6  C   UNL     1      32.231 -24.498 -13.345  0.00  0.00    -0.004 C 
ATOM      7  C   UNL     1      31.013 -22.532 -14.040  0.00  0.00    -0.004 C 
ATOM      8  C   UNL     1      31.090 -23.700 -13.282  0.00  0.00    -0.022 C 
ATOM      9  C   UNL     1      29.951 -24.094 -12.404  0.00  0.00    +0.031 C 
ENDBRANCH   2   3
BRANCH   2  11
ATOM     10  N   UNL     1      34.920 -21.402 -17.826  0.00  0.00    -0.406 NA
ATOM     11  C   UNL     1      34.192 -22.394 -17.265  0.00  0.00    +0.130 C 
ATOM     12  C   UNL     1      33.339 -23.226 -17.972  0.00  0.00    +0.028 C 
ATOM     13  C   UNL     1      33.223 -23.026 -19.343  0.00  0.00    -0.016 C 
ATOM     14  C   UNL     1      34.782 -21.238 -19.160  0.00  0.00    +0.114 C 
ATOM     15  C   UNL     1      33.956 -22.016 -19.957  0.00  0.00    +0.085 C 
BRANCH  14  16
ATOM     16  C   UNL     1      35.567 -20.169 -19.755  0.00  0.00    +0.035 C 
ATOM     17  C   UNL     1      35.120 -19.293 -20.683  0.00  0.00    +0.088 C 
BRANCH  17  20
ATOM     18  O   UNL     1      35.417 -17.407 -22.061  0.00  0.00    -0.241 OA
ATOM     19  O   UNL     1      37.229 -18.191 -20.915  0.00  0.00    -0.241 OA
ATOM     20  C   UNL     1      36.018 -18.195 -21.272  0.00  0.00    +0.388 C 
ENDBRANCH  17  20
ENDBRANCH  14  16
ENDBRANCH   2  11
BRANCH   1  21
ATOM     21  C   UNL     1      35.987 -22.438 -13.830  0.00  0.00    -0.050 C 
BRANCH  21  22
ATOM     22  N   UNL     1      37.137 -23.371 -13.621  0.00  0.00    +0.390 N 
ATOM     23  C   UNL     1      36.979 -24.700 -14.324  0.00  0.00    -0.077 C 
ATOM     24  C   UNL     1      37.451 -23.659 -12.164  0.00  0.00    -0.077 C 
ATOM     25  C   UNL     1      37.759 -25.655 -13.446  0.00  0.00    -0.025 C 
ATOM     26  C   UNL     1      37.419 -25.172 -12.050  0.00  0.00    -0.025 C 
ATOM     27  H   UNL     1      37.912 -22.851 -14.034  0.00  0.00    -0.079 HD
ENDBRANCH  21  22
ENDBRANCH   1  21
TORSDOF 6
ENDMDL
MODEL 8
REMARK VINA RESULT:      -8.8     13.123     17.021
REMARK  Name = 40466858
REMARK  6 active torsions:
REMARK  status: ('A' for Active; 'I' for Inactive)
REMARK    1  A    between atoms: C_1  and  C_21
REMARK    2  A    between atoms: C_2  and  C_3
REMARK    3  A    between atoms: C_2  and  C_11
REMARK    4  A    between atoms: C_14  and  C_16
REMARK    5  A    between atoms: C_17  and  C_20
REMARK    6  A    between atoms: C_21  and  N_22
REMARK                            x       y       z     vdW  Elec       q    Type
REMARK                         _______ _______ _______ _____ _____    ______ ____
ROOT
ATOM      1  C   UNL     1      33.729  -8.033 -23.622  0.00  0.00    -0.047 C 
ATOM      2  C   UNL     1      32.641  -8.193 -22.837  0.00  0.00    +0.023 C 
ENDROOT
BRANCH   2   3
ATOM      3  C   UNL     1      31.866  -7.014 -22.385  0.00  0.00    +0.002 C 
ATOM      4  C   UNL     1      32.300  -6.274 -21.285  0.00  0.00    -0.000 C 
ATOM      5  C   UNL     1      30.704  -6.643 -23.062  0.00  0.00    -0.000 C 
ATOM      6  C   UNL     1      31.571  -5.163 -20.861  0.00  0.00    -0.004 C 
ATOM      7  C   UNL     1      29.975  -5.532 -22.636  0.00  0.00    -0.004 C 
ATOM      8  C   UNL     1      30.408  -4.792 -21.536  0.00  0.00    -0.022 C 
ATOM      9  C   UNL     1      29.628  -3.605 -21.083  0.00  0.00    +0.031 C 
ENDBRANCH   2   3
BRANCH   2  11
ATOM     10  N   UNL     1      32.667 -10.554 -23.306  0.00  0.00    -0.406 NA
ATOM     11  C   UNL     1      32.257  -9.579 -22.464  0.00  0.00    +0.130 C 
ATOM     12  C   UNL     1      31.523  -9.808 -21.311  0.00  0.00    +0.028 C 
ATOM     13  C   UNL     1      31.188 -11.121 -21.002  0.00  0.00    -0.016 C 
ATOM     14  C   UNL     1      32.322 -11.818 -22.974  0.00  0.00    +0.114 C 
ATOM     15  C   UNL     1      31.592 -12.152 -21.845  0.00  0.00    +0.085 C 
BRANCH  14  16
ATOM     16  C   UNL     1      32.767 -12.860 -23.886  0.00  0.00    +0.035 C 
ATOM     17  C   UNL     1      33.144 -14.107 -23.523  0.00  0.00    +0.088 C 
BRANCH  17  20
ATOM     18  O   UNL     1      33.208 -14.932 -25.728  0.00  0.00    -0.241 OA
ATOM     19  O   UNL     1      34.339 -16.091 -24.120  0.00  0.00    -0.241 OA
ATOM     20  C   UNL     1      33.614 -15.150 -24.548  0.00  0.00    +0.388 C 
ENDBRANCH  17  20
ENDBRANCH  14  16
ENDBRANCH   2  11
BRANCH   1  21
ATOM     21  C   UNL     1      34.311  -6.753 -24.143  0.00  0.00    -0.050 C 
BRANCH  21  22
ATOM     22  N   UNL     1      33.974  -6.508 -25.578  0.00  0.00    +0.390 N 
ATOM     23  C   UNL     1      34.932  -5.570 -26.278  0.00  0.00    -0.077 C 
ATOM     24  C   UNL     1      32.569  -5.981 -25.809  0.00  0.00    -0.077 C 
ATOM     25  C   UNL     1      34.070  -4.915 -27.336  0.00  0.00    -0.025 C 
ATOM     26  C   UNL     1      32.757  -4.704 -26.608  0.00  0.00    -0.025 C 
ATOM     27  H   UNL     1      34.051  -7.443 -25.979  0.00  0.00    -0.079 HD
ENDBRANCH  21  22
ENDBRANCH   1  21
TORSDOF 6
ENDMDL
MODEL 9
REMARK VINA RESULT:      -8.7      2.633      5.576
REMARK  Name = 40466858
REMARK  6 active torsions:
REMARK  status: ('A' for Active; 'I' for Inactive)
REMARK    1  A    between atoms: C_1  and  C_21
REMARK    2  A    between atoms: C_2  and  C_3
REMARK    3  A    between atoms: C_2  and  C_11
REMARK    4  A    between atoms: C_14  and  C_16
REMARK    5  A    between atoms: C_17  and  C_20
REMARK    6  A    between atoms: C_21  and  N_22
REMARK                            x       y       z     vdW  Elec       q    Type
REMARK                         _______ _______ _______ _____ _____    ______ ____
ROOT
ATOM      1  C   UNL     1      32.920 -23.308 -15.299  0.00  0.00    -0.047 C 
ATOM      2  C   UNL     1      34.270 -23.234 -15.295  0.00  0.00    +0.023 C 
ENDROOT
BRANCH   2   3
ATOM      3  C   UNL     1      35.054 -23.953 -14.266  0.00  0.00    +0.002 C 
ATOM      4  C   UNL     1      35.748 -25.116 -14.603  0.00  0.00    -0.000 C 
ATOM      5  C   UNL     1      35.100 -23.467 -12.959  0.00  0.00    -0.000 C 
ATOM      6  C   UNL     1      36.488 -25.792 -13.633  0.00  0.00    -0.004 C 
ATOM      7  C   UNL     1      35.840 -24.145 -11.989  0.00  0.00    -0.004 C 
ATOM      8  C   UNL     1      36.533 -25.307 -12.326  0.00  0.00    -0.022 C 
ATOM      9  C   UNL     1      37.323 -26.030 -11.289  0.00  0.00    +0.031 C 
ENDBRANCH   2   3
BRANCH   2  11
ATOM     10  N   UNL     1      34.132 -22.082 -17.405  0.00  0.00    -0.406 NA
ATOM     11  C   UNL     1      34.918 -22.424 -16.360  0.00  0.00    +0.130 C 
ATOM     12  C   UNL     1      36.251 -22.065 -16.240  0.00  0.00    +0.028 C 
ATOM     13  C   UNL     1      36.815 -21.307 -17.260  0.00  0.00    -0.016 C 
ATOM     14  C   UNL     1      34.715 -21.345 -18.377  0.00  0.00    +0.114 C 
ATOM     15  C   UNL     1      36.038 -20.935 -18.352  0.00  0.00    +0.085 C 
BRANCH  14  16
ATOM     16  C   UNL     1      33.863 -20.982 -19.498  0.00  0.00    +0.035 C 
ATOM     17  C   UNL     1      34.034 -19.901 -20.292  0.00  0.00    +0.088 C 
BRANCH  17  20
ATOM     18  O   UNL     1      33.655 -19.085 -22.468  0.00  0.00    -0.241 OA
ATOM     19  O   UNL     1      31.857 -19.835 -21.279  0.00  0.00    -0.241 OA
ATOM     20  C   UNL     1      33.081 -19.578 -21.453  0.00  0.00    +0.388 C 
ENDBRANCH  17  20
ENDBRANCH  14  16
ENDBRANCH   2  11
BRANCH   1  21
ATOM     21  C   UNL     1      32.035 -24.061 -14.351  0.00  0.00    -0.050 C 
BRANCH  21  22
ATOM     22  N   UNL     1      30.639 -23.526 -14.317  0.00  0.00    +0.390 N 
ATOM     23  C   UNL     1      29.580 -24.572 -14.586  0.00  0.00    -0.077 C 
ATOM     24  C   UNL     1      30.389 -22.369 -15.268  0.00  0.00    -0.077 C 
ATOM     25  C   UNL     1      28.457 -23.778 -15.218  0.00  0.00    -0.025 C 
ATOM     26  C   UNL     1      29.202 -22.804 -16.108  0.00  0.00    -0.025 C 
ATOM     27  H   UNL     1      30.560 -23.193 -13.357  0.00  0.00    -0.079 HD
ENDBRANCH  21  22
ENDBRANCH   1  21
TORSDOF 6
ENDMDL
