MODEL 1
REMARK VINA RESULT:     -11.8      0.000      0.000
REMARK  Name = 25113171
REMARK  6 active torsions:
REMARK  status: ('A' for Active; 'I' for Inactive)
REMARK    1  A    between atoms: N_1  and  C_28
REMARK    2  A    between atoms: N_2  and  C_16
REMARK    3  A    between atoms: C_17  and  C_24
REMARK    4  A    between atoms: C_27  and  C_35
REMARK    5  A    between atoms: C_30  and  O_33
REMARK    6  A    between atoms: C_35  and  S_36
REMARK                            x       y       z     vdW  Elec       q    Type
REMARK                         _______ _______ _______ _____ _____    ______ ____
ROOT
ATOM      1  N   UNL     1      33.225 -24.421 -13.324  0.00  0.00    -0.235 N 
ATOM      2  N   UNL     1      32.340 -22.006 -17.291  0.00  0.00    -0.290 N 
ATOM      3  N   UNL     1      28.778 -23.547 -14.702  0.00  0.00    -0.289 N 
ATOM      4  N   UNL     1      32.763 -23.228 -15.283  0.00  0.00    -0.316 NA
ATOM      5  N   UNL     1      30.976 -24.075 -13.863  0.00  0.00    -0.316 NA
ATOM      6  C   UNL     1      30.509 -22.828 -15.912  0.00  0.00    +0.159 C 
ATOM      7  C   UNL     1      31.876 -22.693 -16.154  0.00  0.00    +0.186 C 
ATOM      8  C   UNL     1      30.146 -23.521 -14.764  0.00  0.00    +0.186 C 
ATOM      9  C   UNL     1      32.265 -23.877 -14.207  0.00  0.00    +0.205 C 
ATOM     10  C   UNL     1      29.309 -22.429 -16.552  0.00  0.00    +0.006 C 
ATOM     11  C   UNL     1      28.258 -22.884 -15.784  0.00  0.00    +0.060 C 
ATOM     12  H   UNL     1      32.832 -24.887 -12.550  0.00  0.00    +0.166 HD
ATOM     13  H   UNL     1      31.620 -21.653 -17.860  0.00  0.00    +0.154 HD
ATOM     14  H   UNL     1      28.249 -23.975 -13.991  0.00  0.00    +0.154 HD
ENDROOT
BRANCH   2  16
ATOM     15  F   UNL     1      35.295 -20.283 -20.682  0.00  0.00    -0.204 F 
ATOM     16  C   UNL     1      33.635 -21.723 -17.776  0.00  0.00    +0.056 C 
ATOM     17  C   UNL     1      33.818 -21.128 -19.024  0.00  0.00    +0.094 C 
ATOM     18  C   UNL     1      34.740 -22.049 -16.990  0.00  0.00    +0.015 C 
ATOM     19  C   UNL     1      35.106 -20.857 -19.485  0.00  0.00    +0.146 C 
ATOM     20  C   UNL     1      36.028 -21.778 -17.451  0.00  0.00    +0.004 C 
ATOM     21  C   UNL     1      36.211 -21.182 -18.698  0.00  0.00    +0.030 C 
BRANCH  17  24
ATOM     22  O   UNL     1      31.707 -21.537 -19.985  0.00  0.00    -0.270 OA
ATOM     23  N   UNL     1      32.718 -19.549 -20.518  0.00  0.00    -0.325 N 
ATOM     24  C   UNL     1      32.681 -20.777 -19.866  0.00  0.00    +0.246 C 
ATOM     25  H   UNL     1      31.968 -19.276 -21.096  0.00  0.00    +0.145 HD
ATOM     26  H   UNL     1      33.492 -18.952 -20.401  0.00  0.00    +0.145 HD
ENDBRANCH  17  24
ENDBRANCH   2  16
BRANCH   1  28
ATOM     27  C   UNL     1      37.420 -24.434 -13.383  0.00  0.00    +0.004 C 
ATOM     28  C   UNL     1      34.631 -24.426 -13.334  0.00  0.00    +0.092 C 
ATOM     29  C   UNL     1      36.744 -24.488 -12.164  0.00  0.00    +0.036 C 
ATOM     30  C   UNL     1      35.349 -24.483 -12.139  0.00  0.00    +0.152 C 
ATOM     31  C   UNL     1      36.702 -24.376 -14.577  0.00  0.00    -0.001 C 
ATOM     32  C   UNL     1      35.307 -24.373 -14.553  0.00  0.00    +0.018 C 
BRANCH  30  33
ATOM     33  O   UNL     1      34.707 -24.537 -10.938  0.00  0.00    -0.470 OA
ATOM     34  C   UNL     1      35.332 -23.875  -9.840  0.00  0.00    +0.253 C 
ENDBRANCH  30  33
BRANCH  27  35
ATOM     35  C   UNL     1      38.912 -24.440 -13.409  0.00  0.00    +0.177 C 
BRANCH  35  36
ATOM     36  S   UNL     1      39.431 -25.799 -14.406  0.00  0.00    -0.004 S 
ATOM     37  O   UNL     1      38.404 -26.825 -14.350  0.00  0.00    -0.173 OA
ATOM     38  O   UNL     1      39.886 -25.279 -15.685  0.00  0.00    -0.173 OA
ATOM     39  C   UNL     1      40.856 -26.421 -13.543  0.00  0.00    +0.176 C 
ENDBRANCH  35  36
ENDBRANCH  27  35
ENDBRANCH   1  28
TORSDOF 6
ENDMDL
MODEL 2
REMARK VINA RESULT:     -11.0      3.225      6.942
REMARK  Name = 25113171
REMARK  6 active torsions:
REMARK  status: ('A' for Active; 'I' for Inactive)
REMARK    1  A    between atoms: N_1  and  C_28
REMARK    2  A    between atoms: N_2  and  C_16
REMARK    3  A    between atoms: C_17  and  C_24
REMARK    4  A    between atoms: C_27  and  C_35
REMARK    5  A    between atoms: C_30  and  O_33
REMARK    6  A    between atoms: C_35  and  S_36
REMARK                            x       y       z     vdW  Elec       q    Type
REMARK                         _______ _______ _______ _____ _____    ______ ____
ROOT
ATOM      1  N   UNL     1      31.461 -21.777 -18.114  0.00  0.00    -0.235 N 
ATOM      2  N   UNL     1      34.152 -23.349 -14.560  0.00  0.00    -0.290 N 
ATOM      3  N   UNL     1      29.512 -23.732 -14.265  0.00  0.00    -0.289 N 
ATOM      4  N   UNL     1      32.773 -22.562 -16.343  0.00  0.00    -0.316 NA
ATOM      5  N   UNL     1      30.343 -22.714 -16.287  0.00  0.00    -0.316 NA
ATOM      6  C   UNL     1      31.727 -23.530 -14.445  0.00  0.00    +0.159 C 
ATOM      7  C   UNL     1      32.880 -23.143 -15.125  0.00  0.00    +0.186 C 
ATOM      8  C   UNL     1      30.516 -23.286 -15.082  0.00  0.00    +0.186 C 
ATOM      9  C   UNL     1      31.528 -22.387 -16.841  0.00  0.00    +0.205 C 
ATOM     10  C   UNL     1      31.424 -24.145 -13.203  0.00  0.00    +0.006 C 
ATOM     11  C   UNL     1      30.052 -24.257 -13.120  0.00  0.00    +0.060 C 
ATOM     12  H   UNL     1      30.542 -21.662 -18.451  0.00  0.00    +0.166 HD
ATOM     13  H   UNL     1      34.126 -23.778 -13.675  0.00  0.00    +0.154 HD
ATOM     14  H   UNL     1      28.550 -23.683 -14.468  0.00  0.00    +0.154 HD
ENDROOT
BRANCH   2  16
ATOM     15  F   UNL     1      38.866 -24.320 -14.732  0.00  0.00    -0.204 F 
ATOM     16  C   UNL     1      35.458 -23.064 -15.011  0.00  0.00    +0.056 C 
ATOM     17  C   UNL     1      36.538 -23.860 -14.631  0.00  0.00    +0.094 C 
ATOM     18  C   UNL     1      35.662 -21.965 -15.846  0.00  0.00    +0.015 C 
ATOM     19  C   UNL     1      37.821 -23.560 -15.088  0.00  0.00    +0.146 C 
ATOM     20  C   UNL     1      36.945 -21.665 -16.303  0.00  0.00    +0.004 C 
ATOM     21  C   UNL     1      38.025 -22.462 -15.924  0.00  0.00    +0.030 C 
BRANCH  17  24
ATOM     22  O   UNL     1      36.240 -24.883 -12.530  0.00  0.00    -0.270 OA
ATOM     23  N   UNL     1      36.290 -26.269 -14.356  0.00  0.00    -0.325 N 
ATOM     24  C   UNL     1      36.353 -25.014 -13.759  0.00  0.00    +0.246 C 
ATOM     25  H   UNL     1      36.166 -27.072 -13.801  0.00  0.00    +0.145 HD
ATOM     26  H   UNL     1      36.368 -26.353 -15.334  0.00  0.00    +0.145 HD
ENDBRANCH  17  24
ENDBRANCH   2  16
BRANCH   1  28
ATOM     27  C   UNL     1      34.393 -20.334 -20.746  0.00  0.00    +0.004 C 
ATOM     28  C   UNL     1      32.449 -21.302 -18.995  0.00  0.00    +0.092 C 
ATOM     29  C   UNL     1      34.550 -21.586 -20.152  0.00  0.00    +0.036 C 
ATOM     30  C   UNL     1      33.578 -22.070 -19.277  0.00  0.00    +0.152 C 
ATOM     31  C   UNL     1      33.264 -19.564 -20.463  0.00  0.00    -0.001 C 
ATOM     32  C   UNL     1      32.292 -20.049 -19.588  0.00  0.00    +0.018 C 
BRANCH  30  33
ATOM     33  O   UNL     1      33.750 -23.297 -18.708  0.00  0.00    -0.470 OA
ATOM     34  C   UNL     1      33.477 -24.433 -19.527  0.00  0.00    +0.253 C 
ENDBRANCH  30  33
BRANCH  27  35
ATOM     35  C   UNL     1      35.432 -19.816 -21.683  0.00  0.00    +0.177 C 
BRANCH  35  36
ATOM     36  S   UNL     1      36.233 -18.451 -20.904  0.00  0.00    -0.004 S 
ATOM     37  O   UNL     1      36.442 -18.783 -19.505  0.00  0.00    -0.173 OA
ATOM     38  O   UNL     1      37.348 -18.039 -21.740  0.00  0.00    -0.173 OA
ATOM     39  C   UNL     1      35.008 -17.163 -20.971  0.00  0.00    +0.176 C 
ENDBRANCH  35  36
ENDBRANCH  27  35
ENDBRANCH   1  28
TORSDOF 6
ENDMDL
MODEL 3
REMARK VINA RESULT:     -10.4      1.226      1.758
REMARK  Name = 25113171
REMARK  6 active torsions:
REMARK  status: ('A' for Active; 'I' for Inactive)
REMARK    1  A    between atoms: N_1  and  C_28
REMARK    2  A    between atoms: N_2  and  C_16
REMARK    3  A    between atoms: C_17  and  C_24
REMARK    4  A    between atoms: C_27  and  C_35
REMARK    5  A    between atoms: C_30  and  O_33
REMARK    6  A    between atoms: C_35  and  S_36
REMARK                            x       y       z     vdW  Elec       q    Type
REMARK                         _______ _______ _______ _____ _____    ______ ____
ROOT
ATOM      1  N   UNL     1      33.353 -24.393 -12.871  0.00  0.00    -0.235 N 
ATOM      2  N   UNL     1      32.529 -22.287 -17.022  0.00  0.00    -0.290 N 
ATOM      3  N   UNL     1      28.948 -23.998 -14.569  0.00  0.00    -0.289 N 
ATOM      4  N   UNL     1      32.921 -23.355 -14.923  0.00  0.00    -0.316 NA
ATOM      5  N   UNL     1      31.123 -24.280 -13.567  0.00  0.00    -0.316 NA
ATOM      6  C   UNL     1      30.688 -23.193 -15.711  0.00  0.00    +0.159 C 
ATOM      7  C   UNL     1      32.051 -22.949 -15.877  0.00  0.00    +0.186 C 
ATOM      8  C   UNL     1      30.310 -23.853 -14.548  0.00  0.00    +0.186 C 
ATOM      9  C   UNL     1      32.410 -23.986 -13.842  0.00  0.00    +0.205 C 
ATOM     10  C   UNL     1      29.502 -22.938 -16.447  0.00  0.00    +0.006 C 
ATOM     11  C   UNL     1      28.446 -23.444 -15.718  0.00  0.00    +0.060 C 
ATOM     12  H   UNL     1      32.951 -24.850 -12.096  0.00  0.00    +0.166 HD
ATOM     13  H   UNL     1      31.820 -22.031 -17.655  0.00  0.00    +0.154 HD
ATOM     14  H   UNL     1      28.412 -24.432 -13.867  0.00  0.00    +0.154 HD
ENDROOT
BRANCH   2  16
ATOM     15  F   UNL     1      35.527 -20.388 -20.278  0.00  0.00    -0.204 F 
ATOM     16  C   UNL     1      33.823 -21.916 -17.444  0.00  0.00    +0.056 C 
ATOM     17  C   UNL     1      34.029 -21.321 -18.688  0.00  0.00    +0.094 C 
ATOM     18  C   UNL     1      34.906 -22.154 -16.597  0.00  0.00    +0.015 C 
ATOM     19  C   UNL     1      35.317 -20.962 -19.085  0.00  0.00    +0.146 C 
ATOM     20  C   UNL     1      36.194 -21.795 -16.994  0.00  0.00    +0.004 C 
ATOM     21  C   UNL     1      36.400 -21.200 -18.238  0.00  0.00    +0.030 C 
BRANCH  17  24
ATOM     22  O   UNL     1      32.008 -21.891 -19.754  0.00  0.00    -0.270 OA
ATOM     23  N   UNL     1      32.898 -19.838 -20.255  0.00  0.00    -0.325 N 
ATOM     24  C   UNL     1      32.916 -21.061 -19.593  0.00  0.00    +0.246 C 
ATOM     25  H   UNL     1      32.162 -19.625 -20.874  0.00  0.00    +0.145 HD
ATOM     26  H   UNL     1      33.619 -19.185 -20.105  0.00  0.00    +0.145 HD
ENDBRANCH  17  24
ENDBRANCH   2  16
BRANCH   1  28
ATOM     27  C   UNL     1      37.524 -24.017 -12.618  0.00  0.00    +0.004 C 
ATOM     28  C   UNL     1      34.751 -24.273 -12.794  0.00  0.00    +0.092 C 
ATOM     29  C   UNL     1      36.961 -24.873 -13.564  0.00  0.00    +0.036 C 
ATOM     30  C   UNL     1      35.575 -25.002 -13.652  0.00  0.00    +0.152 C 
ATOM     31  C   UNL     1      36.700 -23.288 -11.759  0.00  0.00    -0.001 C 
ATOM     32  C   UNL     1      35.314 -23.416 -11.848  0.00  0.00    +0.018 C 
BRANCH  30  33
ATOM     33  O   UNL     1      35.045 -25.844 -14.584  0.00  0.00    -0.470 OA
ATOM     34  C   UNL     1      35.964 -26.604 -15.366  0.00  0.00    +0.253 C 
ENDBRANCH  30  33
BRANCH  27  35
ATOM     35  C   UNL     1      39.006 -23.878 -12.524  0.00  0.00    +0.177 C 
BRANCH  35  36
ATOM     36  S   UNL     1      39.676 -24.111 -14.139  0.00  0.00    -0.004 S 
ATOM     37  O   UNL     1      38.725 -23.588 -15.106  0.00  0.00    -0.173 OA
ATOM     38  O   UNL     1      41.053 -23.648 -14.133  0.00  0.00    -0.173 OA
ATOM     39  C   UNL     1      39.706 -25.880 -14.320  0.00  0.00    +0.176 C 
ENDBRANCH  35  36
ENDBRANCH  27  35
ENDBRANCH   1  28
TORSDOF 6
ENDMDL
MODEL 4
REMARK VINA RESULT:     -10.4      2.900      5.581
REMARK  Name = 25113171
REMARK  6 active torsions:
REMARK  status: ('A' for Active; 'I' for Inactive)
REMARK    1  A    between atoms: N_1  and  C_28
REMARK    2  A    between atoms: N_2  and  C_16
REMARK    3  A    between atoms: C_17  and  C_24
REMARK    4  A    between atoms: C_27  and  C_35
REMARK    5  A    between atoms: C_30  and  O_33
REMARK    6  A    between atoms: C_35  and  S_36
REMARK                            x       y       z     vdW  Elec       q    Type
REMARK                         _______ _______ _______ _____ _____    ______ ____
ROOT
ATOM      1  N   UNL     1      36.446 -22.430 -16.058  0.00  0.00    -0.235 N 
ATOM      2  N   UNL     1      31.776 -22.556 -16.782  0.00  0.00    -0.290 N 
ATOM      3  N   UNL     1      34.557 -20.744 -20.061  0.00  0.00    -0.289 N 
ATOM      4  N   UNL     1      34.138 -22.482 -16.438  0.00  0.00    -0.316 NA
ATOM      5  N   UNL     1      35.674 -21.557 -18.085  0.00  0.00    -0.316 NA
ATOM      6  C   UNL     1      33.262 -21.619 -18.468  0.00  0.00    +0.159 C 
ATOM      7  C   UNL     1      33.068 -22.219 -17.225  0.00  0.00    +0.186 C 
ATOM      8  C   UNL     1      34.573 -21.323 -18.820  0.00  0.00    +0.186 C 
ATOM      9  C   UNL     1      35.358 -22.139 -16.911  0.00  0.00    +0.205 C 
ATOM     10  C   UNL     1      32.440 -21.197 -19.544  0.00  0.00    +0.006 C 
ATOM     11  C   UNL     1      33.264 -20.664 -20.512  0.00  0.00    +0.060 C 
ATOM     12  H   UNL     1      37.321 -22.169 -16.429  0.00  0.00    +0.166 HD
ATOM     13  H   UNL     1      31.067 -22.327 -17.425  0.00  0.00    +0.154 HD
ATOM     14  H   UNL     1      35.350 -20.434 -20.554  0.00  0.00    +0.154 HD
ENDROOT
BRANCH   2  16
ATOM     15  F   UNL     1      28.163 -24.115 -14.005  0.00  0.00    -0.204 F 
ATOM     16  C   UNL     1      31.296 -23.156 -15.599  0.00  0.00    +0.056 C 
ATOM     17  C   UNL     1      29.928 -23.337 -15.392  0.00  0.00    +0.094 C 
ATOM     18  C   UNL     1      32.209 -23.570 -14.629  0.00  0.00    +0.015 C 
ATOM     19  C   UNL     1      29.474 -23.933 -14.216  0.00  0.00    +0.146 C 
ATOM     20  C   UNL     1      31.755 -24.166 -13.453  0.00  0.00    +0.004 C 
ATOM     21  C   UNL     1      30.388 -24.347 -13.246  0.00  0.00    +0.030 C 
BRANCH  17  24
ATOM     22  O   UNL     1      28.988 -21.778 -16.887  0.00  0.00    -0.270 OA
ATOM     23  N   UNL     1      27.988 -23.839 -16.777  0.00  0.00    -0.325 N 
ATOM     24  C   UNL     1      28.952 -22.915 -16.389  0.00  0.00    +0.246 C 
ATOM     25  H   UNL     1      27.311 -23.591 -17.448  0.00  0.00    +0.145 HD
ATOM     26  H   UNL     1      27.982 -24.740 -16.382  0.00  0.00    +0.145 HD
ENDBRANCH  17  24
ENDBRANCH   2  16
BRANCH   1  28
ATOM     27  C   UNL     1      36.689 -24.161 -12.244  0.00  0.00    +0.004 C 
ATOM     28  C   UNL     1      36.525 -23.019 -14.784  0.00  0.00    +0.092 C 
ATOM     29  C   UNL     1      36.340 -24.948 -13.341  0.00  0.00    +0.036 C 
ATOM     30  C   UNL     1      36.257 -24.377 -14.611  0.00  0.00    +0.152 C 
ATOM     31  C   UNL     1      36.956 -22.803 -12.416  0.00  0.00    -0.001 C 
ATOM     32  C   UNL     1      36.875 -22.232 -13.686  0.00  0.00    +0.018 C 
BRANCH  30  33
ATOM     33  O   UNL     1      35.915 -25.163 -15.671  0.00  0.00    -0.470 OA
ATOM     34  C   UNL     1      36.081 -26.571 -15.512  0.00  0.00    +0.253 C 
ENDBRANCH  30  33
BRANCH  27  35
ATOM     35  C   UNL     1      36.778 -24.771 -10.885  0.00  0.00    +0.177 C 
BRANCH  35  36
ATOM     36  S   UNL     1      35.540 -24.027  -9.874  0.00  0.00    -0.004 S 
ATOM     37  O   UNL     1      34.861 -25.079  -9.136  0.00  0.00    -0.173 OA
ATOM     38  O   UNL     1      36.136 -22.901  -9.176  0.00  0.00    -0.173 OA
ATOM     39  C   UNL     1      34.383 -23.372 -11.056  0.00  0.00    +0.176 C 
ENDBRANCH  35  36
ENDBRANCH  27  35
ENDBRANCH   1  28
TORSDOF 6
ENDMDL
MODEL 5
REMARK VINA RESULT:      -9.1      3.676      7.885
REMARK  Name = 25113171
REMARK  6 active torsions:
REMARK  status: ('A' for Active; 'I' for Inactive)
REMARK    1  A    between atoms: N_1  and  C_28
REMARK    2  A    between atoms: N_2  and  C_16
REMARK    3  A    between atoms: C_17  and  C_24
REMARK    4  A    between atoms: C_27  and  C_35
REMARK    5  A    between atoms: C_30  and  O_33
REMARK    6  A    between atoms: C_35  and  S_36
REMARK                            x       y       z     vdW  Elec       q    Type
REMARK                         _______ _______ _______ _____ _____    ______ ____
ROOT
ATOM      1  N   UNL     1      36.679 -21.754 -17.143  0.00  0.00    -0.235 N 
ATOM      2  N   UNL     1      33.156 -23.278 -14.384  0.00  0.00    -0.290 N 
ATOM      3  N   UNL     1      37.574 -23.996 -13.068  0.00  0.00    -0.289 N 
ATOM      4  N   UNL     1      34.952 -22.516 -15.761  0.00  0.00    -0.316 NA
ATOM      5  N   UNL     1      37.290 -22.842 -15.166  0.00  0.00    -0.316 NA
ATOM      6  C   UNL     1      35.475 -23.633 -13.733  0.00  0.00    +0.159 C 
ATOM      7  C   UNL     1      34.534 -23.138 -14.634  0.00  0.00    +0.186 C 
ATOM      8  C   UNL     1      36.812 -23.448 -14.065  0.00  0.00    +0.186 C 
ATOM      9  C   UNL     1      36.286 -22.408 -15.954  0.00  0.00    +0.205 C 
ATOM     10  C   UNL     1      35.449 -24.316 -12.490  0.00  0.00    +0.006 C 
ATOM     11  C   UNL     1      36.755 -24.525 -12.104  0.00  0.00    +0.060 C 
ATOM     12  H   UNL     1      37.656 -21.690 -17.256  0.00  0.00    +0.166 HD
ATOM     13  H   UNL     1      32.954 -23.742 -13.540  0.00  0.00    +0.154 HD
ATOM     14  H   UNL     1      38.558 -24.007 -13.045  0.00  0.00    +0.154 HD
ENDROOT
BRANCH   2  16
ATOM     15  F   UNL     1      28.388 -22.694 -14.733  0.00  0.00    -0.204 F 
ATOM     16  C   UNL     1      32.008 -22.885 -15.103  0.00  0.00    +0.056 C 
ATOM     17  C   UNL     1      30.737 -22.992 -14.538  0.00  0.00    +0.094 C 
ATOM     18  C   UNL     1      32.155 -22.385 -16.397  0.00  0.00    +0.015 C 
ATOM     19  C   UNL     1      29.615 -22.598 -15.266  0.00  0.00    +0.146 C 
ATOM     20  C   UNL     1      31.033 -21.991 -17.125  0.00  0.00    +0.004 C 
ATOM     21  C   UNL     1      29.763 -22.098 -16.560  0.00  0.00    +0.030 C 
BRANCH  17  24
ATOM     22  O   UNL     1      30.890 -22.851 -12.192  0.00  0.00    -0.270 OA
ATOM     23  N   UNL     1      29.969 -24.766 -13.055  0.00  0.00    -0.325 N 
ATOM     24  C   UNL     1      30.553 -23.511 -13.188  0.00  0.00    +0.246 C 
ATOM     25  H   UNL     1      29.828 -25.150 -12.159  0.00  0.00    +0.145 HD
ATOM     26  H   UNL     1      29.696 -25.270 -13.855  0.00  0.00    +0.145 HD
ENDBRANCH  17  24
ENDBRANCH   2  16
BRANCH   1  28
ATOM     27  C   UNL     1      34.523 -20.004 -20.288  0.00  0.00    +0.004 C 
ATOM     28  C   UNL     1      35.950 -21.174 -18.196  0.00  0.00    +0.092 C 
ATOM     29  C   UNL     1      34.071 -21.192 -19.715  0.00  0.00    +0.036 C 
ATOM     30  C   UNL     1      34.785 -21.778 -18.670  0.00  0.00    +0.152 C 
ATOM     31  C   UNL     1      35.689 -19.400 -19.816  0.00  0.00    -0.001 C 
ATOM     32  C   UNL     1      36.402 -19.986 -18.769  0.00  0.00    +0.018 C 
BRANCH  30  33
ATOM     33  O   UNL     1      34.325 -22.939 -18.122  0.00  0.00    -0.470 OA
ATOM     34  C   UNL     1      33.560 -23.795 -18.968  0.00  0.00    +0.253 C 
ENDBRANCH  30  33
BRANCH  27  35
ATOM     35  C   UNL     1      33.760 -19.376 -21.406  0.00  0.00    +0.177 C 
BRANCH  35  36
ATOM     36  S   UNL     1      34.741 -18.068 -22.065  0.00  0.00    -0.004 S 
ATOM     37  O   UNL     1      34.632 -16.923 -21.176  0.00  0.00    -0.173 OA
ATOM     38  O   UNL     1      36.044 -18.607 -22.418  0.00  0.00    -0.173 OA
ATOM     39  C   UNL     1      33.907 -17.650 -23.580  0.00  0.00    +0.176 C 
ENDBRANCH  35  36
ENDBRANCH  27  35
ENDBRANCH   1  28
TORSDOF 6
ENDMDL
MODEL 6
REMARK VINA RESULT:      -9.1      3.836      7.795
REMARK  Name = 25113171
REMARK  6 active torsions:
REMARK  status: ('A' for Active; 'I' for Inactive)
REMARK    1  A    between atoms: N_1  and  C_28
REMARK    2  A    between atoms: N_2  and  C_16
REMARK    3  A    between atoms: C_17  and  C_24
REMARK    4  A    between atoms: C_27  and  C_35
REMARK    5  A    between atoms: C_30  and  O_33
REMARK    6  A    between atoms: C_35  and  S_36
REMARK                            x       y       z     vdW  Elec       q    Type
REMARK                         _______ _______ _______ _____ _____    ______ ____
ROOT
ATOM      1  N   UNL     1      36.772 -21.822 -16.763  0.00  0.00    -0.235 N 
ATOM      2  N   UNL     1      33.129 -23.418 -14.207  0.00  0.00    -0.290 N 
ATOM      3  N   UNL     1      37.478 -24.040 -12.637  0.00  0.00    -0.289 N 
ATOM      4  N   UNL     1      34.984 -22.620 -15.481  0.00  0.00    -0.316 NA
ATOM      5  N   UNL     1      37.291 -22.894 -14.751  0.00  0.00    -0.316 NA
ATOM      6  C   UNL     1      35.414 -23.722 -13.423  0.00  0.00    +0.159 C 
ATOM      7  C   UNL     1      34.515 -23.250 -14.378  0.00  0.00    +0.186 C 
ATOM      8  C   UNL     1      36.763 -23.509 -13.678  0.00  0.00    +0.186 C 
ATOM      9  C   UNL     1      36.324 -22.484 -15.597  0.00  0.00    +0.205 C 
ATOM     10  C   UNL     1      35.330 -24.405 -12.183  0.00  0.00    +0.006 C 
ATOM     11  C   UNL     1      36.616 -24.585 -11.721  0.00  0.00    +0.060 C 
ATOM     12  H   UNL     1      37.752 -21.738 -16.819  0.00  0.00    +0.166 HD
ATOM     13  H   UNL     1      32.888 -23.885 -13.375  0.00  0.00    +0.154 HD
ATOM     14  H   UNL     1      38.459 -24.030 -12.558  0.00  0.00    +0.154 HD
ENDROOT
BRANCH   2  16
ATOM     15  F   UNL     1      28.388 -22.793 -14.780  0.00  0.00    -0.204 F 
ATOM     16  C   UNL     1      32.016 -23.051 -14.993  0.00  0.00    +0.056 C 
ATOM     17  C   UNL     1      30.722 -23.110 -14.474  0.00  0.00    +0.094 C 
ATOM     18  C   UNL     1      32.222 -22.626 -16.305  0.00  0.00    +0.015 C 
ATOM     19  C   UNL     1      29.636 -22.742 -15.267  0.00  0.00    +0.146 C 
ATOM     20  C   UNL     1      31.135 -22.258 -17.098  0.00  0.00    +0.004 C 
ATOM     21  C   UNL     1      29.842 -22.316 -16.580  0.00  0.00    +0.030 C 
BRANCH  17  24
ATOM     22  O   UNL     1      30.781 -22.839 -12.135  0.00  0.00    -0.270 OA
ATOM     23  N   UNL     1      29.874 -24.791 -12.928  0.00  0.00    -0.325 N 
ATOM     24  C   UNL     1      30.478 -23.551 -13.106  0.00  0.00    +0.246 C 
ATOM     25  H   UNL     1      29.692 -25.123 -12.019  0.00  0.00    +0.145 HD
ATOM     26  H   UNL     1      29.628 -25.336 -13.709  0.00  0.00    +0.145 HD
ENDBRANCH  17  24
ENDBRANCH   2  16
BRANCH   1  28
ATOM     27  C   UNL     1      34.724 -20.168 -20.030  0.00  0.00    +0.004 C 
ATOM     28  C   UNL     1      36.092 -21.260 -17.858  0.00  0.00    +0.092 C 
ATOM     29  C   UNL     1      35.814 -19.492 -19.480  0.00  0.00    +0.036 C 
ATOM     30  C   UNL     1      36.497 -20.038 -18.394  0.00  0.00    +0.152 C 
ATOM     31  C   UNL     1      34.318 -21.390 -19.493  0.00  0.00    -0.001 C 
ATOM     32  C   UNL     1      35.003 -21.936 -18.407  0.00  0.00    +0.018 C 
BRANCH  30  33
ATOM     33  O   UNL     1      37.560 -19.362 -17.872  0.00  0.00    -0.470 OA
ATOM     34  C   UNL     1      37.764 -19.466 -16.464  0.00  0.00    +0.253 C 
ENDBRANCH  30  33
BRANCH  27  35
ATOM     35  C   UNL     1      33.993 -19.585 -21.192  0.00  0.00    +0.177 C 
BRANCH  35  36
ATOM     36  S   UNL     1      34.896 -18.177 -21.750  0.00  0.00    -0.004 S 
ATOM     37  O   UNL     1      34.700 -17.101 -20.793  0.00  0.00    -0.173 OA
ATOM     38  O   UNL     1      36.236 -18.607 -22.112  0.00  0.00    -0.173 OA
ATOM     39  C   UNL     1      34.058 -17.718 -23.250  0.00  0.00    +0.176 C 
ENDBRANCH  35  36
ENDBRANCH  27  35
ENDBRANCH   1  28
TORSDOF 6
ENDMDL
