MODEL 1
REMARK VINA RESULT:     -12.4      0.000      0.000
REMARK  Name = 11712628
REMARK  7 active torsions:
REMARK  status: ('A' for Active; 'I' for Inactive)
REMARK    1  A    between atoms: C_1  and  C_10
REMARK    2  A    between atoms: C_2  and  C_16
REMARK    3  A    between atoms: C_3  and  C_14
REMARK    4  A    between atoms: C_4  and  S_25
REMARK    5  A    between atoms: C_15  and  C_24
REMARK    6  A    between atoms: S_25  and  C_26
REMARK    7  A    between atoms: C_29  and  N_32
REMARK                            x       y       z     vdW  Elec       q    Type
REMARK                         _______ _______ _______ _____ _____    ______ ____
ROOT
ATOM      1  C   UNL     1      33.615 -14.524 -22.655  0.00  0.00    +0.076 C 
ATOM      2  C   UNL     1      33.657 -14.210 -21.305  0.00  0.00    +0.004 C 
ATOM      3  C   UNL     1      34.027 -15.788 -23.078  0.00  0.00    +0.081 C 
ATOM      4  C   UNL     1      34.476 -16.724 -22.146  0.00  0.00    +0.033 C 
ATOM      5  C   UNL     1      34.101 -15.131 -20.368  0.00  0.00    +0.000 C 
ATOM      6  C   UNL     1      34.512 -16.395 -20.791  0.00  0.00    +0.006 C 
ENDROOT
BRANCH   1  10
ATOM      7  F   UNL     1      33.334 -13.915 -24.952  0.00  0.00    -0.166 F 
ATOM      8  F   UNL     1      31.799 -13.260 -23.565  0.00  0.00    -0.166 F 
ATOM      9  F   UNL     1      33.760 -12.321 -23.537  0.00  0.00    -0.166 F 
ATOM     10  C   UNL     1      33.133 -13.524 -23.661  0.00  0.00    +0.419 C 
ENDBRANCH   1  10
BRANCH   3  14
ATOM     11  F   UNL     1      34.190 -17.441 -24.799  0.00  0.00    -0.166 F 
ATOM     12  F   UNL     1      32.781 -15.824 -25.119  0.00  0.00    -0.166 F 
ATOM     13  F   UNL     1      34.917 -15.443 -25.256  0.00  0.00    -0.166 F 
ATOM     14  C   UNL     1      33.978 -16.120 -24.538  0.00  0.00    +0.419 C 
ENDBRANCH   3  14
BRANCH   2  16
ATOM     15  C   UNL     1      31.957 -12.511 -20.684  0.00  0.00    +0.058 C 
ATOM     16  C   UNL     1      33.229 -12.885 -20.823  0.00  0.00    +0.005 C 
BRANCH  15  24
ATOM     17  O   UNL     1      31.787  -7.899 -22.825  0.00  0.00    -0.350 OA
ATOM     18  O   UNL     1      31.667 -10.968 -18.979  0.00  0.00    -0.270 OA
ATOM     19  N   UNL     1      31.482 -10.144 -21.143  0.00  0.00    -0.271 N 
ATOM     20  C   UNL     1      31.063  -8.814 -20.700  0.00  0.00    +0.126 C 
ATOM     21  C   UNL     1      31.498 -10.297 -22.604  0.00  0.00    +0.126 C 
ATOM     22  C   UNL     1      31.882  -7.742 -21.407  0.00  0.00    +0.164 C 
ATOM     23  C   UNL     1      32.302  -9.168 -23.238  0.00  0.00    +0.164 C 
ATOM     24  C   UNL     1      31.690 -11.144 -20.198  0.00  0.00    +0.249 C 
ENDBRANCH  15  24
ENDBRANCH   2  16
BRANCH   4  25
ATOM     25  S   UNL     1      35.017 -18.358 -22.631  0.00  0.00    -0.087 S 
BRANCH  25  26
ATOM     26  C   UNL     1      34.368 -19.345 -21.293  0.00  0.00    +0.031 C 
ATOM     27  C   UNL     1      35.240 -19.979 -20.411  0.00  0.00    +0.021 C 
ATOM     28  C   UNL     1      32.990 -19.480 -21.136  0.00  0.00    +0.007 C 
ATOM     29  C   UNL     1      34.732 -20.751 -19.366  0.00  0.00    +0.042 C 
ATOM     30  C   UNL     1      32.482 -20.252 -20.090  0.00  0.00    +0.002 C 
ATOM     31  C   UNL     1      33.353 -20.887 -19.206  0.00  0.00    +0.014 C 
BRANCH  29  32
ATOM     32  N   UNL     1      35.612 -21.394 -18.471  0.00  0.00    -0.357 N 
ATOM     33  H   UNL     1      36.399 -21.875 -18.815  0.00  0.00    +0.142 HD
ATOM     34  H   UNL     1      35.440 -21.361 -17.502  0.00  0.00    +0.142 HD
ENDBRANCH  29  32
ENDBRANCH  25  26
ENDBRANCH   4  25
TORSDOF 7
ENDMDL
MODEL 2
REMARK VINA RESULT:     -11.6      6.476      9.394
REMARK  Name = 11712628
REMARK  7 active torsions:
REMARK  status: ('A' for Active; 'I' for Inactive)
REMARK    1  A    between atoms: C_1  and  C_10
REMARK    2  A    between atoms: C_2  and  C_16
REMARK    3  A    between atoms: C_3  and  C_14
REMARK    4  A    between atoms: C_4  and  S_25
REMARK    5  A    between atoms: C_15  and  C_24
REMARK    6  A    between atoms: S_25  and  C_26
REMARK    7  A    between atoms: C_29  and  N_32
REMARK                            x       y       z     vdW  Elec       q    Type
REMARK                         _______ _______ _______ _____ _____    ______ ____
ROOT
ATOM      1  C   UNL     1      34.450 -21.965 -17.522  0.00  0.00    +0.076 C 
ATOM      2  C   UNL     1      35.401 -21.229 -18.211  0.00  0.00    +0.004 C 
ATOM      3  C   UNL     1      34.687 -22.319 -16.193  0.00  0.00    +0.081 C 
ATOM      4  C   UNL     1      35.874 -21.932 -15.570  0.00  0.00    +0.033 C 
ATOM      5  C   UNL     1      36.586 -20.839 -17.604  0.00  0.00    +0.000 C 
ATOM      6  C   UNL     1      36.823 -21.192 -16.276  0.00  0.00    +0.006 C 
ENDROOT
BRANCH   1  10
ATOM      7  F   UNL     1      33.219 -22.302 -19.546  0.00  0.00    -0.166 F 
ATOM      8  F   UNL     1      32.816 -23.669 -17.909  0.00  0.00    -0.166 F 
ATOM      9  F   UNL     1      32.115 -21.614 -17.803  0.00  0.00    -0.166 F 
ATOM     10  C   UNL     1      33.173 -22.383 -18.185  0.00  0.00    +0.419 C 
ENDBRANCH   1  10
BRANCH   3  14
ATOM     11  F   UNL     1      33.739 -22.983 -14.100  0.00  0.00    -0.166 F 
ATOM     12  F   UNL     1      32.375 -22.762 -15.772  0.00  0.00    -0.166 F 
ATOM     13  F   UNL     1      33.747 -24.448 -15.707  0.00  0.00    -0.166 F 
ATOM     14  C   UNL     1      33.654 -23.113 -15.454  0.00  0.00    +0.419 C 
ENDBRANCH   3  14
BRANCH   2  16
ATOM     15  C   UNL     1      34.816 -19.618 -20.006  0.00  0.00    +0.058 C 
ATOM     16  C   UNL     1      35.184 -20.838 -19.615  0.00  0.00    +0.005 C 
BRANCH  15  24
ATOM     17  O   UNL     1      34.367 -15.501 -22.960  0.00  0.00    -0.350 OA
ATOM     18  O   UNL     1      34.326 -20.355 -22.149  0.00  0.00    -0.270 OA
ATOM     19  N   UNL     1      34.804 -18.091 -21.932  0.00  0.00    -0.271 N 
ATOM     20  C   UNL     1      34.777 -17.853 -23.376  0.00  0.00    +0.126 C 
ATOM     21  C   UNL     1      35.163 -16.902 -21.148  0.00  0.00    +0.126 C 
ATOM     22  C   UNL     1      33.912 -16.641 -23.693  0.00  0.00    +0.164 C 
ATOM     23  C   UNL     1      34.281 -15.726 -21.550  0.00  0.00    +0.164 C 
ATOM     24  C   UNL     1      34.628 -19.385 -21.451  0.00  0.00    +0.249 C 
ENDBRANCH  15  24
ENDBRANCH   2  16
BRANCH   4  25
ATOM     25  S   UNL     1      36.231 -22.358 -13.869  0.00  0.00    -0.087 S 
BRANCH  25  26
ATOM     26  C   UNL     1      37.009 -23.951 -14.072  0.00  0.00    +0.031 C 
ATOM     27  C   UNL     1      38.338 -24.029 -14.484  0.00  0.00    +0.021 C 
ATOM     28  C   UNL     1      36.284 -25.114 -13.819  0.00  0.00    +0.007 C 
ATOM     29  C   UNL     1      38.944 -25.275 -14.643  0.00  0.00    +0.042 C 
ATOM     30  C   UNL     1      36.891 -26.361 -13.978  0.00  0.00    +0.002 C 
ATOM     31  C   UNL     1      38.221 -26.440 -14.390  0.00  0.00    +0.014 C 
BRANCH  29  32
ATOM     32  N   UNL     1      40.289 -25.358 -15.059  0.00  0.00    -0.357 N 
ATOM     33  H   UNL     1      40.779 -26.208 -14.975  0.00  0.00    +0.142 HD
ATOM     34  H   UNL     1      40.738 -24.566 -15.435  0.00  0.00    +0.142 HD
ENDBRANCH  29  32
ENDBRANCH  25  26
ENDBRANCH   4  25
TORSDOF 7
ENDMDL
MODEL 3
REMARK VINA RESULT:     -11.4      6.191      9.096
REMARK  Name = 11712628
REMARK  7 active torsions:
REMARK  status: ('A' for Active; 'I' for Inactive)
REMARK    1  A    between atoms: C_1  and  C_10
REMARK    2  A    between atoms: C_2  and  C_16
REMARK    3  A    between atoms: C_3  and  C_14
REMARK    4  A    between atoms: C_4  and  S_25
REMARK    5  A    between atoms: C_15  and  C_24
REMARK    6  A    between atoms: S_25  and  C_26
REMARK    7  A    between atoms: C_29  and  N_32
REMARK                            x       y       z     vdW  Elec       q    Type
REMARK                         _______ _______ _______ _____ _____    ______ ____
ROOT
ATOM      1  C   UNL     1      34.885 -21.611 -17.713  0.00  0.00    +0.076 C 
ATOM      2  C   UNL     1      33.882 -21.464 -18.658  0.00  0.00    +0.004 C 
ATOM      3  C   UNL     1      34.587 -22.197 -16.482  0.00  0.00    +0.081 C 
ATOM      4  C   UNL     1      33.288 -22.628 -16.212  0.00  0.00    +0.033 C 
ATOM      5  C   UNL     1      32.587 -21.888 -18.403  0.00  0.00    +0.000 C 
ATOM      6  C   UNL     1      32.288 -22.474 -17.173  0.00  0.00    +0.006 C 
ENDROOT
BRANCH   1  10
ATOM      7  F   UNL     1      36.590 -19.961 -17.406  0.00  0.00    -0.166 F 
ATOM      8  F   UNL     1      37.237 -22.026 -17.571  0.00  0.00    -0.166 F 
ATOM      9  F   UNL     1      36.509 -20.973 -19.329  0.00  0.00    -0.166 F 
ATOM     10  C   UNL     1      36.282 -21.150 -17.997  0.00  0.00    +0.419 C 
ENDBRANCH   1  10
BRANCH   3  14
ATOM     11  F   UNL     1      36.558 -21.315 -15.454  0.00  0.00    -0.166 F 
ATOM     12  F   UNL     1      35.211 -22.448 -14.188  0.00  0.00    -0.166 F 
ATOM     13  F   UNL     1      36.422 -23.474 -15.674  0.00  0.00    -0.166 F 
ATOM     14  C   UNL     1      35.676 -22.354 -15.466  0.00  0.00    +0.419 C 
ENDBRANCH   3  14
BRANCH   2  16
ATOM     15  C   UNL     1      33.880 -19.584 -20.279  0.00  0.00    +0.058 C 
ATOM     16  C   UNL     1      34.162 -20.850 -19.968  0.00  0.00    +0.005 C 
BRANCH  15  24
ATOM     17  O   UNL     1      34.633 -15.045 -22.450  0.00  0.00    -0.350 OA
ATOM     18  O   UNL     1      34.134 -19.940 -22.557  0.00  0.00    -0.270 OA
ATOM     19  N   UNL     1      34.591 -17.791 -21.802  0.00  0.00    -0.271 N 
ATOM     20  C   UNL     1      35.074 -17.336 -23.107  0.00  0.00    +0.126 C 
ATOM     21  C   UNL     1      34.701 -16.773 -20.749  0.00  0.00    +0.126 C 
ATOM     22  C   UNL     1      34.417 -16.013 -23.479  0.00  0.00    +0.164 C 
ATOM     23  C   UNL     1      34.056 -15.471 -21.212  0.00  0.00    +0.164 C 
ATOM     24  C   UNL     1      34.212 -19.119 -21.640  0.00  0.00    +0.249 C 
ENDBRANCH  15  24
ENDBRANCH   2  16
BRANCH   4  25
ATOM     25  S   UNL     1      32.848 -23.385 -14.651  0.00  0.00    -0.087 S 
BRANCH  25  26
ATOM     26  C   UNL     1      31.073 -23.483 -14.807  0.00  0.00    +0.031 C 
ATOM     27  C   UNL     1      30.397 -24.616 -14.358  0.00  0.00    +0.021 C 
ATOM     28  C   UNL     1      30.367 -22.427 -15.379  0.00  0.00    +0.007 C 
ATOM     29  C   UNL     1      29.010 -24.692 -14.481  0.00  0.00    +0.042 C 
ATOM     30  C   UNL     1      28.980 -22.502 -15.501  0.00  0.00    +0.002 C 
ATOM     31  C   UNL     1      28.301 -23.636 -15.052  0.00  0.00    +0.014 C 
BRANCH  29  32
ATOM     32  N   UNL     1      28.323 -25.837 -14.027  0.00  0.00    -0.357 N 
ATOM     33  H   UNL     1      27.395 -26.000 -14.315  0.00  0.00    +0.142 HD
ATOM     34  H   UNL     1      28.770 -26.473 -13.423  0.00  0.00    +0.142 HD
ENDBRANCH  29  32
ENDBRANCH  25  26
ENDBRANCH   4  25
TORSDOF 7
ENDMDL
MODEL 4
REMARK VINA RESULT:     -11.2      7.682     10.962
REMARK  Name = 11712628
REMARK  7 active torsions:
REMARK  status: ('A' for Active; 'I' for Inactive)
REMARK    1  A    between atoms: C_1  and  C_10
REMARK    2  A    between atoms: C_2  and  C_16
REMARK    3  A    between atoms: C_3  and  C_14
REMARK    4  A    between atoms: C_4  and  S_25
REMARK    5  A    between atoms: C_15  and  C_24
REMARK    6  A    between atoms: S_25  and  C_26
REMARK    7  A    between atoms: C_29  and  N_32
REMARK                            x       y       z     vdW  Elec       q    Type
REMARK                         _______ _______ _______ _____ _____    ______ ____
ROOT
ATOM      1  C   UNL     1      31.775 -22.831 -15.804  0.00  0.00    +0.076 C 
ATOM      2  C   UNL     1      32.839 -22.452 -16.607  0.00  0.00    +0.004 C 
ATOM      3  C   UNL     1      32.024 -23.488 -14.599  0.00  0.00    +0.081 C 
ATOM      4  C   UNL     1      33.336 -23.758 -14.211  0.00  0.00    +0.033 C 
ATOM      5  C   UNL     1      34.149 -22.715 -16.233  0.00  0.00    +0.000 C 
ATOM      6  C   UNL     1      34.399 -23.371 -15.028  0.00  0.00    +0.006 C 
ENDROOT
BRANCH   1  10
ATOM      7  F   UNL     1      29.637 -21.910 -15.249  0.00  0.00    -0.166 F 
ATOM      8  F   UNL     1      30.273 -21.746 -17.318  0.00  0.00    -0.166 F 
ATOM      9  F   UNL     1      29.669 -23.676 -16.517  0.00  0.00    -0.166 F 
ATOM     10  C   UNL     1      30.363 -22.543 -16.215  0.00  0.00    +0.419 C 
ENDBRANCH   1  10
BRANCH   3  14
ATOM     11  F   UNL     1      29.852 -24.476 -14.433  0.00  0.00    -0.166 F 
ATOM     12  F   UNL     1      31.207 -24.792 -12.769  0.00  0.00    -0.166 F 
ATOM     13  F   UNL     1      30.313 -22.836 -13.083  0.00  0.00    -0.166 F 
ATOM     14  C   UNL     1      30.868 -23.893 -13.736  0.00  0.00    +0.419 C 
ENDBRANCH   3  14
BRANCH   2  16
ATOM     15  C   UNL     1      33.584 -21.262 -18.653  0.00  0.00    +0.058 C 
ATOM     16  C   UNL     1      32.613 -21.756 -17.885  0.00  0.00    +0.005 C 
BRANCH  15  24
ATOM     17  O   UNL     1      35.924 -18.173 -21.949  0.00  0.00    -0.350 OA
ATOM     18  O   UNL     1      31.997 -20.562 -20.192  0.00  0.00    -0.270 OA
ATOM     19  N   UNL     1      34.200 -20.007 -20.675  0.00  0.00    -0.271 N 
ATOM     20  C   UNL     1      33.871 -19.461 -21.992  0.00  0.00    +0.126 C 
ATOM     21  C   UNL     1      35.640 -20.001 -20.381  0.00  0.00    +0.126 C 
ATOM     22  C   UNL     1      34.514 -18.091 -22.169  0.00  0.00    +0.164 C 
ATOM     23  C   UNL     1      36.214 -18.609 -20.618  0.00  0.00    +0.164 C 
ATOM     24  C   UNL     1      33.195 -20.581 -19.904  0.00  0.00    +0.249 C 
ENDBRANCH  15  24
ENDBRANCH   2  16
BRANCH   4  25
ATOM     25  S   UNL     1      33.715 -24.599 -12.677  0.00  0.00    -0.087 S 
BRANCH  25  26
ATOM     26  C   UNL     1      35.443 -24.195 -12.484  0.00  0.00    +0.031 C 
ATOM     27  C   UNL     1      36.419 -25.103 -12.890  0.00  0.00    +0.021 C 
ATOM     28  C   UNL     1      35.812 -22.974 -11.925  0.00  0.00    +0.007 C 
ATOM     29  C   UNL     1      37.768 -24.788 -12.738  0.00  0.00    +0.042 C 
ATOM     30  C   UNL     1      37.162 -22.657 -11.773  0.00  0.00    +0.002 C 
ATOM     31  C   UNL     1      38.140 -23.565 -12.179  0.00  0.00    +0.014 C 
BRANCH  29  32
ATOM     32  N   UNL     1      38.759 -25.704 -13.148  0.00  0.00    -0.357 N 
ATOM     33  H   UNL     1      39.665 -25.651 -12.768  0.00  0.00    +0.142 HD
ATOM     34  H   UNL     1      38.544 -26.396 -13.815  0.00  0.00    +0.142 HD
ENDBRANCH  29  32
ENDBRANCH  25  26
ENDBRANCH   4  25
TORSDOF 7
ENDMDL
MODEL 5
REMARK VINA RESULT:     -10.8      7.502     10.712
REMARK  Name = 11712628
REMARK  7 active torsions:
REMARK  status: ('A' for Active; 'I' for Inactive)
REMARK    1  A    between atoms: C_1  and  C_10
REMARK    2  A    between atoms: C_2  and  C_16
REMARK    3  A    between atoms: C_3  and  C_14
REMARK    4  A    between atoms: C_4  and  S_25
REMARK    5  A    between atoms: C_15  and  C_24
REMARK    6  A    between atoms: S_25  and  C_26
REMARK    7  A    between atoms: C_29  and  N_32
REMARK                            x       y       z     vdW  Elec       q    Type
REMARK                         _______ _______ _______ _____ _____    ______ ____
ROOT
ATOM      1  C   UNL     1      32.573 -22.731 -15.911  0.00  0.00    +0.076 C 
ATOM      2  C   UNL     1      33.528 -22.304 -16.820  0.00  0.00    +0.004 C 
ATOM      3  C   UNL     1      32.979 -23.289 -14.699  0.00  0.00    +0.081 C 
ATOM      4  C   UNL     1      34.339 -23.413 -14.410  0.00  0.00    +0.033 C 
ATOM      5  C   UNL     1      34.883 -22.421 -16.545  0.00  0.00    +0.000 C 
ATOM      6  C   UNL     1      35.290 -22.978 -15.333  0.00  0.00    +0.006 C 
ENDROOT
BRANCH   1  10
ATOM      7  F   UNL     1      30.487 -23.799 -16.394  0.00  0.00    -0.166 F 
ATOM      8  F   UNL     1      30.409 -21.967 -15.233  0.00  0.00    -0.166 F 
ATOM      9  F   UNL     1      30.881 -21.889 -17.355  0.00  0.00    -0.166 F 
ATOM     10  C   UNL     1      31.111 -22.600 -16.216  0.00  0.00    +0.419 C 
ENDBRANCH   1  10
BRANCH   3  14
ATOM     11  F   UNL     1      30.942 -24.476 -14.296  0.00  0.00    -0.166 F 
ATOM     12  F   UNL     1      32.443 -24.539 -12.732  0.00  0.00    -0.166 F 
ATOM     13  F   UNL     1      31.327 -22.708 -13.091  0.00  0.00    -0.166 F 
ATOM     14  C   UNL     1      31.941 -23.747 -13.722  0.00  0.00    +0.419 C 
ENDBRANCH   3  14
BRANCH   2  16
ATOM     15  C   UNL     1      33.908 -20.896 -18.828  0.00  0.00    +0.058 C 
ATOM     16  C   UNL     1      33.135 -21.710 -18.109  0.00  0.00    +0.005 C 
BRANCH  15  24
ATOM     17  O   UNL     1      35.615 -17.760 -22.452  0.00  0.00    -0.350 OA
ATOM     18  O   UNL     1      32.166 -20.547 -20.318  0.00  0.00    -0.270 OA
ATOM     19  N   UNL     1      34.240 -19.721 -20.961  0.00  0.00    -0.271 N 
ATOM     20  C   UNL     1      33.773 -19.327 -22.291  0.00  0.00    +0.126 C 
ATOM     21  C   UNL     1      35.675 -19.487 -20.750  0.00  0.00    +0.126 C 
ATOM     22  C   UNL     1      34.200 -17.897 -22.596  0.00  0.00    +0.164 C 
ATOM     23  C   UNL     1      36.027 -18.048 -21.113  0.00  0.00    +0.164 C 
ATOM     24  C   UNL     1      33.366 -20.373 -20.097  0.00  0.00    +0.249 C 
ENDBRANCH  15  24
ENDBRANCH   2  16
BRANCH   4  25
ATOM     25  S   UNL     1      34.918 -24.121 -12.872  0.00  0.00    -0.087 S 
BRANCH  25  26
ATOM     26  C   UNL     1      36.442 -24.883 -13.399  0.00  0.00    +0.031 C 
ATOM     27  C   UNL     1      37.654 -24.225 -13.201  0.00  0.00    +0.021 C 
ATOM     28  C   UNL     1      36.417 -26.136 -14.009  0.00  0.00    +0.007 C 
ATOM     29  C   UNL     1      38.845 -24.821 -13.614  0.00  0.00    +0.042 C 
ATOM     30  C   UNL     1      37.608 -26.733 -14.422  0.00  0.00    +0.002 C 
ATOM     31  C   UNL     1      38.822 -26.075 -14.225  0.00  0.00    +0.014 C 
BRANCH  29  32
ATOM     32  N   UNL     1      40.073 -24.158 -13.415  0.00  0.00    -0.357 N 
ATOM     33  H   UNL     1      40.832 -24.637 -13.010  0.00  0.00    +0.142 HD
ATOM     34  H   UNL     1      40.173 -23.215 -13.682  0.00  0.00    +0.142 HD
ENDBRANCH  29  32
ENDBRANCH  25  26
ENDBRANCH   4  25
TORSDOF 7
ENDMDL
MODEL 6
REMARK VINA RESULT:     -10.6      4.626     10.412
REMARK  Name = 11712628
REMARK  7 active torsions:
REMARK  status: ('A' for Active; 'I' for Inactive)
REMARK    1  A    between atoms: C_1  and  C_10
REMARK    2  A    between atoms: C_2  and  C_16
REMARK    3  A    between atoms: C_3  and  C_14
REMARK    4  A    between atoms: C_4  and  S_25
REMARK    5  A    between atoms: C_15  and  C_24
REMARK    6  A    between atoms: S_25  and  C_26
REMARK    7  A    between atoms: C_29  and  N_32
REMARK                            x       y       z     vdW  Elec       q    Type
REMARK                         _______ _______ _______ _____ _____    ______ ____
ROOT
ATOM      1  C   UNL     1      31.753 -10.074 -21.696  0.00  0.00    +0.076 C 
ATOM      2  C   UNL     1      32.226 -10.240 -22.988  0.00  0.00    +0.004 C 
ATOM      3  C   UNL     1      31.805  -8.812 -21.102  0.00  0.00    +0.081 C 
ATOM      4  C   UNL     1      32.330  -7.730 -21.810  0.00  0.00    +0.033 C 
ATOM      5  C   UNL     1      32.750  -9.173 -23.703  0.00  0.00    +0.000 C 
ATOM      6  C   UNL     1      32.802  -7.911 -23.111  0.00  0.00    +0.006 C 
ENDROOT
BRANCH   1  10
ATOM      7  F   UNL     1      31.376 -12.432 -21.549  0.00  0.00    -0.166 F 
ATOM      8  F   UNL     1      31.731 -11.375 -19.687  0.00  0.00    -0.166 F 
ATOM      9  F   UNL     1      29.844 -11.119 -20.738  0.00  0.00    -0.166 F 
ATOM     10  C   UNL     1      31.188 -11.232 -20.930  0.00  0.00    +0.419 C 
ENDBRANCH   1  10
BRANCH   3  14
ATOM     11  F   UNL     1      31.131  -7.336 -19.346  0.00  0.00    -0.166 F 
ATOM     12  F   UNL     1      30.078  -9.226 -19.502  0.00  0.00    -0.166 F 
ATOM     13  F   UNL     1      32.127  -9.183 -18.776  0.00  0.00    -0.166 F 
ATOM     14  C   UNL     1      31.292  -8.641 -19.706  0.00  0.00    +0.419 C 
ENDBRANCH   3  14
BRANCH   2  16
ATOM     15  C   UNL     1      33.266 -12.227 -24.050  0.00  0.00    +0.058 C 
ATOM     16  C   UNL     1      32.186 -11.558 -23.645  0.00  0.00    +0.005 C 
BRANCH  15  24
ATOM     17  O   UNL     1      34.297 -17.059 -22.837  0.00  0.00    -0.350 OA
ATOM     18  O   UNL     1      32.731 -13.532 -25.891  0.00  0.00    -0.270 OA
ATOM     19  N   UNL     1      33.251 -14.683 -23.941  0.00  0.00    -0.271 N 
ATOM     20  C   UNL     1      32.908 -15.987 -24.509  0.00  0.00    +0.126 C 
ATOM     21  C   UNL     1      33.643 -14.744 -22.526  0.00  0.00    +0.126 C 
ATOM     22  C   UNL     1      34.024 -16.988 -24.238  0.00  0.00    +0.164 C 
ATOM     23  C   UNL     1      34.732 -15.793 -22.332  0.00  0.00    +0.164 C 
ATOM     24  C   UNL     1      33.061 -13.535 -24.703  0.00  0.00    +0.249 C 
ENDBRANCH  15  24
ENDBRANCH   2  16
BRANCH   4  25
ATOM     25  S   UNL     1      32.422  -6.091 -21.100  0.00  0.00    -0.087 S 
BRANCH  25  26
ATOM     26  C   UNL     1      32.354  -5.078 -22.568  0.00  0.00    +0.031 C 
ATOM     27  C   UNL     1      31.212  -4.329 -22.844  0.00  0.00    +0.021 C 
ATOM     28  C   UNL     1      33.444  -5.039 -23.435  0.00  0.00    +0.007 C 
ATOM     29  C   UNL     1      31.160  -3.538 -23.991  0.00  0.00    +0.042 C 
ATOM     30  C   UNL     1      33.392  -4.248 -24.583  0.00  0.00    +0.002 C 
ATOM     31  C   UNL     1      32.250  -3.498 -24.861  0.00  0.00    +0.014 C 
BRANCH  29  32
ATOM     32  N   UNL     1      30.006  -2.779 -24.273  0.00  0.00    -0.357 N 
ATOM     33  H   UNL     1      29.948  -2.265 -25.112  0.00  0.00    +0.142 HD
ATOM     34  H   UNL     1      29.258  -2.762 -23.634  0.00  0.00    +0.142 HD
ENDBRANCH  29  32
ENDBRANCH  25  26
ENDBRANCH   4  25
TORSDOF 7
ENDMDL
MODEL 7
REMARK VINA RESULT:     -10.5      6.607      9.746
REMARK  Name = 11712628
REMARK  7 active torsions:
REMARK  status: ('A' for Active; 'I' for Inactive)
REMARK    1  A    between atoms: C_1  and  C_10
REMARK    2  A    between atoms: C_2  and  C_16
REMARK    3  A    between atoms: C_3  and  C_14
REMARK    4  A    between atoms: C_4  and  S_25
REMARK    5  A    between atoms: C_15  and  C_24
REMARK    6  A    between atoms: S_25  and  C_26
REMARK    7  A    between atoms: C_29  and  N_32
REMARK                            x       y       z     vdW  Elec       q    Type
REMARK                         _______ _______ _______ _____ _____    ______ ____
ROOT
ATOM      1  C   UNL     1      34.914 -21.831 -17.151  0.00  0.00    +0.076 C 
ATOM      2  C   UNL     1      33.655 -21.920 -17.725  0.00  0.00    +0.004 C 
ATOM      3  C   UNL     1      35.107 -22.287 -15.847  0.00  0.00    +0.081 C 
ATOM      4  C   UNL     1      34.038 -22.827 -15.131  0.00  0.00    +0.033 C 
ATOM      5  C   UNL     1      32.583 -22.454 -17.025  0.00  0.00    +0.000 C 
ATOM      6  C   UNL     1      32.776 -22.910 -15.721  0.00  0.00    +0.006 C 
ENDROOT
BRANCH   1  10
ATOM      7  F   UNL     1      35.857 -21.212 -19.261  0.00  0.00    -0.166 F 
ATOM      8  F   UNL     1      36.366 -19.973 -17.553  0.00  0.00    -0.166 F 
ATOM      9  F   UNL     1      37.214 -21.967 -17.739  0.00  0.00    -0.166 F 
ATOM     10  C   UNL     1      36.067 -21.253 -17.914  0.00  0.00    +0.419 C 
ENDBRANCH   1  10
BRANCH   3  14
ATOM     11  F   UNL     1      37.140 -21.054 -15.583  0.00  0.00    -0.166 F 
ATOM     12  F   UNL     1      36.451 -22.193 -13.871  0.00  0.00    -0.166 F 
ATOM     13  F   UNL     1      37.278 -23.224 -15.597  0.00  0.00    -0.166 F 
ATOM     14  C   UNL     1      36.471 -22.189 -15.234  0.00  0.00    +0.419 C 
ENDBRANCH   3  14
BRANCH   2  16
ATOM     15  C   UNL     1      32.864 -20.273 -19.405  0.00  0.00    +0.058 C 
ATOM     16  C   UNL     1      33.415 -21.448 -19.100  0.00  0.00    +0.005 C 
BRANCH  15  24
ATOM     17  O   UNL     1      35.343 -17.399 -22.793  0.00  0.00    -0.350 OA
ATOM     18  O   UNL     1      31.608 -20.263 -21.354  0.00  0.00    -0.270 OA
ATOM     19  N   UNL     1      33.723 -19.312 -21.497  0.00  0.00    -0.271 N 
ATOM     20  C   UNL     1      33.637 -19.114 -22.945  0.00  0.00    +0.126 C 
ATOM     21  C   UNL     1      35.017 -18.915 -20.927  0.00  0.00    +0.126 C 
ATOM     22  C   UNL     1      34.041 -17.691 -23.306  0.00  0.00    +0.164 C 
ATOM     23  C   UNL     1      35.368 -17.498 -21.366  0.00  0.00    +0.164 C 
ATOM     24  C   UNL     1      32.680 -19.949 -20.833  0.00  0.00    +0.249 C 
ENDBRANCH  15  24
ENDBRANCH   2  16
BRANCH   4  25
ATOM     25  S   UNL     1      34.227 -23.426 -13.456  0.00  0.00    -0.087 S 
BRANCH  25  26
ATOM     26  C   UNL     1      35.408 -24.743 -13.695  0.00  0.00    +0.031 C 
ATOM     27  C   UNL     1      35.382 -25.497 -14.867  0.00  0.00    +0.021 C 
ATOM     28  C   UNL     1      36.352 -25.016 -12.708  0.00  0.00    +0.007 C 
ATOM     29  C   UNL     1      36.304 -26.526 -15.052  0.00  0.00    +0.042 C 
ATOM     30  C   UNL     1      37.275 -26.045 -12.893  0.00  0.00    +0.002 C 
ATOM     31  C   UNL     1      37.251 -26.800 -14.065  0.00  0.00    +0.014 C 
BRANCH  29  32
ATOM     32  N   UNL     1      36.281 -27.290 -16.237  0.00  0.00    -0.357 N 
ATOM     33  H   UNL     1      36.099 -28.257 -16.195  0.00  0.00    +0.142 HD
ATOM     34  H   UNL     1      36.446 -26.858 -17.106  0.00  0.00    +0.142 HD
ENDBRANCH  29  32
ENDBRANCH  25  26
ENDBRANCH   4  25
TORSDOF 7
ENDMDL
MODEL 8
REMARK VINA RESULT:     -10.3      5.554     11.210
REMARK  Name = 11712628
REMARK  7 active torsions:
REMARK  status: ('A' for Active; 'I' for Inactive)
REMARK    1  A    between atoms: C_1  and  C_10
REMARK    2  A    between atoms: C_2  and  C_16
REMARK    3  A    between atoms: C_3  and  C_14
REMARK    4  A    between atoms: C_4  and  S_25
REMARK    5  A    between atoms: C_15  and  C_24
REMARK    6  A    between atoms: S_25  and  C_26
REMARK    7  A    between atoms: C_29  and  N_32
REMARK                            x       y       z     vdW  Elec       q    Type
REMARK                         _______ _______ _______ _____ _____    ______ ____
ROOT
ATOM      1  C   UNL     1      31.562  -7.382 -21.256  0.00  0.00    +0.076 C 
ATOM      2  C   UNL     1      31.591  -8.554 -21.997  0.00  0.00    +0.004 C 
ATOM      3  C   UNL     1      31.221  -6.183 -21.882  0.00  0.00    +0.081 C 
ATOM      4  C   UNL     1      30.912  -6.171 -23.243  0.00  0.00    +0.033 C 
ATOM      5  C   UNL     1      31.287  -8.556 -23.350  0.00  0.00    +0.000 C 
ATOM      6  C   UNL     1      30.945  -7.357 -23.976  0.00  0.00    +0.006 C 
ENDROOT
BRANCH   1  10
ATOM      7  F   UNL     1      30.913  -6.846 -19.016  0.00  0.00    -0.166 F 
ATOM      8  F   UNL     1      32.102  -8.640 -19.294  0.00  0.00    -0.166 F 
ATOM      9  F   UNL     1      33.023  -6.682 -19.515  0.00  0.00    -0.166 F 
ATOM     10  C   UNL     1      31.892  -7.389 -19.795  0.00  0.00    +0.419 C 
ENDBRANCH   1  10
BRANCH   3  14
ATOM     11  F   UNL     1      32.223  -4.820 -20.192  0.00  0.00    -0.166 F 
ATOM     12  F   UNL     1      31.253  -3.793 -21.838  0.00  0.00    -0.166 F 
ATOM     13  F   UNL     1      30.054  -4.807 -20.334  0.00  0.00    -0.166 F 
ATOM     14  C   UNL     1      31.190  -4.922 -21.076  0.00  0.00    +0.419 C 
ENDBRANCH   3  14
BRANCH   2  16
ATOM     15  C   UNL     1      31.649 -11.032 -21.879  0.00  0.00    +0.058 C 
ATOM     16  C   UNL     1      31.948  -9.837 -21.368  0.00  0.00    +0.005 C 
BRANCH  15  24
ATOM     17  O   UNL     1      34.650 -15.029 -22.832  0.00  0.00    -0.350 OA
ATOM     18  O   UNL     1      31.458 -12.485 -20.082  0.00  0.00    -0.270 OA
ATOM     19  N   UNL     1      33.116 -12.989 -21.630  0.00  0.00    -0.271 N 
ATOM     20  C   UNL     1      33.656 -14.089 -20.831  0.00  0.00    +0.126 C 
ATOM     21  C   UNL     1      33.874 -12.731 -22.861  0.00  0.00    +0.126 C 
ATOM     22  C   UNL     1      33.835 -15.329 -21.697  0.00  0.00    +0.164 C 
ATOM     23  C   UNL     1      34.043 -14.024 -23.651  0.00  0.00    +0.164 C 
ATOM     24  C   UNL     1      32.067 -12.229 -21.123  0.00  0.00    +0.249 C 
ENDBRANCH  15  24
ENDBRANCH   2  16
BRANCH   4  25
ATOM     25  S   UNL     1      30.468  -4.663 -24.098  0.00  0.00    -0.087 S 
BRANCH  25  26
ATOM     26  C   UNL     1      31.979  -4.312 -24.980  0.00  0.00    +0.031 C 
ATOM     27  C   UNL     1      31.930  -3.683 -26.222  0.00  0.00    +0.021 C 
ATOM     28  C   UNL     1      33.206  -4.669 -24.423  0.00  0.00    +0.007 C 
ATOM     29  C   UNL     1      33.112  -3.410 -26.910  0.00  0.00    +0.042 C 
ATOM     30  C   UNL     1      34.388  -4.396 -25.111  0.00  0.00    +0.002 C 
ATOM     31  C   UNL     1      34.341  -3.766 -26.355  0.00  0.00    +0.014 C 
BRANCH  29  32
ATOM     32  N   UNL     1      33.065  -2.774 -28.168  0.00  0.00    -0.357 N 
ATOM     33  H   UNL     1      33.900  -2.597 -28.661  0.00  0.00    +0.142 HD
ATOM     34  H   UNL     1      32.200  -2.506 -28.554  0.00  0.00    +0.142 HD
ENDBRANCH  29  32
ENDBRANCH  25  26
ENDBRANCH   4  25
TORSDOF 7
ENDMDL
MODEL 9
REMARK VINA RESULT:     -10.0      5.567      8.189
REMARK  Name = 11712628
REMARK  7 active torsions:
REMARK  status: ('A' for Active; 'I' for Inactive)
REMARK    1  A    between atoms: C_1  and  C_10
REMARK    2  A    between atoms: C_2  and  C_16
REMARK    3  A    between atoms: C_3  and  C_14
REMARK    4  A    between atoms: C_4  and  S_25
REMARK    5  A    between atoms: C_15  and  C_24
REMARK    6  A    between atoms: S_25  and  C_26
REMARK    7  A    between atoms: C_29  and  N_32
REMARK                            x       y       z     vdW  Elec       q    Type
REMARK                         _______ _______ _______ _____ _____    ______ ____
ROOT
ATOM      1  C   UNL     1      32.152  -7.515 -21.612  0.00  0.00    +0.076 C 
ATOM      2  C   UNL     1      32.500  -7.554 -22.953  0.00  0.00    +0.004 C 
ATOM      3  C   UNL     1      31.683  -8.673 -20.991  0.00  0.00    +0.081 C 
ATOM      4  C   UNL     1      31.567  -9.857 -21.720  0.00  0.00    +0.033 C 
ATOM      5  C   UNL     1      32.389  -8.724 -23.690  0.00  0.00    +0.000 C 
ATOM      6  C   UNL     1      31.921  -9.882 -23.069  0.00  0.00    +0.006 C 
ENDROOT
BRANCH   1  10
ATOM      7  F   UNL     1      31.075  -5.752 -20.404  0.00  0.00    -0.166 F 
ATOM      8  F   UNL     1      33.026  -6.384 -19.693  0.00  0.00    -0.166 F 
ATOM      9  F   UNL     1      32.859  -5.246 -21.539  0.00  0.00    -0.166 F 
ATOM     10  C   UNL     1      32.274  -6.247 -20.823  0.00  0.00    +0.419 C 
ENDBRANCH   1  10
BRANCH   3  14
ATOM     11  F   UNL     1      30.975  -7.375 -19.111  0.00  0.00    -0.166 F 
ATOM     12  F   UNL     1      30.241  -9.412 -19.232  0.00  0.00    -0.166 F 
ATOM     13  F   UNL     1      32.323  -9.037 -18.730  0.00  0.00    -0.166 F 
ATOM     14  C   UNL     1      31.310  -8.624 -19.541  0.00  0.00    +0.419 C 
ENDBRANCH   3  14
BRANCH   2  16
ATOM     15  C   UNL     1      33.384  -6.319 -24.916  0.00  0.00    +0.058 C 
ATOM     16  C   UNL     1      32.999  -6.350 -23.640  0.00  0.00    +0.005 C 
BRANCH  15  24
ATOM     17  O   UNL     1      33.754  -4.282 -29.563  0.00  0.00    -0.350 OA
ATOM     18  O   UNL     1      34.513  -4.305 -24.701  0.00  0.00    -0.270 OA
ATOM     19  N   UNL     1      33.577  -4.733 -26.784  0.00  0.00    -0.271 N 
ATOM     20  C   UNL     1      33.910  -3.408 -27.308  0.00  0.00    +0.126 C 
ATOM     21  C   UNL     1      32.820  -5.565 -27.729  0.00  0.00    +0.126 C 
ATOM     22  C   UNL     1      34.581  -3.534 -28.669  0.00  0.00    +0.164 C 
ATOM     23  C   UNL     1      33.535  -5.609 -29.074  0.00  0.00    +0.164 C 
ATOM     24  C   UNL     1      33.872  -5.036 -25.458  0.00  0.00    +0.249 C 
ENDBRANCH  15  24
ENDBRANCH   2  16
BRANCH   4  25
ATOM     25  S   UNL     1      30.971 -11.371 -20.977  0.00  0.00    -0.087 S 
BRANCH  25  26
ATOM     26  C   UNL     1      32.118 -12.559 -21.653  0.00  0.00    +0.031 C 
ATOM     27  C   UNL     1      32.074 -12.875 -23.009  0.00  0.00    +0.021 C 
ATOM     28  C   UNL     1      33.054 -13.170 -20.821  0.00  0.00    +0.007 C 
ATOM     29  C   UNL     1      32.970 -13.803 -23.536  0.00  0.00    +0.042 C 
ATOM     30  C   UNL     1      33.952 -14.099 -21.348  0.00  0.00    +0.002 C 
ATOM     31  C   UNL     1      33.909 -14.416 -22.706  0.00  0.00    +0.014 C 
BRANCH  29  32
ATOM     32  N   UNL     1      32.929 -14.125 -24.909  0.00  0.00    -0.357 N 
ATOM     33  H   UNL     1      33.714 -14.531 -25.343  0.00  0.00    +0.142 HD
ATOM     34  H   UNL     1      32.116 -13.944 -25.433  0.00  0.00    +0.142 HD
ENDBRANCH  29  32
ENDBRANCH  25  26
ENDBRANCH   4  25
TORSDOF 7
ENDMDL
