MODEL 1
REMARK VINA RESULT:     -13.3      0.000      0.000
REMARK  Name = 24743471
REMARK  3 active torsions:
REMARK  status: ('A' for Active; 'I' for Inactive)
REMARK    1  A    between atoms: C_1  and  N_7
REMARK    2  A    between atoms: C_6  and  C_17
REMARK    3  A    between atoms: C_22  and  N_24
REMARK                            x       y       z     vdW  Elec       q    Type
REMARK                         _______ _______ _______ _____ _____    ______ ____
ROOT
ATOM      1  C   UNL     1      35.796 -22.947 -15.485  0.00  0.00    +0.048 C 
ATOM      2  C   UNL     1      34.548 -23.024 -16.101  0.00  0.00    +0.015 C 
ATOM      3  C   UNL     1      36.786 -22.118 -16.015  0.00  0.00    +0.015 C 
ATOM      4  C   UNL     1      34.288 -22.272 -17.248  0.00  0.00    +0.001 C 
ATOM      5  C   UNL     1      36.525 -21.366 -17.161  0.00  0.00    +0.001 C 
ATOM      6  C   UNL     1      35.276 -21.444 -17.776  0.00  0.00    +0.000 C 
ENDROOT
BRANCH   1   7
ATOM      7  N   UNL     1      36.054 -23.690 -14.350  0.00  0.00    -0.311 N 
ATOM      8  N   UNL     1      38.666 -25.954 -13.859  0.00  0.00    +0.387 N 
ATOM      9  C   UNL     1      36.650 -25.449 -12.865  0.00  0.00    -0.003 C 
ATOM     10  C   UNL     1      36.518 -25.080 -14.352  0.00  0.00    +0.050 C 
ATOM     11  C   UNL     1      35.846 -24.400 -12.117  0.00  0.00    +0.021 C 
ATOM     12  C   UNL     1      38.149 -25.428 -12.597  0.00  0.00    -0.076 C 
ATOM     13  C   UNL     1      37.941 -25.226 -14.905  0.00  0.00    -0.057 C 
ATOM     14  C   UNL     1      35.939 -23.156 -12.994  0.00  0.00    +0.091 C 
ATOM     15  C   UNL     1      40.109 -25.805 -13.975  0.00  0.00    -0.101 C 
ATOM     16  H   UNL     1      38.516 -26.962 -13.933  0.00  0.00    -0.080 HD
ENDBRANCH   1   7
BRANCH   6  17
ATOM     17  C   UNL     1      35.007 -20.664 -18.966  0.00  0.00    +0.000 C 
ATOM     18  C   UNL     1      36.053 -20.019 -19.627  0.00  0.00    +0.001 C 
ATOM     19  C   UNL     1      33.704 -20.556 -19.449  0.00  0.00    +0.001 C 
ATOM     20  C   UNL     1      35.795 -19.267 -20.773  0.00  0.00    +0.017 C 
ATOM     21  C   UNL     1      33.445 -19.804 -20.596  0.00  0.00    +0.017 C 
ATOM     22  C   UNL     1      34.491 -19.160 -21.257  0.00  0.00    +0.077 C 
BRANCH  22  24
ATOM     23  O   UNL     1      35.069 -16.287 -21.773  0.00  0.00    -0.268 OA
ATOM     24  N   UNL     1      34.224 -18.381 -22.444  0.00  0.00    -0.155 N 
ATOM     25  N   UNL     1      33.657 -19.115 -23.460  0.00  0.00    -0.170 NA
ATOM     26  C   UNL     1      34.508 -17.019 -22.588  0.00  0.00    +0.272 C 
ATOM     27  C   UNL     1      34.109 -16.387 -23.871  0.00  0.00    +0.062 C 
ATOM     28  C   UNL     1      33.354 -18.511 -24.556  0.00  0.00    +0.118 C 
ATOM     29  C   UNL     1      33.546 -17.095 -24.843  0.00  0.00    +0.027 C 
ENDBRANCH  22  24
ENDBRANCH   6  17
TORSDOF 3
ENDMDL
MODEL 2
REMARK VINA RESULT:     -12.4      0.953      1.551
REMARK  Name = 24743471
REMARK  3 active torsions:
REMARK  status: ('A' for Active; 'I' for Inactive)
REMARK    1  A    between atoms: C_1  and  N_7
REMARK    2  A    between atoms: C_6  and  C_17
REMARK    3  A    between atoms: C_22  and  N_24
REMARK                            x       y       z     vdW  Elec       q    Type
REMARK                         _______ _______ _______ _____ _____    ______ ____
ROOT
ATOM      1  C   UNL     1      35.787 -22.956 -15.606  0.00  0.00    +0.048 C 
ATOM      2  C   UNL     1      36.792 -22.119 -16.088  0.00  0.00    +0.015 C 
ATOM      3  C   UNL     1      34.547 -22.997 -16.244  0.00  0.00    +0.015 C 
ATOM      4  C   UNL     1      36.558 -21.320 -17.208  0.00  0.00    +0.001 C 
ATOM      5  C   UNL     1      34.313 -22.199 -17.364  0.00  0.00    +0.001 C 
ATOM      6  C   UNL     1      35.319 -21.361 -17.846  0.00  0.00    +0.000 C 
ENDROOT
BRANCH   1   7
ATOM      7  N   UNL     1      36.018 -23.747 -14.498  0.00  0.00    -0.311 N 
ATOM      8  N   UNL     1      38.703 -25.918 -13.977  0.00  0.00    +0.387 N 
ATOM      9  C   UNL     1      36.614 -25.557 -13.075  0.00  0.00    -0.003 C 
ATOM     10  C   UNL     1      36.546 -25.114 -14.546  0.00  0.00    +0.050 C 
ATOM     11  C   UNL     1      35.722 -24.587 -12.320  0.00  0.00    +0.021 C 
ATOM     12  C   UNL     1      38.094 -25.484 -12.721  0.00  0.00    -0.076 C 
ATOM     13  C   UNL     1      38.003 -25.167 -15.024  0.00  0.00    -0.057 C 
ATOM     14  C   UNL     1      35.804 -23.294 -13.125  0.00  0.00    +0.091 C 
ATOM     15  C   UNL     1      40.141 -25.699 -14.003  0.00  0.00    -0.101 C 
ATOM     16  H   UNL     1      38.605 -26.925 -14.112  0.00  0.00    -0.080 HD
ENDBRANCH   1   7
BRANCH   6  17
ATOM     17  C   UNL     1      35.075 -20.533 -19.008  0.00  0.00    +0.000 C 
ATOM     18  C   UNL     1      36.124 -19.814 -19.583  0.00  0.00    +0.001 C 
ATOM     19  C   UNL     1      33.794 -20.454 -19.551  0.00  0.00    +0.001 C 
ATOM     20  C   UNL     1      35.889 -19.017 -20.703  0.00  0.00    +0.017 C 
ATOM     21  C   UNL     1      33.559 -19.656 -20.671  0.00  0.00    +0.017 C 
ATOM     22  C   UNL     1      34.608 -18.937 -21.247  0.00  0.00    +0.077 C 
BRANCH  22  24
ATOM     23  O   UNL     1      33.841 -19.766 -24.000  0.00  0.00    -0.268 OA
ATOM     24  N   UNL     1      34.365 -18.111 -22.406  0.00  0.00    -0.155 N 
ATOM     25  N   UNL     1      34.480 -16.765 -22.149  0.00  0.00    -0.170 NA
ATOM     26  C   UNL     1      34.032 -18.593 -23.677  0.00  0.00    +0.272 C 
ATOM     27  C   UNL     1      33.873 -17.583 -24.753  0.00  0.00    +0.062 C 
ATOM     28  C   UNL     1      34.308 -15.938 -23.122  0.00  0.00    +0.118 C 
ATOM     29  C   UNL     1      34.002 -16.284 -24.505  0.00  0.00    +0.027 C 
ENDBRANCH  22  24
ENDBRANCH   6  17
TORSDOF 3
ENDMDL
MODEL 3
REMARK VINA RESULT:     -12.1      1.083      2.195
REMARK  Name = 24743471
REMARK  3 active torsions:
REMARK  status: ('A' for Active; 'I' for Inactive)
REMARK    1  A    between atoms: C_1  and  N_7
REMARK    2  A    between atoms: C_6  and  C_17
REMARK    3  A    between atoms: C_22  and  N_24
REMARK                            x       y       z     vdW  Elec       q    Type
REMARK                         _______ _______ _______ _____ _____    ______ ____
ROOT
ATOM      1  C   UNL     1      36.215 -23.326 -15.379  0.00  0.00    +0.048 C 
ATOM      2  C   UNL     1      37.195 -22.494 -15.920  0.00  0.00    +0.015 C 
ATOM      3  C   UNL     1      34.933 -23.342 -15.929  0.00  0.00    +0.015 C 
ATOM      4  C   UNL     1      36.893 -21.677 -17.010  0.00  0.00    +0.001 C 
ATOM      5  C   UNL     1      34.632 -22.526 -17.020  0.00  0.00    +0.001 C 
ATOM      6  C   UNL     1      35.612 -21.694 -17.559  0.00  0.00    +0.000 C 
ENDROOT
BRANCH   1   7
ATOM      7  N   UNL     1      36.513 -24.135 -14.300  0.00  0.00    -0.311 N 
ATOM      8  N   UNL     1      36.511 -23.238 -10.926  0.00  0.00    +0.387 N 
ATOM      9  C   UNL     1      37.335 -24.953 -12.224  0.00  0.00    -0.003 C 
ATOM     10  C   UNL     1      37.272 -23.706 -13.122  0.00  0.00    +0.050 C 
ATOM     11  C   UNL     1      36.989 -26.120 -13.131  0.00  0.00    +0.021 C 
ATOM     12  C   UNL     1      36.331 -24.676 -11.113  0.00  0.00    -0.076 C 
ATOM     13  C   UNL     1      36.517 -22.671 -12.278  0.00  0.00    -0.057 C 
ATOM     14  C   UNL     1      36.061 -25.520 -14.182  0.00  0.00    +0.091 C 
ATOM     15  C   UNL     1      35.479 -22.653 -10.082  0.00  0.00    -0.101 C 
ATOM     16  H   UNL     1      37.380 -23.032 -10.431  0.00  0.00    -0.080 HD
ENDBRANCH   1   7
BRANCH   6  17
ATOM     17  C   UNL     1      35.299 -20.848 -18.691  0.00  0.00    +0.000 C 
ATOM     18  C   UNL     1      36.294 -20.059 -19.267  0.00  0.00    +0.001 C 
ATOM     19  C   UNL     1      34.002 -20.820 -19.203  0.00  0.00    +0.001 C 
ATOM     20  C   UNL     1      35.993 -19.242 -20.358  0.00  0.00    +0.017 C 
ATOM     21  C   UNL     1      33.700 -20.004 -20.294  0.00  0.00    +0.017 C 
ATOM     22  C   UNL     1      34.696 -19.215 -20.870  0.00  0.00    +0.077 C 
BRANCH  22  24
ATOM     23  O   UNL     1      34.876 -16.253 -21.090  0.00  0.00    -0.268 OA
ATOM     24  N   UNL     1      34.383 -18.370 -21.999  0.00  0.00    -0.155 N 
ATOM     25  N   UNL     1      33.988 -19.075 -23.113  0.00  0.00    -0.170 NA
ATOM     26  C   UNL     1      34.474 -16.974 -22.003  0.00  0.00    +0.272 C 
ATOM     27  C   UNL     1      34.058 -16.282 -23.250  0.00  0.00    +0.062 C 
ATOM     28  C   UNL     1      33.660 -18.415 -24.170  0.00  0.00    +0.118 C 
ATOM     29  C   UNL     1      33.659 -16.965 -24.317  0.00  0.00    +0.027 C 
ENDBRANCH  22  24
ENDBRANCH   6  17
TORSDOF 3
ENDMDL
MODEL 4
REMARK VINA RESULT:     -11.6      7.410     14.613
REMARK  Name = 24743471
REMARK  3 active torsions:
REMARK  status: ('A' for Active; 'I' for Inactive)
REMARK    1  A    between atoms: C_1  and  N_7
REMARK    2  A    between atoms: C_6  and  C_17
REMARK    3  A    between atoms: C_22  and  N_24
REMARK                            x       y       z     vdW  Elec       q    Type
REMARK                         _______ _______ _______ _____ _____    ______ ____
ROOT
ATOM      1  C   UNL     1      31.957  -8.800 -22.616  0.00  0.00    +0.048 C 
ATOM      2  C   UNL     1      32.993  -9.260 -23.429  0.00  0.00    +0.015 C 
ATOM      3  C   UNL     1      31.347  -9.665 -21.707  0.00  0.00    +0.015 C 
ATOM      4  C   UNL     1      33.418 -10.585 -23.334  0.00  0.00    +0.001 C 
ATOM      5  C   UNL     1      31.773 -10.990 -21.612  0.00  0.00    +0.001 C 
ATOM      6  C   UNL     1      32.808 -11.449 -22.426  0.00  0.00    +0.000 C 
ENDROOT
BRANCH   1   7
ATOM      7  N   UNL     1      31.536  -7.488 -22.708  0.00  0.00    -0.311 N 
ATOM      8  N   UNL     1      33.421  -4.733 -23.732  0.00  0.00    +0.387 N 
ATOM      9  C   UNL     1      31.441  -5.113 -22.616  0.00  0.00    -0.003 C 
ATOM     10  C   UNL     1      32.348  -6.325 -22.340  0.00  0.00    +0.050 C 
ATOM     11  C   UNL     1      30.034  -5.677 -22.710  0.00  0.00    +0.021 C 
ATOM     12  C   UNL     1      31.986  -4.514 -23.906  0.00  0.00    -0.076 C 
ATOM     13  C   UNL     1      33.546  -6.121 -23.276  0.00  0.00    -0.057 C 
ATOM     14  C   UNL     1      30.230  -7.096 -23.234  0.00  0.00    +0.091 C 
ATOM     15  C   UNL     1      34.175  -4.477 -24.950  0.00  0.00    -0.101 C 
ATOM     16  H   UNL     1      33.819  -4.081 -23.054  0.00  0.00    -0.080 HD
ENDBRANCH   1   7
BRANCH   6  17
ATOM     17  C   UNL     1      33.249 -12.824 -22.327  0.00  0.00    +0.000 C 
ATOM     18  C   UNL     1      33.380 -13.425 -21.075  0.00  0.00    +0.001 C 
ATOM     19  C   UNL     1      33.544 -13.547 -23.483  0.00  0.00    +0.001 C 
ATOM     20  C   UNL     1      33.804 -14.751 -20.979  0.00  0.00    +0.017 C 
ATOM     21  C   UNL     1      33.969 -14.873 -23.387  0.00  0.00    +0.017 C 
ATOM     22  C   UNL     1      34.099 -15.474 -22.134  0.00  0.00    +0.077 C 
BRANCH  22  24
ATOM     23  O   UNL     1      33.677 -17.711 -24.050  0.00  0.00    -0.268 OA
ATOM     24  N   UNL     1      34.539 -16.846 -22.035  0.00  0.00    -0.155 N 
ATOM     25  N   UNL     1      35.280 -17.099 -20.904  0.00  0.00    -0.170 NA
ATOM     26  C   UNL     1      34.270 -17.843 -22.979  0.00  0.00    +0.272 C 
ATOM     27  C   UNL     1      34.767 -19.207 -22.668  0.00  0.00    +0.062 C 
ATOM     28  C   UNL     1      35.701 -18.300 -20.704  0.00  0.00    +0.118 C 
ATOM     29  C   UNL     1      35.467 -19.452 -21.566  0.00  0.00    +0.027 C 
ENDBRANCH  22  24
ENDBRANCH   6  17
TORSDOF 3
ENDMDL
MODEL 5
REMARK VINA RESULT:     -11.6      1.391      2.461
REMARK  Name = 24743471
REMARK  3 active torsions:
REMARK  status: ('A' for Active; 'I' for Inactive)
REMARK    1  A    between atoms: C_1  and  N_7
REMARK    2  A    between atoms: C_6  and  C_17
REMARK    3  A    between atoms: C_22  and  N_24
REMARK                            x       y       z     vdW  Elec       q    Type
REMARK                         _______ _______ _______ _____ _____    ______ ____
ROOT
ATOM      1  C   UNL     1      36.111 -23.214 -15.728  0.00  0.00    +0.048 C 
ATOM      2  C   UNL     1      37.109 -22.361 -16.200  0.00  0.00    +0.015 C 
ATOM      3  C   UNL     1      34.843 -23.193 -16.310  0.00  0.00    +0.015 C 
ATOM      4  C   UNL     1      36.839 -21.487 -17.253  0.00  0.00    +0.001 C 
ATOM      5  C   UNL     1      34.574 -22.319 -17.364  0.00  0.00    +0.001 C 
ATOM      6  C   UNL     1      35.573 -21.466 -17.834  0.00  0.00    +0.000 C 
ENDROOT
BRANCH   1   7
ATOM      7  N   UNL     1      36.377 -24.080 -14.686  0.00  0.00    -0.311 N 
ATOM      8  N   UNL     1      36.423 -23.329 -11.277  0.00  0.00    +0.387 N 
ATOM      9  C   UNL     1      37.170 -25.021 -12.650  0.00  0.00    -0.003 C 
ATOM     10  C   UNL     1      37.157 -23.735 -13.494  0.00  0.00    +0.050 C 
ATOM     11  C   UNL     1      36.770 -26.132 -13.605  0.00  0.00    +0.021 C 
ATOM     12  C   UNL     1      36.181 -24.749 -11.524  0.00  0.00    -0.076 C 
ATOM     13  C   UNL     1      36.450 -22.706 -12.604  0.00  0.00    -0.057 C 
ATOM     14  C   UNL     1      35.866 -25.448 -14.625  0.00  0.00    +0.091 C 
ATOM     15  C   UNL     1      35.421 -22.737 -10.404  0.00  0.00    -0.101 C 
ATOM     16  H   UNL     1      37.302 -23.181 -10.778  0.00  0.00    -0.080 HD
ENDBRANCH   1   7
BRANCH   6  17
ATOM     17  C   UNL     1      35.293 -20.560 -18.927  0.00  0.00    +0.000 C 
ATOM     18  C   UNL     1      36.307 -19.749 -19.437  0.00  0.00    +0.001 C 
ATOM     19  C   UNL     1      34.009 -20.496 -19.469  0.00  0.00    +0.001 C 
ATOM     20  C   UNL     1      36.038 -18.875 -20.491  0.00  0.00    +0.017 C 
ATOM     21  C   UNL     1      33.740 -19.622 -20.523  0.00  0.00    +0.017 C 
ATOM     22  C   UNL     1      34.754 -18.811 -21.033  0.00  0.00    +0.077 C 
BRANCH  22  24
ATOM     23  O   UNL     1      33.841 -19.442 -23.793  0.00  0.00    -0.268 OA
ATOM     24  N   UNL     1      34.475 -17.906 -22.123  0.00  0.00    -0.155 N 
ATOM     25  N   UNL     1      34.631 -16.582 -21.785  0.00  0.00    -0.170 NA
ATOM     26  C   UNL     1      34.072 -18.298 -23.405  0.00  0.00    +0.272 C 
ATOM     27  C   UNL     1      33.885 -17.216 -24.404  0.00  0.00    +0.062 C 
ATOM     28  C   UNL     1      34.432 -15.690 -22.693  0.00  0.00    +0.118 C 
ATOM     29  C   UNL     1      34.054 -15.939 -24.079  0.00  0.00    +0.027 C 
ENDBRANCH  22  24
ENDBRANCH   6  17
TORSDOF 3
ENDMDL
MODEL 6
REMARK VINA RESULT:     -11.4      6.961     14.052
REMARK  Name = 24743471
REMARK  3 active torsions:
REMARK  status: ('A' for Active; 'I' for Inactive)
REMARK    1  A    between atoms: C_1  and  N_7
REMARK    2  A    between atoms: C_6  and  C_17
REMARK    3  A    between atoms: C_22  and  N_24
REMARK                            x       y       z     vdW  Elec       q    Type
REMARK                         _______ _______ _______ _____ _____    ______ ____
ROOT
ATOM      1  C   UNL     1      31.942  -9.567 -22.881  0.00  0.00    +0.048 C 
ATOM      2  C   UNL     1      33.033 -10.044 -23.607  0.00  0.00    +0.015 C 
ATOM      3  C   UNL     1      31.323 -10.384 -21.934  0.00  0.00    +0.015 C 
ATOM      4  C   UNL     1      33.505 -11.339 -23.387  0.00  0.00    +0.001 C 
ATOM      5  C   UNL     1      31.796 -11.678 -21.714  0.00  0.00    +0.001 C 
ATOM      6  C   UNL     1      32.886 -12.154 -22.441  0.00  0.00    +0.000 C 
ENDROOT
BRANCH   1   7
ATOM      7  N   UNL     1      31.475  -8.285 -23.097  0.00  0.00    -0.311 N 
ATOM      8  N   UNL     1      31.192  -5.719 -20.746  0.00  0.00    +0.387 N 
ATOM      9  C   UNL     1      30.382  -6.187 -22.851  0.00  0.00    -0.003 C 
ATOM     10  C   UNL     1      30.631  -7.538 -22.159  0.00  0.00    +0.050 C 
ATOM     11  C   UNL     1      30.734  -6.412 -24.311  0.00  0.00    +0.021 C 
ATOM     12  C   UNL     1      31.283  -5.207 -22.112  0.00  0.00    -0.076 C 
ATOM     13  C   UNL     1      31.369  -7.170 -20.866  0.00  0.00    -0.057 C 
ATOM     14  C   UNL     1      31.808  -7.494 -24.279  0.00  0.00    +0.091 C 
ATOM     15  C   UNL     1      32.170  -5.111 -19.857  0.00  0.00    -0.101 C 
ATOM     16  H   UNL     1      30.294  -5.487 -20.319  0.00  0.00    -0.080 HD
ENDBRANCH   1   7
BRANCH   6  17
ATOM     17  C   UNL     1      33.375 -13.497 -22.213  0.00  0.00    +0.000 C 
ATOM     18  C   UNL     1      33.789 -14.281 -23.291  0.00  0.00    +0.001 C 
ATOM     19  C   UNL     1      33.432 -14.008 -20.917  0.00  0.00    +0.001 C 
ATOM     20  C   UNL     1      34.260 -15.575 -23.071  0.00  0.00    +0.017 C 
ATOM     21  C   UNL     1      33.904 -15.303 -20.697  0.00  0.00    +0.017 C 
ATOM     22  C   UNL     1      34.317 -16.086 -21.775  0.00  0.00    +0.077 C 
BRANCH  22  24
ATOM     23  O   UNL     1      33.533 -18.613 -23.136  0.00  0.00    -0.268 OA
ATOM     24  N   UNL     1      34.805 -17.426 -21.548  0.00  0.00    -0.155 N 
ATOM     25  N   UNL     1      35.790 -17.491 -20.589  0.00  0.00    -0.170 NA
ATOM     26  C   UNL     1      34.356 -18.567 -22.223  0.00  0.00    +0.272 C 
ATOM     27  C   UNL     1      34.949 -19.863 -21.807  0.00  0.00    +0.062 C 
ATOM     28  C   UNL     1      36.278 -18.645 -20.290  0.00  0.00    +0.118 C 
ATOM     29  C   UNL     1      35.886 -19.925 -20.869  0.00  0.00    +0.027 C 
ENDBRANCH  22  24
ENDBRANCH   6  17
TORSDOF 3
ENDMDL
MODEL 7
REMARK VINA RESULT:     -11.4      7.647     14.877
REMARK  Name = 24743471
REMARK  3 active torsions:
REMARK  status: ('A' for Active; 'I' for Inactive)
REMARK    1  A    between atoms: C_1  and  N_7
REMARK    2  A    between atoms: C_6  and  C_17
REMARK    3  A    between atoms: C_22  and  N_24
REMARK                            x       y       z     vdW  Elec       q    Type
REMARK                         _______ _______ _______ _____ _____    ______ ____
ROOT
ATOM      1  C   UNL     1      32.074  -8.383 -22.773  0.00  0.00    +0.048 C 
ATOM      2  C   UNL     1      33.241  -8.818 -23.402  0.00  0.00    +0.015 C 
ATOM      3  C   UNL     1      31.247  -9.300 -22.125  0.00  0.00    +0.015 C 
ATOM      4  C   UNL     1      33.580 -10.171 -23.382  0.00  0.00    +0.001 C 
ATOM      5  C   UNL     1      31.588 -10.653 -22.105  0.00  0.00    +0.001 C 
ATOM      6  C   UNL     1      32.754 -11.087 -22.734  0.00  0.00    +0.000 C 
ENDROOT
BRANCH   1   7
ATOM      7  N   UNL     1      31.737  -7.044 -22.791  0.00  0.00    -0.311 N 
ATOM      8  N   UNL     1      33.604  -4.415 -24.132  0.00  0.00    +0.387 N 
ATOM      9  C   UNL     1      31.829  -4.669 -22.686  0.00  0.00    -0.003 C 
ATOM     10  C   UNL     1      32.682  -5.944 -22.572  0.00  0.00    +0.050 C 
ATOM     11  C   UNL     1      30.391  -5.132 -22.531  0.00  0.00    +0.021 C 
ATOM     12  C   UNL     1      32.180  -4.094 -24.052  0.00  0.00    -0.076 C 
ATOM     13  C   UNL     1      33.708  -5.814 -23.704  0.00  0.00    -0.057 C 
ATOM     14  C   UNL     1      30.390  -6.555 -23.080  0.00  0.00    +0.091 C 
ATOM     15  C   UNL     1      34.149  -4.198 -25.464  0.00  0.00    -0.101 C 
ATOM     16  H   UNL     1      34.159  -3.801 -23.535  0.00  0.00    -0.080 HD
ENDBRANCH   1   7
BRANCH   6  17
ATOM     17  C   UNL     1      33.106 -12.491 -22.713  0.00  0.00    +0.000 C 
ATOM     18  C   UNL     1      33.012 -13.250 -23.880  0.00  0.00    +0.001 C 
ATOM     19  C   UNL     1      33.538 -13.085 -21.528  0.00  0.00    +0.001 C 
ATOM     20  C   UNL     1      33.351 -14.603 -23.861  0.00  0.00    +0.017 C 
ATOM     21  C   UNL     1      33.877 -14.438 -21.508  0.00  0.00    +0.017 C 
ATOM     22  C   UNL     1      33.783 -15.197 -22.676  0.00  0.00    +0.077 C 
BRANCH  22  24
ATOM     23  O   UNL     1      35.040 -16.774 -20.488  0.00  0.00    -0.268 OA
ATOM     24  N   UNL     1      34.134 -16.598 -22.656  0.00  0.00    -0.155 N 
ATOM     25  N   UNL     1      33.791 -17.261 -23.811  0.00  0.00    -0.170 NA
ATOM     26  C   UNL     1      34.751 -17.253 -21.584  0.00  0.00    +0.272 C 
ATOM     27  C   UNL     1      35.077 -18.688 -21.779  0.00  0.00    +0.062 C 
ATOM     28  C   UNL     1      34.083 -18.512 -23.909  0.00  0.00    +0.118 C 
ATOM     29  C   UNL     1      34.760 -19.322 -22.903  0.00  0.00    +0.027 C 
ENDBRANCH  22  24
ENDBRANCH   6  17
TORSDOF 3
ENDMDL
MODEL 8
REMARK VINA RESULT:     -11.2      7.069     14.266
REMARK  Name = 24743471
REMARK  3 active torsions:
REMARK  status: ('A' for Active; 'I' for Inactive)
REMARK    1  A    between atoms: C_1  and  N_7
REMARK    2  A    between atoms: C_6  and  C_17
REMARK    3  A    between atoms: C_22  and  N_24
REMARK                            x       y       z     vdW  Elec       q    Type
REMARK                         _______ _______ _______ _____ _____    ______ ____
ROOT
ATOM      1  C   UNL     1      31.979  -9.285 -22.633  0.00  0.00    +0.048 C 
ATOM      2  C   UNL     1      31.433 -10.101 -21.642  0.00  0.00    +0.015 C 
ATOM      3  C   UNL     1      32.975  -9.782 -23.474  0.00  0.00    +0.015 C 
ATOM      4  C   UNL     1      31.882 -11.413 -21.492  0.00  0.00    +0.001 C 
ATOM      5  C   UNL     1      33.424 -11.095 -23.324  0.00  0.00    +0.001 C 
ATOM      6  C   UNL     1      32.877 -11.909 -22.333  0.00  0.00    +0.000 C 
ENDROOT
BRANCH   1   7
ATOM      7  N   UNL     1      31.535  -7.986 -22.783  0.00  0.00    -0.311 N 
ATOM      8  N   UNL     1      33.473  -5.155 -23.431  0.00  0.00    +0.387 N 
ATOM      9  C   UNL     1      31.343  -5.618 -22.684  0.00  0.00    -0.003 C 
ATOM     10  C   UNL     1      32.230  -6.804 -22.266  0.00  0.00    +0.050 C 
ATOM     11  C   UNL     1      29.995  -6.225 -23.029  0.00  0.00    +0.021 C 
ATOM     12  C   UNL     1      32.084  -4.980 -23.852  0.00  0.00    -0.076 C 
ATOM     13  C   UNL     1      33.565  -6.546 -22.976  0.00  0.00    -0.057 C 
ATOM     14  C   UNL     1      30.328  -7.628 -23.525  0.00  0.00    +0.091 C 
ATOM     15  C   UNL     1      34.419  -4.855 -24.495  0.00  0.00    -0.101 C 
ATOM     16  H   UNL     1      33.723  -4.502 -22.687  0.00  0.00    -0.080 HD
ENDBRANCH   1   7
BRANCH   6  17
ATOM     17  C   UNL     1      33.344 -13.270 -22.177  0.00  0.00    +0.000 C 
ATOM     18  C   UNL     1      33.741 -14.002 -23.297  0.00  0.00    +0.001 C 
ATOM     19  C   UNL     1      33.395 -13.850 -20.910  0.00  0.00    +0.001 C 
ATOM     20  C   UNL     1      34.190 -15.315 -23.148  0.00  0.00    +0.017 C 
ATOM     21  C   UNL     1      33.845 -15.162 -20.761  0.00  0.00    +0.017 C 
ATOM     22  C   UNL     1      34.242 -15.894 -21.881  0.00  0.00    +0.077 C 
BRANCH  22  24
ATOM     23  O   UNL     1      33.468 -18.318 -23.424  0.00  0.00    -0.268 OA
ATOM     24  N   UNL     1      34.708 -17.253 -21.727  0.00  0.00    -0.155 N 
ATOM     25  N   UNL     1      35.663 -17.392 -20.747  0.00  0.00    -0.170 NA
ATOM     26  C   UNL     1      34.265 -18.342 -22.486  0.00  0.00    +0.272 C 
ATOM     27  C   UNL     1      34.830 -19.670 -22.138  0.00  0.00    +0.062 C 
ATOM     28  C   UNL     1      36.129 -18.569 -20.509  0.00  0.00    +0.118 C 
ATOM     29  C   UNL     1      35.739 -19.804 -21.180  0.00  0.00    +0.027 C 
ENDBRANCH  22  24
ENDBRANCH   6  17
TORSDOF 3
ENDMDL
MODEL 9
REMARK VINA RESULT:     -11.2      6.615     13.724
REMARK  Name = 24743471
REMARK  3 active torsions:
REMARK  status: ('A' for Active; 'I' for Inactive)
REMARK    1  A    between atoms: C_1  and  N_7
REMARK    2  A    between atoms: C_6  and  C_17
REMARK    3  A    between atoms: C_22  and  N_24
REMARK                            x       y       z     vdW  Elec       q    Type
REMARK                         _______ _______ _______ _____ _____    ______ ____
ROOT
ATOM      1  C   UNL     1      32.045 -10.060 -22.825  0.00  0.00    +0.048 C 
ATOM      2  C   UNL     1      33.056 -10.622 -23.603  0.00  0.00    +0.015 C 
ATOM      3  C   UNL     1      31.504 -10.779 -21.759  0.00  0.00    +0.015 C 
ATOM      4  C   UNL     1      33.528 -11.903 -23.316  0.00  0.00    +0.001 C 
ATOM      5  C   UNL     1      31.976 -12.060 -21.471  0.00  0.00    +0.001 C 
ATOM      6  C   UNL     1      32.988 -12.621 -22.250  0.00  0.00    +0.000 C 
ENDROOT
BRANCH   1   7
ATOM      7  N   UNL     1      31.578  -8.792 -23.108  0.00  0.00    -0.311 N 
ATOM      8  N   UNL     1      31.162  -6.148 -20.865  0.00  0.00    +0.387 N 
ATOM      9  C   UNL     1      30.457  -6.697 -22.989  0.00  0.00    -0.003 C 
ATOM     10  C   UNL     1      30.684  -8.021 -22.239  0.00  0.00    +0.050 C 
ATOM     11  C   UNL     1      30.881  -6.969 -24.422  0.00  0.00    +0.021 C 
ATOM     12  C   UNL     1      31.314  -5.683 -22.243  0.00  0.00    -0.076 C 
ATOM     13  C   UNL     1      31.356  -7.600 -20.926  0.00  0.00    -0.057 C 
ATOM     14  C   UNL     1      31.961  -8.039 -24.300  0.00  0.00    +0.091 C 
ATOM     15  C   UNL     1      32.092  -5.500 -19.953  0.00  0.00    -0.101 C 
ATOM     16  H   UNL     1      30.242  -5.910 -20.490  0.00  0.00    -0.080 HD
ENDBRANCH   1   7
BRANCH   6  17
ATOM     17  C   UNL     1      33.476 -13.951 -21.952  0.00  0.00    +0.000 C 
ATOM     18  C   UNL     1      33.880 -14.794 -22.988  0.00  0.00    +0.001 C 
ATOM     19  C   UNL     1      33.543 -14.389 -20.629  0.00  0.00    +0.001 C 
ATOM     20  C   UNL     1      34.351 -16.075 -22.700  0.00  0.00    +0.017 C 
ATOM     21  C   UNL     1      34.014 -15.670 -20.342  0.00  0.00    +0.017 C 
ATOM     22  C   UNL     1      34.418 -16.513 -21.378  0.00  0.00    +0.077 C 
BRANCH  22  24
ATOM     23  O   UNL     1      37.194 -17.565 -21.567  0.00  0.00    -0.268 OA
ATOM     24  N   UNL     1      34.905 -17.839 -21.081  0.00  0.00    -0.155 N 
ATOM     25  N   UNL     1      33.927 -18.687 -20.617  0.00  0.00    -0.170 NA
ATOM     26  C   UNL     1      36.234 -18.255 -21.225  0.00  0.00    +0.272 C 
ATOM     27  C   UNL     1      36.525 -19.677 -20.915  0.00  0.00    +0.062 C 
ATOM     28  C   UNL     1      34.250 -19.905 -20.345  0.00  0.00    +0.118 C 
ATOM     29  C   UNL     1      35.574 -20.498 -20.484  0.00  0.00    +0.027 C 
ENDBRANCH  22  24
ENDBRANCH   6  17
TORSDOF 3
ENDMDL
