MODEL 1
REMARK VINA RESULT:     -11.8      0.000      0.000
REMARK  Name = 11291932
REMARK  3 active torsions:
REMARK  status: ('A' for Active; 'I' for Inactive)
REMARK    1  A    between atoms: C_2  and  C_16
REMARK    2  A    between atoms: C_3  and  C_19
REMARK    3  A    between atoms: C_19  and  C_23
REMARK                            x       y       z     vdW  Elec       q    Type
REMARK                         _______ _______ _______ _____ _____    ______ ____
ROOT
ATOM      1  F   UNL     1      34.037  -6.698 -23.408  0.00  0.00    -0.204 F 
ATOM      2  C   UNL     1      32.304  -7.964 -22.390  0.00  0.00    +0.081 C 
ATOM      3  C   UNL     1      32.303 -10.363 -22.620  0.00  0.00    -0.016 C 
ATOM      4  C   UNL     1      31.719  -9.197 -22.124  0.00  0.00    +0.003 C 
ATOM      5  C   UNL     1      33.469  -7.884 -23.148  0.00  0.00    +0.144 C 
ATOM      6  C   UNL     1      33.470 -10.288 -23.380  0.00  0.00    -0.002 C 
ATOM      7  C   UNL     1      34.052  -9.049 -23.644  0.00  0.00    +0.029 C 
ENDROOT
BRANCH   2  16
ATOM      8  O   UNL     1      32.094  -6.349 -20.773  0.00  0.00    -0.270 OA
ATOM      9  N   UNL     1      30.706  -6.113 -22.642  0.00  0.00    -0.278 N 
ATOM     10  N   UNL     1      31.746  -4.530 -24.811  0.00  0.00    +0.385 N 
ATOM     11  C   UNL     1      30.084  -4.885 -22.150  0.00  0.00    +0.091 C 
ATOM     12  C   UNL     1      30.722  -3.625 -22.730  0.00  0.00    -0.002 C 
ATOM     13  C   UNL     1      30.336  -6.503 -24.008  0.00  0.00    +0.070 C 
ATOM     14  C   UNL     1      30.773  -3.588 -24.262  0.00  0.00    -0.080 C 
ATOM     15  C   UNL     1      31.217  -5.864 -25.084  0.00  0.00    -0.060 C 
ATOM     16  C   UNL     1      31.687  -6.739 -21.866  0.00  0.00    +0.251 C 
ATOM     17  H   UNL     1      32.511  -4.622 -24.144  0.00  0.00    -0.084 HD
ATOM     18  H   UNL     1      32.040  -4.148 -25.711  0.00  0.00    -0.084 HD
ENDBRANCH   2  16
BRANCH   3  19
ATOM     19  C   UNL     1      31.679 -11.688 -22.340  0.00  0.00    +0.074 C 
BRANCH  19  23
ATOM     20  O   UNL     1      34.062 -15.652 -25.313  0.00  0.00    -0.266 OA
ATOM     21  N   UNL     1      32.230 -12.753 -24.405  0.00  0.00    -0.174 NA
ATOM     22  N   UNL     1      32.820 -13.733 -25.128  0.00  0.00    -0.242 N 
ATOM     23  C   UNL     1      32.340 -12.783 -23.114  0.00  0.00    +0.083 A 
ATOM     24  C   UNL     1      33.078 -13.834 -22.386  0.00  0.00    +0.020 A 
ATOM     25  C   UNL     1      33.679 -14.832 -23.149  0.00  0.00    +0.059 A 
ATOM     26  C   UNL     1      33.191 -13.859 -20.994  0.00  0.00    +0.001 C 
ATOM     27  C   UNL     1      33.545 -14.787 -24.614  0.00  0.00    +0.273 A 
ATOM     28  C   UNL     1      34.394 -15.862 -22.530  0.00  0.00    +0.005 C 
ATOM     29  C   UNL     1      33.907 -14.886 -20.375  0.00  0.00    +0.000 C 
ATOM     30  C   UNL     1      34.507 -15.884 -21.140  0.00  0.00    +0.000 C 
ATOM     31  H   UNL     1      32.724 -13.689 -26.106  0.00  0.00    +0.192 HD
ENDBRANCH  19  23
ENDBRANCH   3  19
TORSDOF 3
ENDMDL
MODEL 2
REMARK VINA RESULT:     -11.5      2.208      3.048
REMARK  Name = 11291932
REMARK  3 active torsions:
REMARK  status: ('A' for Active; 'I' for Inactive)
REMARK    1  A    between atoms: C_2  and  C_16
REMARK    2  A    between atoms: C_3  and  C_19
REMARK    3  A    between atoms: C_19  and  C_23
REMARK                            x       y       z     vdW  Elec       q    Type
REMARK                         _______ _______ _______ _____ _____    ______ ____
ROOT
ATOM      1  F   UNL     1      32.233  -6.298 -19.590  0.00  0.00    -0.204 F 
ATOM      2  C   UNL     1      32.325  -7.634 -21.551  0.00  0.00    +0.081 C 
ATOM      3  C   UNL     1      31.348  -9.837 -21.527  0.00  0.00    -0.016 C 
ATOM      4  C   UNL     1      32.027  -8.826 -22.205  0.00  0.00    +0.003 C 
ATOM      5  C   UNL     1      31.948  -7.444 -20.225  0.00  0.00    +0.144 C 
ATOM      6  C   UNL     1      30.968  -9.652 -20.197  0.00  0.00    -0.002 C 
ATOM      7  C   UNL     1      31.269  -8.456 -19.547  0.00  0.00    +0.029 C 
ENDROOT
BRANCH   2  16
ATOM      8  O   UNL     1      34.269  -6.605 -22.207  0.00  0.00    -0.270 OA
ATOM      9  N   UNL     1      32.285  -5.624 -22.965  0.00  0.00    -0.278 N 
ATOM     10  N   UNL     1      31.305  -6.534 -25.515  0.00  0.00    +0.385 N 
ATOM     11  C   UNL     1      32.973  -4.562 -23.698  0.00  0.00    +0.091 C 
ATOM     12  C   UNL     1      33.134  -4.878 -25.183  0.00  0.00    -0.002 C 
ATOM     13  C   UNL     1      30.831  -5.680 -23.155  0.00  0.00    +0.070 C 
ATOM     14  C   UNL     1      31.825  -5.224 -25.903  0.00  0.00    -0.080 C 
ATOM     15  C   UNL     1      30.406  -6.516 -24.365  0.00  0.00    -0.060 C 
ATOM     16  C   UNL     1      33.041  -6.572 -22.268  0.00  0.00    +0.251 C 
ATOM     17  H   UNL     1      32.096  -7.137 -25.291  0.00  0.00    -0.084 HD
ATOM     18  H   UNL     1      30.754  -6.870 -26.305  0.00  0.00    -0.084 HD
ENDBRANCH   2  16
BRANCH   3  19
ATOM     19  C   UNL     1      31.028 -11.118 -22.221  0.00  0.00    +0.074 C 
BRANCH  19  23
ATOM     20  O   UNL     1      34.278 -15.166 -20.410  0.00  0.00    -0.266 OA
ATOM     21  N   UNL     1      32.076 -12.386 -20.490  0.00  0.00    -0.174 NA
ATOM     22  N   UNL     1      32.877 -13.385 -20.054  0.00  0.00    -0.242 N 
ATOM     23  C   UNL     1      31.919 -12.229 -21.767  0.00  0.00    +0.083 A 
ATOM     24  C   UNL     1      32.573 -13.085 -22.777  0.00  0.00    +0.020 A 
ATOM     25  C   UNL     1      33.392 -14.108 -22.307  0.00  0.00    +0.059 A 
ATOM     26  C   UNL     1      32.399 -12.908 -24.152  0.00  0.00    +0.001 C 
ATOM     27  C   UNL     1      33.562 -14.274 -20.855  0.00  0.00    +0.273 A 
ATOM     28  C   UNL     1      34.046 -14.959 -23.203  0.00  0.00    +0.005 C 
ATOM     29  C   UNL     1      33.050 -13.759 -25.047  0.00  0.00    +0.000 C 
ATOM     30  C   UNL     1      33.870 -14.782 -24.575  0.00  0.00    +0.000 C 
ATOM     31  H   UNL     1      32.980 -13.486 -19.081  0.00  0.00    +0.192 HD
ENDBRANCH  19  23
ENDBRANCH   3  19
TORSDOF 3
ENDMDL
MODEL 3
REMARK VINA RESULT:     -11.4      1.560      2.139
REMARK  Name = 11291932
REMARK  3 active torsions:
REMARK  status: ('A' for Active; 'I' for Inactive)
REMARK    1  A    between atoms: C_2  and  C_16
REMARK    2  A    between atoms: C_3  and  C_19
REMARK    3  A    between atoms: C_19  and  C_23
REMARK                            x       y       z     vdW  Elec       q    Type
REMARK                         _______ _______ _______ _____ _____    ______ ____
ROOT
ATOM      1  F   UNL     1      34.189  -6.371 -22.845  0.00  0.00    -0.204 F 
ATOM      2  C   UNL     1      32.264  -7.687 -22.394  0.00  0.00    +0.081 C 
ATOM      3  C   UNL     1      32.242 -10.008 -23.043  0.00  0.00    -0.016 C 
ATOM      4  C   UNL     1      31.608  -8.912 -22.460  0.00  0.00    +0.003 C 
ATOM      5  C   UNL     1      33.551  -7.549 -22.906  0.00  0.00    +0.144 C 
ATOM      6  C   UNL     1      33.531  -9.874 -23.558  0.00  0.00    -0.002 C 
ATOM      7  C   UNL     1      34.186  -8.645 -23.490  0.00  0.00    +0.029 C 
ENDROOT
BRANCH   2  16
ATOM      8  O   UNL     1      31.869  -6.309 -20.602  0.00  0.00    -0.270 OA
ATOM      9  N   UNL     1      30.713  -5.789 -22.568  0.00  0.00    -0.278 N 
ATOM     10  N   UNL     1      32.006  -3.941 -24.359  0.00  0.00    +0.385 N 
ATOM     11  C   UNL     1      30.041  -4.629 -21.984  0.00  0.00    +0.091 C 
ATOM     12  C   UNL     1      30.746  -3.313 -22.305  0.00  0.00    -0.002 C 
ATOM     13  C   UNL     1      30.505  -5.978 -24.009  0.00  0.00    +0.070 C 
ATOM     14  C   UNL     1      30.977  -3.066 -23.800  0.00  0.00    -0.080 C 
ATOM     15  C   UNL     1      31.509  -5.213 -24.875  0.00  0.00    -0.060 C 
ATOM     16  C   UNL     1      31.593  -6.536 -21.779  0.00  0.00    +0.251 C 
ATOM     17  H   UNL     1      32.687  -4.140 -23.626  0.00  0.00    -0.084 HD
ATOM     18  H   UNL     1      32.405  -3.444 -25.155  0.00  0.00    -0.084 HD
ENDBRANCH   2  16
BRANCH   3  19
ATOM     19  C   UNL     1      31.542 -11.323 -23.119  0.00  0.00    +0.074 C 
BRANCH  19  23
ATOM     20  O   UNL     1      34.234 -15.158 -20.241  0.00  0.00    -0.266 OA
ATOM     21  N   UNL     1      32.347 -12.274 -21.081  0.00  0.00    -0.174 NA
ATOM     22  N   UNL     1      33.011 -13.223 -20.382  0.00  0.00    -0.242 N 
ATOM     23  C   UNL     1      32.283 -12.385 -22.370  0.00  0.00    +0.083 A 
ATOM     24  C   UNL     1      32.901 -13.496 -23.122  0.00  0.00    +0.020 A 
ATOM     25  C   UNL     1      33.579 -14.462 -22.383  0.00  0.00    +0.059 A 
ATOM     26  C   UNL     1      32.828 -13.607 -24.512  0.00  0.00    +0.001 C 
ATOM     27  C   UNL     1      33.644 -14.323 -20.919  0.00  0.00    +0.273 A 
ATOM     28  C   UNL     1      34.189 -15.544 -23.024  0.00  0.00    +0.005 C 
ATOM     29  C   UNL     1      33.436 -14.688 -25.154  0.00  0.00    +0.000 C 
ATOM     30  C   UNL     1      34.115 -15.653 -24.412  0.00  0.00    +0.000 C 
ATOM     31  H   UNL     1      33.045 -13.119 -19.404  0.00  0.00    +0.192 HD
ENDBRANCH  19  23
ENDBRANCH   3  19
TORSDOF 3
ENDMDL
MODEL 4
REMARK VINA RESULT:     -11.1      1.898      2.571
REMARK  Name = 11291932
REMARK  3 active torsions:
REMARK  status: ('A' for Active; 'I' for Inactive)
REMARK    1  A    between atoms: C_2  and  C_16
REMARK    2  A    between atoms: C_3  and  C_19
REMARK    3  A    between atoms: C_19  and  C_23
REMARK                            x       y       z     vdW  Elec       q    Type
REMARK                         _______ _______ _______ _____ _____    ______ ____
ROOT
ATOM      1  F   UNL     1      31.178  -6.567 -20.537  0.00  0.00    -0.204 F 
ATOM      2  C   UNL     1      31.133  -8.625 -21.722  0.00  0.00    +0.081 C 
ATOM      3  C   UNL     1      31.489 -10.686 -20.524  0.00  0.00    -0.016 C 
ATOM      4  C   UNL     1      31.238 -10.012 -21.718  0.00  0.00    +0.003 C 
ATOM      5  C   UNL     1      31.277  -7.904 -20.539  0.00  0.00    +0.144 C 
ATOM      6  C   UNL     1      31.634  -9.968 -19.337  0.00  0.00    -0.002 C 
ATOM      7  C   UNL     1      31.528  -8.577 -19.345  0.00  0.00    +0.029 C 
ENDROOT
BRANCH   2  16
ATOM      8  O   UNL     1      29.687  -7.724 -23.259  0.00  0.00    -0.270 OA
ATOM      9  N   UNL     1      31.965  -7.520 -23.754  0.00  0.00    -0.278 N 
ATOM     10  N   UNL     1      33.266  -5.129 -22.815  0.00  0.00    +0.385 N 
ATOM     11  C   UNL     1      31.730  -6.804 -25.007  0.00  0.00    +0.091 C 
ATOM     12  C   UNL     1      31.846  -5.289 -24.854  0.00  0.00    -0.002 C 
ATOM     13  C   UNL     1      33.369  -7.626 -23.343  0.00  0.00    +0.070 C 
ATOM     14  C   UNL     1      33.168  -4.815 -24.239  0.00  0.00    -0.080 C 
ATOM     15  C   UNL     1      33.855  -6.431 -22.517  0.00  0.00    -0.060 C 
ATOM     16  C   UNL     1      30.869  -7.920 -22.981  0.00  0.00    +0.251 C 
ATOM     17  H   UNL     1      32.326  -5.107 -22.419  0.00  0.00    -0.084 HD
ATOM     18  H   UNL     1      33.890  -4.432 -22.409  0.00  0.00    -0.084 HD
ENDBRANCH   2  16
BRANCH   3  19
ATOM     19  C   UNL     1      31.604 -12.172 -20.514  0.00  0.00    +0.074 C 
BRANCH  19  23
ATOM     20  O   UNL     1      33.322 -13.989 -25.411  0.00  0.00    -0.266 OA
ATOM     21  N   UNL     1      31.690 -12.090 -22.900  0.00  0.00    -0.174 NA
ATOM     22  N   UNL     1      32.118 -12.544 -24.100  0.00  0.00    -0.242 N 
ATOM     23  C   UNL     1      32.093 -12.695 -21.827  0.00  0.00    +0.083 A 
ATOM     24  C   UNL     1      32.998 -13.862 -21.845  0.00  0.00    +0.020 A 
ATOM     25  C   UNL     1      33.428 -14.312 -23.090  0.00  0.00    +0.059 A 
ATOM     26  C   UNL     1      33.427 -14.509 -20.684  0.00  0.00    +0.001 C 
ATOM     27  C   UNL     1      32.962 -13.616 -24.300  0.00  0.00    +0.273 A 
ATOM     28  C   UNL     1      34.287 -15.411 -23.187  0.00  0.00    +0.005 C 
ATOM     29  C   UNL     1      34.286 -15.606 -20.779  0.00  0.00    +0.000 C 
ATOM     30  C   UNL     1      34.714 -16.056 -22.027  0.00  0.00    +0.000 C 
ATOM     31  H   UNL     1      31.800 -12.068 -24.900  0.00  0.00    +0.192 HD
ENDBRANCH  19  23
ENDBRANCH   3  19
TORSDOF 3
ENDMDL
MODEL 5
REMARK VINA RESULT:     -10.9      8.359     13.515
REMARK  Name = 11291932
REMARK  3 active torsions:
REMARK  status: ('A' for Active; 'I' for Inactive)
REMARK    1  A    between atoms: C_2  and  C_16
REMARK    2  A    between atoms: C_3  and  C_19
REMARK    3  A    between atoms: C_19  and  C_23
REMARK                            x       y       z     vdW  Elec       q    Type
REMARK                         _______ _______ _______ _____ _____    ______ ____
ROOT
ATOM      1  F   UNL     1      31.312 -22.104 -17.370  0.00  0.00    -0.204 F 
ATOM      2  C   UNL     1      33.614 -22.016 -17.951  0.00  0.00    +0.081 C 
ATOM      3  C   UNL     1      34.321 -20.594 -19.764  0.00  0.00    -0.016 C 
ATOM      4  C   UNL     1      34.628 -21.508 -18.757  0.00  0.00    +0.003 C 
ATOM      5  C   UNL     1      32.294 -21.617 -18.144  0.00  0.00    +0.144 C 
ATOM      6  C   UNL     1      33.000 -20.191 -19.960  0.00  0.00    -0.002 C 
ATOM      7  C   UNL     1      31.987 -20.703 -19.151  0.00  0.00    +0.029 C 
ENDROOT
BRANCH   2  16
ATOM      8  O   UNL     1      33.513 -24.122 -17.044  0.00  0.00    -0.270 OA
ATOM      9  N   UNL     1      34.711 -22.533 -15.813  0.00  0.00    -0.278 N 
ATOM     10  N   UNL     1      37.531 -22.352 -16.367  0.00  0.00    +0.385 N 
ATOM     11  C   UNL     1      35.061 -23.475 -14.751  0.00  0.00    +0.091 C 
ATOM     12  C   UNL     1      36.454 -24.075 -14.928  0.00  0.00    -0.002 C 
ATOM     13  C   UNL     1      35.340 -21.211 -15.716  0.00  0.00    +0.070 C 
ATOM     14  C   UNL     1      37.575 -23.040 -15.078  0.00  0.00    -0.080 C 
ATOM     15  C   UNL     1      36.716 -21.140 -16.383  0.00  0.00    -0.060 C 
ATOM     16  C   UNL     1      33.940 -22.979 -16.893  0.00  0.00    +0.251 C 
ATOM     17  H   UNL     1      37.153 -22.998 -17.060  0.00  0.00    -0.084 HD
ATOM     18  H   UNL     1      38.486 -22.058 -16.569  0.00  0.00    -0.084 HD
ENDBRANCH   2  16
BRANCH   3  19
ATOM     19  C   UNL     1      35.404 -20.048 -20.632  0.00  0.00    +0.074 C 
BRANCH  19  23
ATOM     20  O   UNL     1      34.277 -14.916 -22.255  0.00  0.00    -0.266 OA
ATOM     21  N   UNL     1      35.332 -17.683 -20.302  0.00  0.00    -0.174 NA
ATOM     22  N   UNL     1      35.051 -16.424 -20.711  0.00  0.00    -0.242 N 
ATOM     23  C   UNL     1      35.084 -18.667 -21.108  0.00  0.00    +0.083 A 
ATOM     24  C   UNL     1      34.507 -18.487 -22.456  0.00  0.00    +0.020 A 
ATOM     25  C   UNL     1      34.227 -17.183 -22.857  0.00  0.00    +0.059 A 
ATOM     26  C   UNL     1      34.242 -19.553 -23.319  0.00  0.00    +0.001 C 
ATOM     27  C   UNL     1      34.513 -16.076 -21.931  0.00  0.00    +0.273 A 
ATOM     28  C   UNL     1      33.680 -16.933 -24.119  0.00  0.00    +0.005 C 
ATOM     29  C   UNL     1      33.697 -19.305 -24.580  0.00  0.00    +0.000 C 
ATOM     30  C   UNL     1      33.416 -17.999 -24.979  0.00  0.00    +0.000 C 
ATOM     31  H   UNL     1      35.249 -15.693 -20.082  0.00  0.00    +0.192 HD
ENDBRANCH  19  23
ENDBRANCH   3  19
TORSDOF 3
ENDMDL
MODEL 6
REMARK VINA RESULT:     -10.8      1.917      2.726
REMARK  Name = 11291932
REMARK  3 active torsions:
REMARK  status: ('A' for Active; 'I' for Inactive)
REMARK    1  A    between atoms: C_2  and  C_16
REMARK    2  A    between atoms: C_3  and  C_19
REMARK    3  A    between atoms: C_19  and  C_23
REMARK                            x       y       z     vdW  Elec       q    Type
REMARK                         _______ _______ _______ _____ _____    ______ ____
ROOT
ATOM      1  F   UNL     1      29.656  -8.563 -22.324  0.00  0.00    -0.204 F 
ATOM      2  C   UNL     1      31.894  -9.303 -22.615  0.00  0.00    +0.081 C 
ATOM      3  C   UNL     1      32.518 -11.503 -21.854  0.00  0.00    -0.016 C 
ATOM      4  C   UNL     1      32.859 -10.293 -22.458  0.00  0.00    +0.003 C 
ATOM      5  C   UNL     1      30.590  -9.513 -22.175  0.00  0.00    +0.144 C 
ATOM      6  C   UNL     1      31.213 -11.718 -21.412  0.00  0.00    -0.002 C 
ATOM      7  C   UNL     1      30.250 -10.723 -21.572  0.00  0.00    +0.029 C 
ENDROOT
BRANCH   2  16
ATOM      8  O   UNL     1      32.054  -7.949 -24.461  0.00  0.00    -0.270 OA
ATOM      9  N   UNL     1      32.784  -7.018 -22.443  0.00  0.00    -0.278 N 
ATOM     10  N   UNL     1      30.815  -5.572 -20.919  0.00  0.00    +0.385 N 
ATOM     11  C   UNL     1      33.141  -5.736 -23.048  0.00  0.00    +0.091 C 
ATOM     12  C   UNL     1      32.046  -4.683 -22.891  0.00  0.00    -0.002 C 
ATOM     13  C   UNL     1      32.880  -7.073 -20.979  0.00  0.00    +0.070 C 
ATOM     14  C   UNL     1      31.592  -4.452 -21.446  0.00  0.00    -0.080 C 
ATOM     15  C   UNL     1      31.607  -6.611 -20.267  0.00  0.00    -0.060 C 
ATOM     16  C   UNL     1      32.256  -8.031 -23.251  0.00  0.00    +0.251 C 
ATOM     17  H   UNL     1      30.307  -5.999 -21.693  0.00  0.00    -0.084 HD
ATOM     18  H   UNL     1      30.202  -5.185 -20.201  0.00  0.00    -0.084 HD
ENDBRANCH   2  16
BRANCH   3  19
ATOM     19  C   UNL     1      33.549 -12.567 -21.681  0.00  0.00    +0.074 C 
BRANCH  19  23
ATOM     20  O   UNL     1      33.171 -16.265 -25.733  0.00  0.00    -0.266 OA
ATOM     21  N   UNL     1      33.007 -13.225 -23.912  0.00  0.00    -0.174 NA
ATOM     22  N   UNL     1      32.918 -14.142 -24.902  0.00  0.00    -0.242 N 
ATOM     23  C   UNL     1      33.461 -13.601 -22.758  0.00  0.00    +0.083 A 
ATOM     24  C   UNL     1      33.888 -14.983 -22.464  0.00  0.00    +0.020 A 
ATOM     25  C   UNL     1      33.789 -15.911 -23.498  0.00  0.00    +0.059 A 
ATOM     26  C   UNL     1      34.375 -15.380 -21.216  0.00  0.00    +0.001 C 
ATOM     27  C   UNL     1      33.270 -15.471 -24.803  0.00  0.00    +0.273 A 
ATOM     28  C   UNL     1      34.173 -17.240 -23.295  0.00  0.00    +0.005 C 
ATOM     29  C   UNL     1      34.761 -16.706 -21.013  0.00  0.00    +0.000 C 
ATOM     30  C   UNL     1      34.661 -17.634 -22.049  0.00  0.00    +0.000 C 
ATOM     31  H   UNL     1      32.571 -13.834 -25.770  0.00  0.00    +0.192 HD
ENDBRANCH  19  23
ENDBRANCH   3  19
TORSDOF 3
ENDMDL
MODEL 7
REMARK VINA RESULT:     -10.7      1.831      2.511
REMARK  Name = 11291932
REMARK  3 active torsions:
REMARK  status: ('A' for Active; 'I' for Inactive)
REMARK    1  A    between atoms: C_2  and  C_16
REMARK    2  A    between atoms: C_3  and  C_19
REMARK    3  A    between atoms: C_19  and  C_23
REMARK                            x       y       z     vdW  Elec       q    Type
REMARK                         _______ _______ _______ _____ _____    ______ ____
ROOT
ATOM      1  F   UNL     1      32.792  -6.049 -19.679  0.00  0.00    -0.204 F 
ATOM      2  C   UNL     1      32.495  -7.473 -21.557  0.00  0.00    +0.081 C 
ATOM      3  C   UNL     1      31.203  -9.493 -21.315  0.00  0.00    -0.016 C 
ATOM      4  C   UNL     1      31.961  -8.633 -22.109  0.00  0.00    +0.003 C 
ATOM      5  C   UNL     1      32.279  -7.165 -20.216  0.00  0.00    +0.144 C 
ATOM      6  C   UNL     1      30.984  -9.189 -19.972  0.00  0.00    -0.002 C 
ATOM      7  C   UNL     1      31.521  -8.026 -19.423  0.00  0.00    +0.029 C 
ENDROOT
BRANCH   2  16
ATOM      8  O   UNL     1      34.505  -6.773 -22.416  0.00  0.00    -0.270 OA
ATOM      9  N   UNL     1      32.622  -5.569 -23.106  0.00  0.00    -0.278 N 
ATOM     10  N   UNL     1      31.331  -6.486 -25.511  0.00  0.00    +0.385 N 
ATOM     11  C   UNL     1      33.390  -4.663 -23.959  0.00  0.00    +0.091 C 
ATOM     12  C   UNL     1      33.391  -5.090 -25.425  0.00  0.00    -0.002 C 
ATOM     13  C   UNL     1      31.163  -5.429 -23.192  0.00  0.00    +0.070 C 
ATOM     14  C   UNL     1      31.995  -5.290 -26.027  0.00  0.00    -0.080 C 
ATOM     15  C   UNL     1      30.535  -6.270 -24.306  0.00  0.00    -0.060 C 
ATOM     16  C   UNL     1      33.292  -6.570 -22.395  0.00  0.00    +0.251 C 
ATOM     17  H   UNL     1      32.047  -7.181 -25.298  0.00  0.00    -0.084 HD
ATOM     18  H   UNL     1      30.680  -6.789 -26.235  0.00  0.00    -0.084 HD
ENDBRANCH   2  16
BRANCH   3  19
ATOM     19  C   UNL     1      30.630 -10.739 -21.901  0.00  0.00    +0.074 C 
BRANCH  19  23
ATOM     20  O   UNL     1      34.556 -13.969 -23.996  0.00  0.00    -0.266 OA
ATOM     21  N   UNL     1      32.133 -11.403 -23.634  0.00  0.00    -0.174 NA
ATOM     22  N   UNL     1      33.100 -12.203 -24.140  0.00  0.00    -0.242 N 
ATOM     23  C   UNL     1      31.697 -11.639 -22.436  0.00  0.00    +0.083 A 
ATOM     24  C   UNL     1      32.200 -12.740 -21.591  0.00  0.00    +0.020 A 
ATOM     25  C   UNL     1      33.196 -13.550 -22.131  0.00  0.00    +0.059 A 
ATOM     26  C   UNL     1      31.724 -12.988 -20.301  0.00  0.00    +0.001 C 
ATOM     27  C   UNL     1      33.681 -13.272 -23.492  0.00  0.00    +0.273 A 
ATOM     28  C   UNL     1      33.721 -14.613 -21.391  0.00  0.00    +0.005 C 
ATOM     29  C   UNL     1      32.249 -14.048 -19.560  0.00  0.00    +0.000 C 
ATOM     30  C   UNL     1      33.245 -14.859 -20.103  0.00  0.00    +0.000 C 
ATOM     31  H   UNL     1      33.416 -12.004 -25.051  0.00  0.00    +0.192 HD
ENDBRANCH  19  23
ENDBRANCH   3  19
TORSDOF 3
ENDMDL
MODEL 8
REMARK VINA RESULT:     -10.7      2.291      3.367
REMARK  Name = 11291932
REMARK  3 active torsions:
REMARK  status: ('A' for Active; 'I' for Inactive)
REMARK    1  A    between atoms: C_2  and  C_16
REMARK    2  A    between atoms: C_3  and  C_19
REMARK    3  A    between atoms: C_19  and  C_23
REMARK                            x       y       z     vdW  Elec       q    Type
REMARK                         _______ _______ _______ _____ _____    ______ ____
ROOT
ATOM      1  F   UNL     1      30.070  -8.697 -20.742  0.00  0.00    -0.204 F 
ATOM      2  C   UNL     1      31.410  -9.221 -22.632  0.00  0.00    +0.081 C 
ATOM      3  C   UNL     1      32.382 -11.418 -22.819  0.00  0.00    -0.016 C 
ATOM      4  C   UNL     1      32.188 -10.136 -23.333  0.00  0.00    +0.003 C 
ATOM      5  C   UNL     1      30.821  -9.576 -21.421  0.00  0.00    +0.144 C 
ATOM      6  C   UNL     1      31.795 -11.779 -21.607  0.00  0.00    -0.002 C 
ATOM      7  C   UNL     1      31.015 -10.858 -20.908  0.00  0.00    +0.029 C 
ENDROOT
BRANCH   2  16
ATOM      8  O   UNL     1      30.259  -7.731 -23.944  0.00  0.00    -0.270 OA
ATOM      9  N   UNL     1      32.091  -6.863 -22.777  0.00  0.00    -0.278 N 
ATOM     10  N   UNL     1      31.544  -5.775 -20.168  0.00  0.00    +0.385 N 
ATOM     11  C   UNL     1      31.906  -5.508 -23.293  0.00  0.00    +0.091 C 
ATOM     12  C   UNL     1      31.137  -4.608 -22.329  0.00  0.00    -0.002 C 
ATOM     13  C   UNL     1      33.127  -7.009 -21.747  0.00  0.00    +0.070 C 
ATOM     14  C   UNL     1      31.733  -4.535 -20.919  0.00  0.00    -0.080 C 
ATOM     15  C   UNL     1      32.615  -6.754 -20.328  0.00  0.00    -0.060 C 
ATOM     16  C   UNL     1      31.208  -7.872 -23.176  0.00  0.00    +0.251 C 
ATOM     17  H   UNL     1      30.672  -6.205 -20.478  0.00  0.00    -0.084 HD
ATOM     18  H   UNL     1      31.536  -5.516 -19.181  0.00  0.00    -0.084 HD
ENDBRANCH   2  16
BRANCH   3  19
ATOM     19  C   UNL     1      33.217 -12.403 -23.565  0.00  0.00    +0.074 C 
BRANCH  19  23
ATOM     20  O   UNL     1      34.723 -16.527 -20.255  0.00  0.00    -0.266 OA
ATOM     21  N   UNL     1      33.868 -13.298 -21.449  0.00  0.00    -0.174 NA
ATOM     22  N   UNL     1      34.237 -14.320 -20.642  0.00  0.00    -0.242 N 
ATOM     23  C   UNL     1      33.624 -13.550 -22.696  0.00  0.00    +0.083 A 
ATOM     24  C   UNL     1      33.730 -14.898 -23.288  0.00  0.00    +0.020 A 
ATOM     25  C   UNL     1      34.111 -15.935 -22.440  0.00  0.00    +0.059 A 
ATOM     26  C   UNL     1      33.466 -15.161 -24.635  0.00  0.00    +0.001 C 
ATOM     27  C   UNL     1      34.385 -15.635 -21.026  0.00  0.00    +0.273 A 
ATOM     28  C   UNL     1      34.233 -17.240 -22.929  0.00  0.00    +0.005 C 
ATOM     29  C   UNL     1      33.586 -16.463 -25.123  0.00  0.00    +0.000 C 
ATOM     30  C   UNL     1      33.968 -17.500 -24.273  0.00  0.00    +0.000 C 
ATOM     31  H   UNL     1      34.416 -14.105 -19.698  0.00  0.00    +0.192 HD
ENDBRANCH  19  23
ENDBRANCH   3  19
TORSDOF 3
ENDMDL
MODEL 9
REMARK VINA RESULT:     -10.6     14.471     17.027
REMARK  Name = 11291932
REMARK  3 active torsions:
REMARK  status: ('A' for Active; 'I' for Inactive)
REMARK    1  A    between atoms: C_2  and  C_16
REMARK    2  A    between atoms: C_3  and  C_19
REMARK    3  A    between atoms: C_19  and  C_23
REMARK                            x       y       z     vdW  Elec       q    Type
REMARK                         _______ _______ _______ _____ _____    ______ ____
ROOT
ATOM      1  F   UNL     1      38.258 -21.137 -16.124  0.00  0.00    -0.204 F 
ATOM      2  C   UNL     1      36.283 -22.209 -15.354  0.00  0.00    +0.081 C 
ATOM      3  C   UNL     1      34.364 -22.333 -16.807  0.00  0.00    -0.016 C 
ATOM      4  C   UNL     1      34.971 -22.612 -15.583  0.00  0.00    +0.003 C 
ATOM      5  C   UNL     1      36.994 -21.528 -16.339  0.00  0.00    +0.144 C 
ATOM      6  C   UNL     1      35.072 -21.651 -17.797  0.00  0.00    -0.002 C 
ATOM      7  C   UNL     1      36.386 -21.249 -17.563  0.00  0.00    +0.029 C 
ENDROOT
BRANCH   2  16
ATOM      8  O   UNL     1      36.779 -21.659 -13.182  0.00  0.00    -0.270 OA
ATOM      9  N   UNL     1      37.616 -23.710 -13.936  0.00  0.00    -0.278 N 
ATOM     10  N   UNL     1      35.936 -26.009 -13.510  0.00  0.00    +0.385 N 
ATOM     11  C   UNL     1      38.249 -24.034 -12.658  0.00  0.00    +0.091 C 
ATOM     12  C   UNL     1      37.389 -24.948 -11.788  0.00  0.00    -0.002 C 
ATOM     13  C   UNL     1      37.651 -24.775 -14.945  0.00  0.00    +0.070 C 
ATOM     14  C   UNL     1      36.943 -26.243 -12.477  0.00  0.00    -0.080 C 
ATOM     15  C   UNL     1      36.476 -25.751 -14.841  0.00  0.00    -0.060 C 
ATOM     16  C   UNL     1      36.919 -22.504 -14.065  0.00  0.00    +0.251 C 
ATOM     17  H   UNL     1      35.378 -25.202 -13.232  0.00  0.00    -0.084 HD
ATOM     18  H   UNL     1      35.392 -26.869 -13.582  0.00  0.00    -0.084 HD
ENDBRANCH   2  16
BRANCH   3  19
ATOM     19  C   UNL     1      32.957 -22.761 -17.057  0.00  0.00    +0.074 C 
BRANCH  19  23
ATOM     20  O   UNL     1      30.722 -24.759 -12.448  0.00  0.00    -0.266 OA
ATOM     21  N   UNL     1      33.074 -23.897 -14.960  0.00  0.00    -0.174 NA
ATOM     22  N   UNL     1      32.514 -24.385 -13.829  0.00  0.00    -0.242 N 
ATOM     23  C   UNL     1      32.313 -23.291 -15.816  0.00  0.00    +0.083 A 
ATOM     24  C   UNL     1      30.861 -23.103 -15.623  0.00  0.00    +0.020 A 
ATOM     25  C   UNL     1      30.306 -23.612 -14.452  0.00  0.00    +0.059 A 
ATOM     26  C   UNL     1      30.048 -22.449 -16.552  0.00  0.00    +0.001 C 
ATOM     27  C   UNL     1      31.181 -24.300 -13.489  0.00  0.00    +0.273 A 
ATOM     28  C   UNL     1      28.938 -23.474 -14.199  0.00  0.00    +0.005 C 
ATOM     29  C   UNL     1      28.682 -22.309 -16.299  0.00  0.00    +0.000 C 
ATOM     30  C   UNL     1      28.129 -22.819 -15.127  0.00  0.00    +0.000 C 
ATOM     31  H   UNL     1      33.112 -24.841 -13.193  0.00  0.00    +0.192 HD
ENDBRANCH  19  23
ENDBRANCH   3  19
TORSDOF 3
ENDMDL
