MODEL 1
REMARK VINA RESULT:     -10.2      0.000      0.000
REMARK  Name = 6425761
REMARK  6 active torsions:
REMARK  status: ('A' for Active; 'I' for Inactive)
REMARK    1  A    between atoms: N_1  and  C_19
REMARK    2  A    between atoms: C_2  and  N_9
REMARK    3  A    between atoms: N_9  and  C_11
REMARK    4  A    between atoms: C_10  and  C_17
REMARK    5  A    between atoms: C_19  and  C_20
REMARK    6  A    between atoms: C_20  and  C_22
REMARK                            x       y       z     vdW  Elec       q    Type
REMARK                         _______ _______ _______ _____ _____    ______ ____
ROOT
ATOM      1  N   UNL     1      31.941 -10.809 -22.892  0.00  0.00    +0.387 N 
ATOM      2  C   UNL     1      32.345  -8.001 -22.177  0.00  0.00    +0.076 C 
ATOM      3  C   UNL     1      30.977  -8.678 -22.086  0.00  0.00    -0.003 C 
ATOM      4  C   UNL     1      33.221  -8.717 -23.207  0.00  0.00    -0.003 C 
ATOM      5  C   UNL     1      31.116 -10.182 -21.849  0.00  0.00    -0.076 C 
ATOM      6  C   UNL     1      33.285 -10.220 -22.931  0.00  0.00    -0.076 C 
ATOM      7  H   UNL     1      31.494 -10.636 -23.793  0.00  0.00    -0.080 HD
ENDROOT
BRANCH   2   9
ATOM      8  O   UNL     1      31.422  -5.856 -20.386  0.00  0.00    -0.275 OA
ATOM      9  N   UNL     1      32.206  -6.603 -22.494  0.00  0.00    -0.260 N 
ATOM     10  C   UNL     1      31.748  -5.632 -21.554  0.00  0.00    +0.229 C 
BRANCH   9  11
ATOM     11  C   UNL     1      32.551  -6.157 -23.843  0.00  0.00    +0.054 C 
ATOM     12  C   UNL     1      33.800  -5.649 -24.040  0.00  0.00    +0.015 C 
ATOM     13  C   UNL     1      31.599  -6.280 -24.811  0.00  0.00    +0.015 C 
ATOM     14  C   UNL     1      34.129  -5.223 -25.327  0.00  0.00    +0.001 C 
ATOM     15  C   UNL     1      31.928  -5.854 -26.098  0.00  0.00    +0.001 C 
ATOM     16  C   UNL     1      33.193  -5.326 -26.356  0.00  0.00    +0.000 C 
ENDBRANCH   9  11
BRANCH  10  17
ATOM     17  C   UNL     1      31.627  -4.212 -22.101  0.00  0.00    +0.086 C 
ATOM     18  C   UNL     1      30.215  -3.658 -21.993  0.00  0.00    +0.010 C 
ENDBRANCH  10  17
ENDBRANCH   2   9
BRANCH   1  19
ATOM     19  C   UNL     1      32.022 -12.255 -22.680  0.00  0.00    -0.073 C 
BRANCH  19  20
ATOM     20  C   UNL     1      33.180 -12.896 -23.470  0.00  0.00    +0.002 C 
ATOM     21  C   UNL     1      32.804 -13.220 -24.921  0.00  0.00    +0.003 C 
BRANCH  20  22
ATOM     22  C   UNL     1      33.690 -14.139 -22.756  0.00  0.00    -0.025 C 
ATOM     23  C   UNL     1      33.659 -14.177 -21.377  0.00  0.00    -0.004 C 
ATOM     24  C   UNL     1      34.168 -15.192 -23.509  0.00  0.00    -0.004 C 
ATOM     25  C   UNL     1      34.125 -15.317 -20.723  0.00  0.00    -0.000 C 
ATOM     26  C   UNL     1      34.634 -16.333 -22.855  0.00  0.00    -0.000 C 
ATOM     27  C   UNL     1      34.613 -16.395 -21.461  0.00  0.00    -0.000 C 
ENDBRANCH  20  22
ENDBRANCH  19  20
ENDBRANCH   1  19
TORSDOF 6
ENDMDL
MODEL 2
REMARK VINA RESULT:     -10.2      0.073      1.342
REMARK  Name = 6425761
REMARK  6 active torsions:
REMARK  status: ('A' for Active; 'I' for Inactive)
REMARK    1  A    between atoms: N_1  and  C_19
REMARK    2  A    between atoms: C_2  and  N_9
REMARK    3  A    between atoms: N_9  and  C_11
REMARK    4  A    between atoms: C_10  and  C_17
REMARK    5  A    between atoms: C_19  and  C_20
REMARK    6  A    between atoms: C_20  and  C_22
REMARK                            x       y       z     vdW  Elec       q    Type
REMARK                         _______ _______ _______ _____ _____    ______ ____
ROOT
ATOM      1  N   UNL     1      31.958 -10.763 -22.874  0.00  0.00    +0.387 N 
ATOM      2  C   UNL     1      32.373  -7.947 -22.200  0.00  0.00    +0.076 C 
ATOM      3  C   UNL     1      31.003  -8.618 -22.095  0.00  0.00    -0.003 C 
ATOM      4  C   UNL     1      33.243  -8.679 -23.223  0.00  0.00    -0.003 C 
ATOM      5  C   UNL     1      31.138 -10.119 -21.838  0.00  0.00    -0.076 C 
ATOM      6  C   UNL     1      33.304 -10.179 -22.926  0.00  0.00    -0.076 C 
ATOM      7  H   UNL     1      31.509 -10.602 -23.777  0.00  0.00    -0.080 HD
ENDROOT
BRANCH   2   9
ATOM      8  O   UNL     1      31.468  -5.773 -20.435  0.00  0.00    -0.275 OA
ATOM      9  N   UNL     1      32.238  -6.552 -22.537  0.00  0.00    -0.260 N 
ATOM     10  C   UNL     1      31.788  -5.567 -21.608  0.00  0.00    +0.229 C 
BRANCH   9  11
ATOM     11  C   UNL     1      32.576  -6.127 -23.894  0.00  0.00    +0.054 C 
ATOM     12  C   UNL     1      31.625  -6.278 -24.858  0.00  0.00    +0.015 C 
ATOM     13  C   UNL     1      33.820  -5.611 -24.102  0.00  0.00    +0.015 C 
ATOM     14  C   UNL     1      31.947  -5.874 -26.154  0.00  0.00    +0.001 C 
ATOM     15  C   UNL     1      34.143  -5.207 -25.398  0.00  0.00    +0.001 C 
ATOM     16  C   UNL     1      33.207  -5.338 -26.423  0.00  0.00    +0.000 C 
ENDBRANCH   9  11
BRANCH  10  17
ATOM     17  C   UNL     1      31.669  -4.155 -22.175  0.00  0.00    +0.086 C 
ATOM     18  C   UNL     1      30.263  -3.587 -22.052  0.00  0.00    +0.010 C 
ENDBRANCH  10  17
ENDBRANCH   2   9
BRANCH   1  19
ATOM     19  C   UNL     1      32.035 -12.206 -22.642  0.00  0.00    -0.073 C 
BRANCH  19  20
ATOM     20  C   UNL     1      33.190 -12.861 -23.427  0.00  0.00    +0.002 C 
ATOM     21  C   UNL     1      32.810 -13.196 -24.875  0.00  0.00    +0.003 C 
BRANCH  20  22
ATOM     22  C   UNL     1      33.691 -14.102 -22.702  0.00  0.00    -0.025 C 
ATOM     23  C   UNL     1      34.181 -15.156 -23.446  0.00  0.00    -0.004 C 
ATOM     24  C   UNL     1      33.642 -14.136 -21.324  0.00  0.00    -0.004 C 
ATOM     25  C   UNL     1      34.641 -16.294 -22.783  0.00  0.00    -0.000 C 
ATOM     26  C   UNL     1      34.102 -15.273 -20.660  0.00  0.00    -0.000 C 
ATOM     27  C   UNL     1      34.602 -16.353 -21.389  0.00  0.00    -0.000 C 
ENDBRANCH  20  22
ENDBRANCH  19  20
ENDBRANCH   1  19
TORSDOF 6
ENDMDL
MODEL 3
REMARK VINA RESULT:     -10.1      7.842     14.109
REMARK  Name = 6425761
REMARK  6 active torsions:
REMARK  status: ('A' for Active; 'I' for Inactive)
REMARK    1  A    between atoms: N_1  and  C_19
REMARK    2  A    between atoms: C_2  and  N_9
REMARK    3  A    between atoms: N_9  and  C_11
REMARK    4  A    between atoms: C_10  and  C_17
REMARK    5  A    between atoms: C_19  and  C_20
REMARK    6  A    between atoms: C_20  and  C_22
REMARK                            x       y       z     vdW  Elec       q    Type
REMARK                         _______ _______ _______ _____ _____    ______ ____
ROOT
ATOM      1  N   UNL     1      34.031 -19.993 -20.407  0.00  0.00    +0.387 N 
ATOM      2  C   UNL     1      33.363 -22.024 -18.410  0.00  0.00    +0.076 C 
ATOM      3  C   UNL     1      32.406 -20.888 -18.769  0.00  0.00    -0.003 C 
ATOM      4  C   UNL     1      34.806 -21.614 -18.707  0.00  0.00    -0.003 C 
ATOM      5  C   UNL     1      32.634 -20.401 -20.201  0.00  0.00    -0.076 C 
ATOM      6  C   UNL     1      34.953 -21.105 -20.142  0.00  0.00    -0.076 C 
ATOM      7  H   UNL     1      34.241 -19.245 -19.746  0.00  0.00    -0.080 HD
ENDROOT
BRANCH   2   9
ATOM      8  O   UNL     1      30.842 -22.299 -16.917  0.00  0.00    -0.275 OA
ATOM      9  N   UNL     1      33.207 -22.411 -17.030  0.00  0.00    -0.260 N 
ATOM     10  C   UNL     1      31.936 -22.517 -16.391  0.00  0.00    +0.229 C 
BRANCH   9  11
ATOM     11  C   UNL     1      34.406 -22.707 -16.249  0.00  0.00    +0.054 C 
ATOM     12  C   UNL     1      35.328 -21.714 -16.107  0.00  0.00    +0.015 C 
ATOM     13  C   UNL     1      34.521 -23.958 -15.719  0.00  0.00    +0.015 C 
ATOM     14  C   UNL     1      36.473 -21.996 -15.362  0.00  0.00    +0.001 C 
ATOM     15  C   UNL     1      35.667 -24.240 -14.975  0.00  0.00    +0.001 C 
ATOM     16  C   UNL     1      36.643 -23.260 -14.797  0.00  0.00    +0.000 C 
ENDBRANCH   9  11
BRANCH  10  17
ATOM     17  C   UNL     1      31.987 -22.894 -14.913  0.00  0.00    +0.086 C 
ATOM     18  C   UNL     1      30.833 -22.310 -14.114  0.00  0.00    +0.010 C 
ENDBRANCH  10  17
ENDBRANCH   2   9
BRANCH   1  19
ATOM     19  C   UNL     1      34.220 -19.484 -21.766  0.00  0.00    -0.073 C 
BRANCH  19  20
ATOM     20  C   UNL     1      35.367 -18.457 -21.848  0.00  0.00    +0.002 C 
ATOM     21  C   UNL     1      36.296 -18.503 -20.628  0.00  0.00    +0.003 C 
BRANCH  20  22
ATOM     22  C   UNL     1      34.814 -17.054 -22.051  0.00  0.00    -0.025 C 
ATOM     23  C   UNL     1      34.607 -16.598 -23.336  0.00  0.00    -0.004 C 
ATOM     24  C   UNL     1      34.537 -16.279 -20.943  0.00  0.00    -0.004 C 
ATOM     25  C   UNL     1      34.099 -15.312 -23.523  0.00  0.00    -0.000 C 
ATOM     26  C   UNL     1      34.029 -14.993 -21.129  0.00  0.00    -0.000 C 
ATOM     27  C   UNL     1      33.811 -14.509 -22.419  0.00  0.00    -0.000 C 
ENDBRANCH  20  22
ENDBRANCH  19  20
ENDBRANCH   1  19
TORSDOF 6
ENDMDL
MODEL 4
REMARK VINA RESULT:      -9.9     10.963     16.243
REMARK  Name = 6425761
REMARK  6 active torsions:
REMARK  status: ('A' for Active; 'I' for Inactive)
REMARK    1  A    between atoms: N_1  and  C_19
REMARK    2  A    between atoms: C_2  and  N_9
REMARK    3  A    between atoms: N_9  and  C_11
REMARK    4  A    between atoms: C_10  and  C_17
REMARK    5  A    between atoms: C_19  and  C_20
REMARK    6  A    between atoms: C_20  and  C_22
REMARK                            x       y       z     vdW  Elec       q    Type
REMARK                         _______ _______ _______ _____ _____    ______ ____
ROOT
ATOM      1  N   UNL     1      34.246 -22.597 -18.377  0.00  0.00    +0.387 N 
ATOM      2  C   UNL     1      34.370 -22.733 -15.457  0.00  0.00    +0.076 C 
ATOM      3  C   UNL     1      35.592 -22.395 -16.311  0.00  0.00    -0.003 C 
ATOM      4  C   UNL     1      33.366 -23.550 -16.271  0.00  0.00    -0.003 C 
ATOM      5  C   UNL     1      35.184 -21.744 -17.633  0.00  0.00    -0.076 C 
ATOM      6  C   UNL     1      33.031 -22.859 -17.594  0.00  0.00    -0.076 C 
ATOM      7  H   UNL     1      34.705 -23.491 -18.554  0.00  0.00    -0.080 HD
ENDROOT
BRANCH   2   9
ATOM      8  O   UNL     1      32.903 -22.835 -12.908  0.00  0.00    -0.275 OA
ATOM      9  N   UNL     1      34.758 -23.431 -14.258  0.00  0.00    -0.260 N 
ATOM     10  C   UNL     1      33.977 -23.422 -13.064  0.00  0.00    +0.229 C 
BRANCH   9  11
ATOM     11  C   UNL     1      36.011 -24.184 -14.265  0.00  0.00    +0.054 C 
ATOM     12  C   UNL     1      35.959 -25.491 -14.646  0.00  0.00    +0.015 C 
ATOM     13  C   UNL     1      37.144 -23.527 -13.888  0.00  0.00    +0.015 C 
ATOM     14  C   UNL     1      37.154 -26.210 -14.653  0.00  0.00    +0.001 C 
ATOM     15  C   UNL     1      38.339 -24.246 -13.895  0.00  0.00    +0.001 C 
ATOM     16  C   UNL     1      38.344 -25.587 -14.277  0.00  0.00    +0.000 C 
ENDBRANCH   9  11
BRANCH  10  17
ATOM     17  C   UNL     1      34.585 -24.185 -11.890  0.00  0.00    +0.086 C 
ATOM     18  C   UNL     1      35.283 -23.274 -10.893  0.00  0.00    +0.010 C 
ENDBRANCH  10  17
ENDBRANCH   2   9
BRANCH   1  19
ATOM     19  C   UNL     1      33.905 -21.984 -19.661  0.00  0.00    -0.073 C 
BRANCH  19  20
ATOM     20  C   UNL     1      33.595 -20.480 -19.525  0.00  0.00    +0.002 C 
ATOM     21  C   UNL     1      32.102 -20.162 -19.690  0.00  0.00    +0.003 C 
BRANCH  20  22
ATOM     22  C   UNL     1      34.428 -19.671 -20.508  0.00  0.00    -0.025 C 
ATOM     23  C   UNL     1      33.847 -19.249 -21.686  0.00  0.00    -0.004 C 
ATOM     24  C   UNL     1      35.740 -19.383 -20.192  0.00  0.00    -0.004 C 
ATOM     25  C   UNL     1      34.610 -18.508 -22.588  0.00  0.00    -0.000 C 
ATOM     26  C   UNL     1      36.504 -18.641 -21.094  0.00  0.00    -0.000 C 
ATOM     27  C   UNL     1      35.939 -18.203 -22.292  0.00  0.00    -0.000 C 
ENDBRANCH  20  22
ENDBRANCH  19  20
ENDBRANCH   1  19
TORSDOF 6
ENDMDL
MODEL 5
REMARK VINA RESULT:      -9.9      1.092      1.523
REMARK  Name = 6425761
REMARK  6 active torsions:
REMARK  status: ('A' for Active; 'I' for Inactive)
REMARK    1  A    between atoms: N_1  and  C_19
REMARK    2  A    between atoms: C_2  and  N_9
REMARK    3  A    between atoms: N_9  and  C_11
REMARK    4  A    between atoms: C_10  and  C_17
REMARK    5  A    between atoms: C_19  and  C_20
REMARK    6  A    between atoms: C_20  and  C_22
REMARK                            x       y       z     vdW  Elec       q    Type
REMARK                         _______ _______ _______ _____ _____    ______ ____
ROOT
ATOM      1  N   UNL     1      32.292 -11.654 -22.130  0.00  0.00    +0.387 N 
ATOM      2  C   UNL     1      31.569  -8.830 -22.387  0.00  0.00    +0.076 C 
ATOM      3  C   UNL     1      32.828  -9.412 -23.030  0.00  0.00    -0.003 C 
ATOM      4  C   UNL     1      31.154  -9.673 -21.181  0.00  0.00    -0.003 C 
ATOM      5  C   UNL     1      32.658 -10.900 -23.338  0.00  0.00    -0.076 C 
ATOM      6  C   UNL     1      31.038 -11.153 -21.551  0.00  0.00    -0.076 C 
ATOM      7  H   UNL     1      33.032 -11.521 -21.440  0.00  0.00    -0.080 HD
ENDROOT
BRANCH   2   9
ATOM      8  O   UNL     1      31.244  -7.649 -19.711  0.00  0.00    -0.275 OA
ATOM      9  N   UNL     1      31.772  -7.453 -22.014  0.00  0.00    -0.260 N 
ATOM     10  C   UNL     1      31.589  -6.972 -20.683  0.00  0.00    +0.229 C 
BRANCH   9  11
ATOM     11  C   UNL     1      32.185  -6.505 -23.047  0.00  0.00    +0.054 C 
ATOM     12  C   UNL     1      33.456  -6.016 -22.983  0.00  0.00    +0.015 C 
ATOM     13  C   UNL     1      31.271  -6.175 -24.002  0.00  0.00    +0.015 C 
ATOM     14  C   UNL     1      33.851  -5.111 -23.968  0.00  0.00    +0.001 C 
ATOM     15  C   UNL     1      31.666  -5.270 -24.988  0.00  0.00    +0.001 C 
ATOM     16  C   UNL     1      32.955  -4.738 -24.970  0.00  0.00    +0.000 C 
ENDBRANCH   9  11
BRANCH  10  17
ATOM     17  C   UNL     1      31.810  -5.472 -20.504  0.00  0.00    +0.086 C 
ATOM     18  C   UNL     1      30.526  -4.668 -20.635  0.00  0.00    +0.010 C 
ENDBRANCH  10  17
ENDBRANCH   2   9
BRANCH   1  19
ATOM     19  C   UNL     1      32.182 -13.081 -22.431  0.00  0.00    -0.073 C 
BRANCH  19  20
ATOM     20  C   UNL     1      33.323 -13.574 -23.344  0.00  0.00    +0.002 C 
ATOM     21  C   UNL     1      32.906 -13.672 -24.817  0.00  0.00    +0.003 C 
BRANCH  20  22
ATOM     22  C   UNL     1      33.865 -14.907 -22.849  0.00  0.00    -0.025 C 
ATOM     23  C   UNL     1      34.088 -15.076 -21.497  0.00  0.00    -0.004 C 
ATOM     24  C   UNL     1      34.118 -15.907 -23.765  0.00  0.00    -0.004 C 
ATOM     25  C   UNL     1      34.585 -16.297 -21.043  0.00  0.00    -0.000 C 
ATOM     26  C   UNL     1      34.615 -17.128 -23.311  0.00  0.00    -0.000 C 
ATOM     27  C   UNL     1      34.849 -17.324 -21.949  0.00  0.00    -0.000 C 
ENDBRANCH  20  22
ENDBRANCH  19  20
ENDBRANCH   1  19
TORSDOF 6
ENDMDL
MODEL 6
REMARK VINA RESULT:      -9.6      9.812     15.815
REMARK  Name = 6425761
REMARK  6 active torsions:
REMARK  status: ('A' for Active; 'I' for Inactive)
REMARK    1  A    between atoms: N_1  and  C_19
REMARK    2  A    between atoms: C_2  and  N_9
REMARK    3  A    between atoms: N_9  and  C_11
REMARK    4  A    between atoms: C_10  and  C_17
REMARK    5  A    between atoms: C_19  and  C_20
REMARK    6  A    between atoms: C_20  and  C_22
REMARK                            x       y       z     vdW  Elec       q    Type
REMARK                         _______ _______ _______ _____ _____    ______ ____
ROOT
ATOM      1  N   UNL     1      35.011 -21.859 -18.865  0.00  0.00    +0.387 N 
ATOM      2  C   UNL     1      34.664 -22.271 -15.989  0.00  0.00    +0.076 C 
ATOM      3  C   UNL     1      36.039 -22.054 -16.622  0.00  0.00    -0.003 C 
ATOM      4  C   UNL     1      33.693 -22.847 -17.020  0.00  0.00    -0.003 C 
ATOM      5  C   UNL     1      35.935 -21.233 -17.908  0.00  0.00    -0.076 C 
ATOM      6  C   UNL     1      33.666 -21.997 -18.292  0.00  0.00    -0.076 C 
ATOM      7  H   UNL     1      35.362 -22.794 -19.074  0.00  0.00    -0.080 HD
ENDROOT
BRANCH   2   9
ATOM      8  O   UNL     1      32.722 -22.513 -13.792  0.00  0.00    -0.275 OA
ATOM      9  N   UNL     1      34.761 -23.126 -14.832  0.00  0.00    -0.260 N 
ATOM     10  C   UNL     1      33.763 -23.174 -13.814  0.00  0.00    +0.229 C 
BRANCH   9  11
ATOM     11  C   UNL     1      35.937 -23.983 -14.696  0.00  0.00    +0.054 C 
ATOM     12  C   UNL     1      37.109 -23.392 -14.328  0.00  0.00    +0.015 C 
ATOM     13  C   UNL     1      35.782 -25.313 -14.949  0.00  0.00    +0.015 C 
ATOM     14  C   UNL     1      38.232 -24.209 -14.198  0.00  0.00    +0.001 C 
ATOM     15  C   UNL     1      36.905 -26.130 -14.819  0.00  0.00    +0.001 C 
ATOM     16  C   UNL     1      38.130 -25.578 -14.444  0.00  0.00    +0.000 C 
ENDBRANCH   9  11
BRANCH  10  17
ATOM     17  C   UNL     1      34.075 -24.109 -12.649  0.00  0.00    +0.086 C 
ATOM     18  C   UNL     1      34.832 -23.419 -11.525  0.00  0.00    +0.010 C 
ENDBRANCH  10  17
ENDBRANCH   2   9
BRANCH   1  19
ATOM     19  C   UNL     1      34.961 -21.089 -20.108  0.00  0.00    -0.073 C 
BRANCH  19  20
ATOM     20  C   UNL     1      33.937 -19.939 -20.040  0.00  0.00    +0.002 C 
ATOM     21  C   UNL     1      32.484 -20.433 -20.071  0.00  0.00    +0.003 C 
BRANCH  20  22
ATOM     22  C   UNL     1      34.187 -18.934 -21.154  0.00  0.00    -0.025 C 
ATOM     23  C   UNL     1      33.749 -19.229 -22.429  0.00  0.00    -0.004 C 
ATOM     24  C   UNL     1      34.843 -17.757 -20.857  0.00  0.00    -0.004 C 
ATOM     25  C   UNL     1      33.978 -18.308 -23.452  0.00  0.00    -0.000 C 
ATOM     26  C   UNL     1      35.072 -16.835 -21.880  0.00  0.00    -0.000 C 
ATOM     27  C   UNL     1      34.639 -17.111 -23.177  0.00  0.00    -0.000 C 
ENDBRANCH  20  22
ENDBRANCH  19  20
ENDBRANCH   1  19
TORSDOF 6
ENDMDL
MODEL 7
REMARK VINA RESULT:      -9.6     10.790     16.007
REMARK  Name = 6425761
REMARK  6 active torsions:
REMARK  status: ('A' for Active; 'I' for Inactive)
REMARK    1  A    between atoms: N_1  and  C_19
REMARK    2  A    between atoms: C_2  and  N_9
REMARK    3  A    between atoms: N_9  and  C_11
REMARK    4  A    between atoms: C_10  and  C_17
REMARK    5  A    between atoms: C_19  and  C_20
REMARK    6  A    between atoms: C_20  and  C_22
REMARK                            x       y       z     vdW  Elec       q    Type
REMARK                         _______ _______ _______ _____ _____    ______ ____
ROOT
ATOM      1  N   UNL     1      34.236 -21.686 -17.892  0.00  0.00    +0.387 N 
ATOM      2  C   UNL     1      34.359 -23.369 -15.502  0.00  0.00    +0.076 C 
ATOM      3  C   UNL     1      33.076 -23.203 -16.318  0.00  0.00    -0.003 C 
ATOM      4  C   UNL     1      35.268 -22.155 -15.694  0.00  0.00    -0.003 C 
ATOM      5  C   UNL     1      33.387 -22.880 -17.781  0.00  0.00    -0.076 C 
ATOM      6  C   UNL     1      35.506 -21.869 -17.178  0.00  0.00    -0.076 C 
ATOM      7  H   UNL     1      33.741 -20.906 -17.459  0.00  0.00    -0.080 HD
ENDROOT
BRANCH   2   9
ATOM      8  O   UNL     1      36.279 -23.790 -13.313  0.00  0.00    -0.275 OA
ATOM      9  N   UNL     1      34.057 -23.577 -14.108  0.00  0.00    -0.260 N 
ATOM     10  C   UNL     1      35.062 -23.774 -13.115  0.00  0.00    +0.229 C 
BRANCH   9  11
ATOM     11  C   UNL     1      32.655 -23.589 -13.694  0.00  0.00    +0.054 C 
ATOM     12  C   UNL     1      32.040 -22.385 -13.518  0.00  0.00    +0.015 C 
ATOM     13  C   UNL     1      32.061 -24.801 -13.509  0.00  0.00    +0.015 C 
ATOM     14  C   UNL     1      30.703 -22.395 -13.122  0.00  0.00    +0.001 C 
ATOM     15  C   UNL     1      30.723 -24.811 -13.113  0.00  0.00    +0.001 C 
ATOM     16  C   UNL     1      30.045 -23.608 -12.919  0.00  0.00    +0.000 C 
ENDBRANCH   9  11
BRANCH  10  17
ATOM     17  C   UNL     1      34.534 -24.024 -11.705  0.00  0.00    +0.086 C 
ATOM     18  C   UNL     1      35.630 -23.995 -10.651  0.00  0.00    +0.010 C 
ENDBRANCH  10  17
ENDBRANCH   2   9
BRANCH   1  19
ATOM     19  C   UNL     1      34.482 -21.362 -19.298  0.00  0.00    -0.073 C 
BRANCH  19  20
ATOM     20  C   UNL     1      33.678 -20.130 -19.761  0.00  0.00    +0.002 C 
ATOM     21  C   UNL     1      32.280 -20.492 -20.278  0.00  0.00    +0.003 C 
BRANCH  20  22
ATOM     22  C   UNL     1      34.454 -19.350 -20.811  0.00  0.00    -0.025 C 
ATOM     23  C   UNL     1      33.827 -19.020 -21.995  0.00  0.00    -0.004 C 
ATOM     24  C   UNL     1      35.762 -18.996 -20.549  0.00  0.00    -0.004 C 
ATOM     25  C   UNL     1      34.538 -18.304 -22.959  0.00  0.00    -0.000 C 
ATOM     26  C   UNL     1      36.473 -18.280 -21.513  0.00  0.00    -0.000 C 
ATOM     27  C   UNL     1      35.862 -17.934 -22.718  0.00  0.00    -0.000 C 
ENDBRANCH  20  22
ENDBRANCH  19  20
ENDBRANCH   1  19
TORSDOF 6
ENDMDL
MODEL 8
REMARK VINA RESULT:      -9.4      1.525      3.121
REMARK  Name = 6425761
REMARK  6 active torsions:
REMARK  status: ('A' for Active; 'I' for Inactive)
REMARK    1  A    between atoms: N_1  and  C_19
REMARK    2  A    between atoms: C_2  and  N_9
REMARK    3  A    between atoms: N_9  and  C_11
REMARK    4  A    between atoms: C_10  and  C_17
REMARK    5  A    between atoms: C_19  and  C_20
REMARK    6  A    between atoms: C_20  and  C_22
REMARK                            x       y       z     vdW  Elec       q    Type
REMARK                         _______ _______ _______ _____ _____    ______ ____
ROOT
ATOM      1  N   UNL     1      32.444 -10.936 -22.349  0.00  0.00    +0.387 N 
ATOM      2  C   UNL     1      32.348  -8.275 -23.561  0.00  0.00    +0.076 C 
ATOM      3  C   UNL     1      33.658  -9.041 -23.378  0.00  0.00    -0.003 C 
ATOM      4  C   UNL     1      31.314  -8.744 -22.536  0.00  0.00    -0.003 C 
ATOM      5  C   UNL     1      33.422 -10.552 -23.377  0.00  0.00    -0.076 C 
ATOM      6  C   UNL     1      31.156 -10.266 -22.565  0.00  0.00    -0.076 C 
ATOM      7  H   UNL     1      32.807 -10.637 -21.442  0.00  0.00    -0.080 HD
ENDROOT
BRANCH   2   9
ATOM      8  O   UNL     1      34.191  -6.649 -25.179  0.00  0.00    -0.275 OA
ATOM      9  N   UNL     1      32.566  -6.854 -23.465  0.00  0.00    -0.260 N 
ATOM     10  C   UNL     1      33.486  -6.150 -24.298  0.00  0.00    +0.229 C 
BRANCH   9  11
ATOM     11  C   UNL     1      31.810  -6.099 -22.468  0.00  0.00    +0.054 C 
ATOM     12  C   UNL     1      30.607  -5.583 -22.846  0.00  0.00    +0.015 C 
ATOM     13  C   UNL     1      32.362  -5.961 -21.229  0.00  0.00    +0.015 C 
ATOM     14  C   UNL     1      29.885  -4.862 -21.895  0.00  0.00    +0.001 C 
ATOM     15  C   UNL     1      31.640  -5.240 -20.278  0.00  0.00    +0.001 C 
ATOM     16  C   UNL     1      30.402  -4.690 -20.611  0.00  0.00    +0.000 C 
ENDBRANCH   9  11
BRANCH  10  17
ATOM     17  C   UNL     1      33.606  -4.656 -24.007  0.00  0.00    +0.086 C 
ATOM     18  C   UNL     1      32.924  -3.794 -25.058  0.00  0.00    +0.010 C 
ENDBRANCH  10  17
ENDBRANCH   2   9
BRANCH   1  19
ATOM     19  C   UNL     1      32.268 -12.388 -22.326  0.00  0.00    -0.073 C 
BRANCH  19  20
ATOM     20  C   UNL     1      33.284 -13.113 -23.231  0.00  0.00    +0.002 C 
ATOM     21  C   UNL     1      32.725 -13.425 -24.625  0.00  0.00    +0.003 C 
BRANCH  20  22
ATOM     22  C   UNL     1      33.789 -14.381 -22.558  0.00  0.00    -0.025 C 
ATOM     23  C   UNL     1      34.238 -15.421 -23.347  0.00  0.00    -0.004 C 
ATOM     24  C   UNL     1      33.782 -14.455 -21.180  0.00  0.00    -0.004 C 
ATOM     25  C   UNL     1      34.701 -16.584 -22.731  0.00  0.00    -0.000 C 
ATOM     26  C   UNL     1      34.245 -15.618 -20.565  0.00  0.00    -0.000 C 
ATOM     27  C   UNL     1      34.705 -16.682 -21.340  0.00  0.00    -0.000 C 
ENDBRANCH  20  22
ENDBRANCH  19  20
ENDBRANCH   1  19
TORSDOF 6
ENDMDL
MODEL 9
REMARK VINA RESULT:      -9.3      1.464      2.867
REMARK  Name = 6425761
REMARK  6 active torsions:
REMARK  status: ('A' for Active; 'I' for Inactive)
REMARK    1  A    between atoms: N_1  and  C_19
REMARK    2  A    between atoms: C_2  and  N_9
REMARK    3  A    between atoms: N_9  and  C_11
REMARK    4  A    between atoms: C_10  and  C_17
REMARK    5  A    between atoms: C_19  and  C_20
REMARK    6  A    between atoms: C_20  and  C_22
REMARK                            x       y       z     vdW  Elec       q    Type
REMARK                         _______ _______ _______ _____ _____    ______ ____
ROOT
ATOM      1  N   UNL     1      32.295 -10.610 -22.333  0.00  0.00    +0.387 N 
ATOM      2  C   UNL     1      32.181  -8.010 -23.670  0.00  0.00    +0.076 C 
ATOM      3  C   UNL     1      33.505  -8.700 -23.339  0.00  0.00    -0.003 C 
ATOM      4  C   UNL     1      31.084  -8.488 -22.718  0.00  0.00    -0.003 C 
ATOM      5  C   UNL     1      33.341 -10.220 -23.289  0.00  0.00    -0.076 C 
ATOM      6  C   UNL     1      31.000 -10.016 -22.691  0.00  0.00    -0.076 C 
ATOM      7  H   UNL     1      32.561 -10.256 -21.413  0.00  0.00    -0.080 HD
ENDROOT
BRANCH   2   9
ATOM      8  O   UNL     1      33.713  -6.313 -25.522  0.00  0.00    -0.275 OA
ATOM      9  N   UNL     1      32.323  -6.577 -23.621  0.00  0.00    -0.260 N 
ATOM     10  C   UNL     1      33.091  -5.837 -24.569  0.00  0.00    +0.229 C 
BRANCH   9  11
ATOM     11  C   UNL     1      31.649  -5.847 -22.549  0.00  0.00    +0.054 C 
ATOM     12  C   UNL     1      32.282  -5.766 -21.345  0.00  0.00    +0.015 C 
ATOM     13  C   UNL     1      30.433  -5.297 -22.827  0.00  0.00    +0.015 C 
ATOM     14  C   UNL     1      31.639  -5.070 -20.322  0.00  0.00    +0.001 C 
ATOM     15  C   UNL     1      29.790  -4.601 -21.804  0.00  0.00    +0.001 C 
ATOM     16  C   UNL     1      30.392  -4.488 -20.551  0.00  0.00    +0.000 C 
ENDBRANCH   9  11
BRANCH  10  17
ATOM     17  C   UNL     1      33.154  -4.334 -24.315  0.00  0.00    +0.086 C 
ATOM     18  C   UNL     1      32.516  -3.520 -25.430  0.00  0.00    +0.010 C 
ENDBRANCH  10  17
ENDBRANCH   2   9
BRANCH   1  19
ATOM     19  C   UNL     1      32.186 -12.067 -22.259  0.00  0.00    -0.073 C 
BRANCH  19  20
ATOM     20  C   UNL     1      33.222 -12.775 -23.155  0.00  0.00    +0.002 C 
ATOM     21  C   UNL     1      32.691 -13.065 -24.565  0.00  0.00    +0.003 C 
BRANCH  20  22
ATOM     22  C   UNL     1      33.715 -14.054 -22.493  0.00  0.00    -0.025 C 
ATOM     23  C   UNL     1      33.629 -14.170 -21.121  0.00  0.00    -0.004 C 
ATOM     24  C   UNL     1      34.233 -15.058 -23.285  0.00  0.00    -0.004 C 
ATOM     25  C   UNL     1      34.081 -15.343 -20.514  0.00  0.00    -0.000 C 
ATOM     26  C   UNL     1      34.684 -16.231 -22.678  0.00  0.00    -0.000 C 
ATOM     27  C   UNL     1      34.608 -16.373 -21.292  0.00  0.00    -0.000 C 
ENDBRANCH  20  22
ENDBRANCH  19  20
ENDBRANCH   1  19
TORSDOF 6
ENDMDL
