MODEL 1
REMARK VINA RESULT:     -11.2      0.000      0.000
REMARK  Name = 3747
REMARK  3 active torsions:
REMARK  status: ('A' for Active; 'I' for Inactive)
REMARK    1  A    between atoms: C_5  and  C_12
REMARK    2  A    between atoms: C_6  and  O_18
REMARK    3  A    between atoms: O_18  and  C_19
REMARK                            x       y       z     vdW  Elec       q    Type
REMARK                         _______ _______ _______ _____ _____    ______ ____
ROOT
ATOM      1  O   UNL     1      36.124 -20.118 -19.517  0.00  0.00    -0.450 OA
ATOM      2  O   UNL     1      32.310 -19.854 -20.943  0.00  0.00    -0.286 OA
ATOM      3  C   UNL     1      33.795 -20.785 -19.371  0.00  0.00    +0.074 C 
ATOM      4  C   UNL     1      35.118 -20.844 -18.933  0.00  0.00    +0.151 C 
ATOM      5  C   UNL     1      34.572 -19.127 -21.100  0.00  0.00    +0.077 C 
ATOM      6  C   UNL     1      34.482 -22.429 -17.228  0.00  0.00    +0.141 C 
ATOM      7  C   UNL     1      33.454 -19.912 -20.509  0.00  0.00    +0.202 C 
ATOM      8  C   UNL     1      35.464 -21.667 -17.860  0.00  0.00    +0.074 C 
ATOM      9  C   UNL     1      32.811 -21.549 -18.739  0.00  0.00    +0.009 C 
ATOM     10  C   UNL     1      33.159 -22.370 -17.665  0.00  0.00    +0.037 C 
ATOM     11  C   UNL     1      35.790 -19.293 -20.563  0.00  0.00    +0.183 C 
ENDROOT
BRANCH   5  12
ATOM     12  C   UNL     1      34.362 -18.188 -22.215  0.00  0.00    +0.006 C 
ATOM     13  C   UNL     1      34.703 -16.842 -22.070  0.00  0.00    +0.000 C 
ATOM     14  C   UNL     1      33.820 -18.641 -23.419  0.00  0.00    +0.000 C 
ATOM     15  C   UNL     1      34.503 -15.952 -23.126  0.00  0.00    +0.000 C 
ATOM     16  C   UNL     1      33.620 -17.751 -24.475  0.00  0.00    +0.000 C 
ATOM     17  C   UNL     1      33.962 -16.406 -24.328  0.00  0.00    +0.000 C 
ENDBRANCH   5  12
BRANCH   6  18
ATOM     18  O   UNL     1      34.816 -23.232 -16.180  0.00  0.00    -0.479 OA
BRANCH  18  19
ATOM     19  C   UNL     1      34.655 -22.691 -14.870  0.00  0.00    +0.166 C 
ATOM     20  C   UNL     1      33.596 -23.489 -14.125  0.00  0.00    +0.047 C 
ATOM     21  C   UNL     1      35.995 -22.718 -14.150  0.00  0.00    +0.047 C 
ENDBRANCH  18  19
ENDBRANCH   6  18
TORSDOF 3
ENDMDL
MODEL 2
REMARK VINA RESULT:     -10.9      3.962      6.608
REMARK  Name = 3747
REMARK  3 active torsions:
REMARK  status: ('A' for Active; 'I' for Inactive)
REMARK    1  A    between atoms: C_5  and  C_12
REMARK    2  A    between atoms: C_6  and  O_18
REMARK    3  A    between atoms: O_18  and  C_19
REMARK                            x       y       z     vdW  Elec       q    Type
REMARK                         _______ _______ _______ _____ _____    ______ ____
ROOT
ATOM      1  O   UNL     1      34.179 -14.754 -20.456  0.00  0.00    -0.450 OA
ATOM      2  O   UNL     1      33.125 -14.049 -24.334  0.00  0.00    -0.286 OA
ATOM      3  C   UNL     1      33.943 -15.566 -22.731  0.00  0.00    +0.074 C 
ATOM      4  C   UNL     1      34.298 -15.747 -21.394  0.00  0.00    +0.151 C 
ATOM      5  C   UNL     1      33.288 -13.214 -22.110  0.00  0.00    +0.077 C 
ATOM      6  C   UNL     1      34.943 -18.022 -21.874  0.00  0.00    +0.141 C 
ATOM      7  C   UNL     1      33.421 -14.257 -23.165  0.00  0.00    +0.202 C 
ATOM      8  C   UNL     1      34.799 -16.975 -20.963  0.00  0.00    +0.074 C 
ATOM      9  C   UNL     1      34.088 -16.613 -23.644  0.00  0.00    +0.009 C 
ATOM     10  C   UNL     1      34.588 -17.842 -23.211  0.00  0.00    +0.037 C 
ATOM     11  C   UNL     1      33.671 -13.546 -20.867  0.00  0.00    +0.183 C 
ENDROOT
BRANCH   5  12
ATOM     12  C   UNL     1      32.743 -11.878 -22.399  0.00  0.00    +0.006 C 
ATOM     13  C   UNL     1      31.564 -11.454 -21.782  0.00  0.00    +0.000 C 
ATOM     14  C   UNL     1      33.403 -11.031 -23.292  0.00  0.00    +0.000 C 
ATOM     15  C   UNL     1      31.047 -10.187 -22.057  0.00  0.00    +0.000 C 
ATOM     16  C   UNL     1      32.885  -9.764 -23.566  0.00  0.00    +0.000 C 
ATOM     17  C   UNL     1      31.708  -9.342 -22.949  0.00  0.00    +0.000 C 
ENDBRANCH   5  12
BRANCH   6  18
ATOM     18  O   UNL     1      35.431 -19.223 -21.456  0.00  0.00    -0.479 OA
BRANCH  18  19
ATOM     19  C   UNL     1      34.929 -19.734 -20.223  0.00  0.00    +0.166 C 
ATOM     20  C   UNL     1      33.467 -20.116 -20.397  0.00  0.00    +0.047 C 
ATOM     21  C   UNL     1      35.776 -20.922 -19.792  0.00  0.00    +0.047 C 
ENDBRANCH  18  19
ENDBRANCH   6  18
TORSDOF 3
ENDMDL
MODEL 3
REMARK VINA RESULT:     -10.8      1.983      7.968
REMARK  Name = 3747
REMARK  3 active torsions:
REMARK  status: ('A' for Active; 'I' for Inactive)
REMARK    1  A    between atoms: C_5  and  C_12
REMARK    2  A    between atoms: C_6  and  O_18
REMARK    3  A    between atoms: O_18  and  C_19
REMARK                            x       y       z     vdW  Elec       q    Type
REMARK                         _______ _______ _______ _____ _____    ______ ____
ROOT
ATOM      1  O   UNL     1      31.617 -21.228 -18.510  0.00  0.00    -0.450 OA
ATOM      2  O   UNL     1      34.415 -23.147 -16.244  0.00  0.00    -0.286 OA
ATOM      3  C   UNL     1      33.949 -21.736 -18.070  0.00  0.00    +0.074 C 
ATOM      4  C   UNL     1      32.948 -21.112 -18.815  0.00  0.00    +0.151 C 
ATOM      5  C   UNL     1      32.115 -22.641 -16.598  0.00  0.00    +0.077 C 
ATOM      6  C   UNL     1      34.624 -20.180 -20.281  0.00  0.00    +0.141 C 
ATOM      7  C   UNL     1      33.570 -22.559 -16.906  0.00  0.00    +0.202 C 
ATOM      8  C   UNL     1      33.284 -20.333 -19.923  0.00  0.00    +0.074 C 
ATOM      9  C   UNL     1      35.290 -21.584 -18.428  0.00  0.00    +0.009 C 
ATOM     10  C   UNL     1      35.624 -20.804 -19.536  0.00  0.00    +0.037 C 
ATOM     11  C   UNL     1      31.278 -21.980 -17.411  0.00  0.00    +0.183 C 
ENDROOT
BRANCH   5  12
ATOM     12  C   UNL     1      31.605 -23.396 -15.442  0.00  0.00    +0.006 C 
ATOM     13  C   UNL     1      32.416 -23.594 -14.323  0.00  0.00    +0.000 C 
ATOM     14  C   UNL     1      30.310 -23.917 -15.461  0.00  0.00    +0.000 C 
ATOM     15  C   UNL     1      31.933 -24.310 -13.226  0.00  0.00    +0.000 C 
ATOM     16  C   UNL     1      29.827 -24.633 -14.365  0.00  0.00    +0.000 C 
ATOM     17  C   UNL     1      30.639 -24.829 -13.248  0.00  0.00    +0.000 C 
ENDBRANCH   5  12
BRANCH   6  18
ATOM     18  O   UNL     1      34.954 -19.419 -21.361  0.00  0.00    -0.479 OA
BRANCH  18  19
ATOM     19  C   UNL     1      35.698 -18.227 -21.112  0.00  0.00    +0.166 C 
ATOM     20  C   UNL     1      36.939 -18.218 -21.992  0.00  0.00    +0.047 C 
ATOM     21  C   UNL     1      34.810 -17.020 -21.373  0.00  0.00    +0.047 C 
ENDBRANCH  18  19
ENDBRANCH   6  18
TORSDOF 3
ENDMDL
MODEL 4
REMARK VINA RESULT:     -10.5      6.813     11.236
REMARK  Name = 3747
REMARK  3 active torsions:
REMARK  status: ('A' for Active; 'I' for Inactive)
REMARK    1  A    between atoms: C_5  and  C_12
REMARK    2  A    between atoms: C_6  and  O_18
REMARK    3  A    between atoms: O_18  and  C_19
REMARK                            x       y       z     vdW  Elec       q    Type
REMARK                         _______ _______ _______ _____ _____    ______ ____
ROOT
ATOM      1  O   UNL     1      33.080 -10.935 -23.759  0.00  0.00    -0.450 OA
ATOM      2  O   UNL     1      32.094 -13.461 -20.711  0.00  0.00    -0.286 OA
ATOM      3  C   UNL     1      31.951 -11.304 -21.642  0.00  0.00    +0.074 C 
ATOM      4  C   UNL     1      32.327 -10.483 -22.705  0.00  0.00    +0.151 C 
ATOM      5  C   UNL     1      33.177 -13.169 -22.812  0.00  0.00    +0.077 C 
ATOM      6  C   UNL     1      31.171  -8.629 -21.681  0.00  0.00    +0.141 C 
ATOM      7  C   UNL     1      32.378 -12.715 -21.639  0.00  0.00    +0.202 C 
ATOM      8  C   UNL     1      31.938  -9.144 -22.726  0.00  0.00    +0.074 C 
ATOM      9  C   UNL     1      31.184 -10.790 -20.594  0.00  0.00    +0.009 C 
ATOM     10  C   UNL     1      30.795  -9.450 -20.618  0.00  0.00    +0.037 C 
ATOM     11  C   UNL     1      33.454 -12.256 -23.755  0.00  0.00    +0.183 C 
ENDROOT
BRANCH   5  12
ATOM     12  C   UNL     1      33.632 -14.561 -22.952  0.00  0.00    +0.006 C 
ATOM     13  C   UNL     1      34.257 -15.205 -21.882  0.00  0.00    +0.000 C 
ATOM     14  C   UNL     1      33.441 -15.243 -24.156  0.00  0.00    +0.000 C 
ATOM     15  C   UNL     1      34.690 -16.525 -22.015  0.00  0.00    +0.000 C 
ATOM     16  C   UNL     1      33.874 -16.563 -24.289  0.00  0.00    +0.000 C 
ATOM     17  C   UNL     1      34.498 -17.204 -23.218  0.00  0.00    +0.000 C 
ENDBRANCH   5  12
BRANCH   6  18
ATOM     18  O   UNL     1      30.789  -7.322 -21.699  0.00  0.00    -0.479 OA
BRANCH  18  19
ATOM     19  C   UNL     1      31.810  -6.344 -21.515  0.00  0.00    +0.166 C 
ATOM     20  C   UNL     1      31.479  -5.111 -22.341  0.00  0.00    +0.047 C 
ATOM     21  C   UNL     1      31.929  -6.017 -20.034  0.00  0.00    +0.047 C 
ENDBRANCH  18  19
ENDBRANCH   6  18
TORSDOF 3
ENDMDL
MODEL 5
REMARK VINA RESULT:     -10.5      4.851      7.904
REMARK  Name = 3747
REMARK  3 active torsions:
REMARK  status: ('A' for Active; 'I' for Inactive)
REMARK    1  A    between atoms: C_5  and  C_12
REMARK    2  A    between atoms: C_6  and  O_18
REMARK    3  A    between atoms: O_18  and  C_19
REMARK                            x       y       z     vdW  Elec       q    Type
REMARK                         _______ _______ _______ _____ _____    ______ ____
ROOT
ATOM      1  O   UNL     1      33.685 -13.805 -20.930  0.00  0.00    -0.450 OA
ATOM      2  O   UNL     1      32.547 -12.649 -24.674  0.00  0.00    -0.286 OA
ATOM      3  C   UNL     1      33.453 -14.324 -23.290  0.00  0.00    +0.074 C 
ATOM      4  C   UNL     1      33.834 -14.661 -21.991  0.00  0.00    +0.151 C 
ATOM      5  C   UNL     1      32.705 -12.105 -22.361  0.00  0.00    +0.077 C 
ATOM      6  C   UNL     1      34.572 -16.824 -22.770  0.00  0.00    +0.141 C 
ATOM      7  C   UNL     1      32.868 -12.995 -23.544  0.00  0.00    +0.202 C 
ATOM      8  C   UNL     1      34.395 -15.912 -21.729  0.00  0.00    +0.074 C 
ATOM      9  C   UNL     1      33.630 -15.236 -24.333  0.00  0.00    +0.009 C 
ATOM     10  C   UNL     1      34.190 -16.487 -24.068  0.00  0.00    +0.037 C 
ATOM     11  C   UNL     1      33.119 -12.578 -21.176  0.00  0.00    +0.183 C 
ENDROOT
BRANCH   5  12
ATOM     12  C   UNL     1      32.098 -10.769 -22.469  0.00  0.00    +0.006 C 
ATOM     13  C   UNL     1      32.762  -9.752 -23.157  0.00  0.00    +0.000 C 
ATOM     14  C   UNL     1      30.856 -10.513 -21.883  0.00  0.00    +0.000 C 
ATOM     15  C   UNL     1      32.187  -8.484 -23.260  0.00  0.00    +0.000 C 
ATOM     16  C   UNL     1      30.281  -9.246 -21.986  0.00  0.00    +0.000 C 
ATOM     17  C   UNL     1      30.947  -8.232 -22.674  0.00  0.00    +0.000 C 
ENDBRANCH   5  12
BRANCH   6  18
ATOM     18  O   UNL     1      35.117 -18.045 -22.517  0.00  0.00    -0.479 OA
BRANCH  18  19
ATOM     19  C   UNL     1      35.071 -18.510 -21.169  0.00  0.00    +0.166 C 
ATOM     20  C   UNL     1      34.092 -19.670 -21.072  0.00  0.00    +0.047 C 
ATOM     21  C   UNL     1      36.471 -18.913 -20.731  0.00  0.00    +0.047 C 
ENDBRANCH  18  19
ENDBRANCH   6  18
TORSDOF 3
ENDMDL
MODEL 6
REMARK VINA RESULT:     -10.4      1.013      2.277
REMARK  Name = 3747
REMARK  3 active torsions:
REMARK  status: ('A' for Active; 'I' for Inactive)
REMARK    1  A    between atoms: C_5  and  C_12
REMARK    2  A    between atoms: C_6  and  O_18
REMARK    3  A    between atoms: O_18  and  C_19
REMARK                            x       y       z     vdW  Elec       q    Type
REMARK                         _______ _______ _______ _____ _____    ______ ____
ROOT
ATOM      1  O   UNL     1      32.766 -21.021 -19.389  0.00  0.00    -0.450 OA
ATOM      2  O   UNL     1      36.374 -19.269 -20.139  0.00  0.00    -0.286 OA
ATOM      3  C   UNL     1      35.118 -20.780 -18.842  0.00  0.00    +0.074 C 
ATOM      4  C   UNL     1      33.859 -21.339 -18.625  0.00  0.00    +0.151 C 
ATOM      5  C   UNL     1      34.085 -19.503 -20.752  0.00  0.00    +0.077 C 
ATOM      6  C   UNL     1      34.746 -22.622 -16.783  0.00  0.00    +0.141 C 
ATOM      7  C   UNL     1      35.292 -19.805 -19.933  0.00  0.00    +0.202 C 
ATOM      8  C   UNL     1      33.670 -22.261 -17.594  0.00  0.00    +0.074 C 
ATOM      9  C   UNL     1      36.196 -21.140 -18.030  0.00  0.00    +0.009 C 
ATOM     10  C   UNL     1      36.006 -22.063 -17.000  0.00  0.00    +0.037 C 
ATOM     11  C   UNL     1      32.945 -20.127 -20.416  0.00  0.00    +0.183 C 
ENDROOT
BRANCH   5  12
ATOM     12  C   UNL     1      34.130 -18.578 -21.896  0.00  0.00    +0.006 C 
ATOM     13  C   UNL     1      33.637 -18.979 -23.140  0.00  0.00    +0.000 C 
ATOM     14  C   UNL     1      34.665 -17.298 -21.741  0.00  0.00    +0.000 C 
ATOM     15  C   UNL     1      33.680 -18.102 -24.225  0.00  0.00    +0.000 C 
ATOM     16  C   UNL     1      34.708 -16.421 -22.826  0.00  0.00    +0.000 C 
ATOM     17  C   UNL     1      34.215 -16.824 -24.068  0.00  0.00    +0.000 C 
ENDBRANCH   5  12
BRANCH   6  18
ATOM     18  O   UNL     1      34.566 -23.522 -15.777  0.00  0.00    -0.479 OA
BRANCH  18  19
ATOM     19  C   UNL     1      35.659 -23.724 -14.883  0.00  0.00    +0.166 C 
ATOM     20  C   UNL     1      35.346 -23.062 -13.550  0.00  0.00    +0.047 C 
ATOM     21  C   UNL     1      35.908 -25.217 -14.729  0.00  0.00    +0.047 C 
ENDBRANCH  18  19
ENDBRANCH   6  18
TORSDOF 3
ENDMDL
MODEL 7
REMARK VINA RESULT:     -10.2      5.378      8.387
REMARK  Name = 3747
REMARK  3 active torsions:
REMARK  status: ('A' for Active; 'I' for Inactive)
REMARK    1  A    between atoms: C_5  and  C_12
REMARK    2  A    between atoms: C_6  and  O_18
REMARK    3  A    between atoms: O_18  and  C_19
REMARK                            x       y       z     vdW  Elec       q    Type
REMARK                         _______ _______ _______ _____ _____    ______ ____
ROOT
ATOM      1  O   UNL     1      33.559 -13.171 -24.137  0.00  0.00    -0.450 OA
ATOM      2  O   UNL     1      32.367 -11.871 -20.458  0.00  0.00    -0.286 OA
ATOM      3  C   UNL     1      33.368 -13.565 -21.750  0.00  0.00    +0.074 C 
ATOM      4  C   UNL     1      33.746 -13.962 -23.033  0.00  0.00    +0.151 C 
ATOM      5  C   UNL     1      32.575 -11.410 -22.786  0.00  0.00    +0.077 C 
ATOM      6  C   UNL     1      34.552 -16.057 -22.146  0.00  0.00    +0.141 C 
ATOM      7  C   UNL     1      32.739 -12.245 -21.563  0.00  0.00    +0.202 C 
ATOM      8  C   UNL     1      34.338 -15.210 -23.233  0.00  0.00    +0.074 C 
ATOM      9  C   UNL     1      33.581 -14.413 -20.661  0.00  0.00    +0.009 C 
ATOM     10  C   UNL     1      34.175 -15.660 -20.863  0.00  0.00    +0.037 C 
ATOM     11  C   UNL     1      32.992 -11.935 -23.948  0.00  0.00    +0.183 C 
ENDROOT
BRANCH   5  12
ATOM     12  C   UNL     1      31.998 -10.057 -22.733  0.00  0.00    +0.006 C 
ATOM     13  C   UNL     1      32.754  -8.958 -23.148  0.00  0.00    +0.000 C 
ATOM     14  C   UNL     1      30.695  -9.868 -22.269  0.00  0.00    +0.000 C 
ATOM     15  C   UNL     1      32.207  -7.675 -23.098  0.00  0.00    +0.000 C 
ATOM     16  C   UNL     1      30.149  -8.584 -22.219  0.00  0.00    +0.000 C 
ATOM     17  C   UNL     1      30.906  -7.488 -22.634  0.00  0.00    +0.000 C 
ENDBRANCH   5  12
BRANCH   6  18
ATOM     18  O   UNL     1      35.131 -17.275 -22.338  0.00  0.00    -0.479 OA
BRANCH  18  19
ATOM     19  C   UNL     1      35.066 -18.203 -21.257  0.00  0.00    +0.166 C 
ATOM     20  C   UNL     1      34.154 -19.358 -21.642  0.00  0.00    +0.047 C 
ATOM     21  C   UNL     1      36.471 -18.678 -20.921  0.00  0.00    +0.047 C 
ENDBRANCH  18  19
ENDBRANCH   6  18
TORSDOF 3
ENDMDL
MODEL 8
REMARK VINA RESULT:     -10.2      1.938      3.526
REMARK  Name = 3747
REMARK  3 active torsions:
REMARK  status: ('A' for Active; 'I' for Inactive)
REMARK    1  A    between atoms: C_5  and  C_12
REMARK    2  A    between atoms: C_6  and  O_18
REMARK    3  A    between atoms: O_18  and  C_19
REMARK                            x       y       z     vdW  Elec       q    Type
REMARK                         _______ _______ _______ _____ _____    ______ ____
ROOT
ATOM      1  O   UNL     1      31.896 -21.419 -18.572  0.00  0.00    -0.450 OA
ATOM      2  O   UNL     1      35.959 -21.074 -18.433  0.00  0.00    -0.286 OA
ATOM      3  C   UNL     1      34.000 -21.991 -17.505  0.00  0.00    +0.074 C 
ATOM      4  C   UNL     1      32.610 -22.064 -17.595  0.00  0.00    +0.151 C 
ATOM      5  C   UNL     1      33.930 -20.522 -19.551  0.00  0.00    +0.077 C 
ATOM      6  C   UNL     1      32.560 -23.490 -15.648  0.00  0.00    +0.141 C 
ATOM      7  C   UNL     1      34.742 -21.188 -18.494  0.00  0.00    +0.202 C 
ATOM      8  C   UNL     1      31.887 -22.814 -16.666  0.00  0.00    +0.074 C 
ATOM      9  C   UNL     1      34.674 -22.667 -16.486  0.00  0.00    +0.009 C 
ATOM     10  C   UNL     1      33.950 -23.417 -15.559  0.00  0.00    +0.037 C 
ATOM     11  C   UNL     1      32.600 -20.692 -19.501  0.00  0.00    +0.183 C 
ENDROOT
BRANCH   5  12
ATOM     12  C   UNL     1      34.549 -19.724 -20.622  0.00  0.00    +0.006 C 
ATOM     13  C   UNL     1      33.851 -19.484 -21.808  0.00  0.00    +0.000 C 
ATOM     14  C   UNL     1      35.834 -19.205 -20.456  0.00  0.00    +0.000 C 
ATOM     15  C   UNL     1      34.438 -18.728 -22.823  0.00  0.00    +0.000 C 
ATOM     16  C   UNL     1      36.420 -18.449 -21.471  0.00  0.00    +0.000 C 
ATOM     17  C   UNL     1      35.722 -18.210 -22.655  0.00  0.00    +0.000 C 
ENDBRANCH   5  12
BRANCH   6  18
ATOM     18  O   UNL     1      31.858 -24.224 -14.741  0.00  0.00    -0.479 OA
BRANCH  18  19
ATOM     19  C   UNL     1      30.519 -23.813 -14.471  0.00  0.00    +0.166 C 
ATOM     20  C   UNL     1      29.601 -25.024 -14.532  0.00  0.00    +0.047 C 
ATOM     21  C   UNL     1      30.469 -23.133 -13.111  0.00  0.00    +0.047 C 
ENDBRANCH  18  19
ENDBRANCH   6  18
TORSDOF 3
ENDMDL
MODEL 9
REMARK VINA RESULT:     -10.0      4.311      9.386
REMARK  Name = 3747
REMARK  3 active torsions:
REMARK  status: ('A' for Active; 'I' for Inactive)
REMARK    1  A    between atoms: C_5  and  C_12
REMARK    2  A    between atoms: C_6  and  O_18
REMARK    3  A    between atoms: O_18  and  C_19
REMARK                            x       y       z     vdW  Elec       q    Type
REMARK                         _______ _______ _______ _____ _____    ______ ____
ROOT
ATOM      1  O   UNL     1      33.778 -14.009 -20.864  0.00  0.00    -0.450 OA
ATOM      2  O   UNL     1      34.078 -16.694 -23.921  0.00  0.00    -0.286 OA
ATOM      3  C   UNL     1      33.588 -14.497 -23.234  0.00  0.00    +0.074 C 
ATOM      4  C   UNL     1      33.492 -13.625 -22.149  0.00  0.00    +0.151 C 
ATOM      5  C   UNL     1      34.330 -16.259 -21.593  0.00  0.00    +0.077 C 
ATOM      6  C   UNL     1      32.785 -11.857 -23.632  0.00  0.00    +0.141 C 
ATOM      7  C   UNL     1      34.010 -15.890 -23.001  0.00  0.00    +0.202 C 
ATOM      8  C   UNL     1      33.090 -12.304 -22.346  0.00  0.00    +0.074 C 
ATOM      9  C   UNL     1      33.282 -14.051 -24.522  0.00  0.00    +0.009 C 
ATOM     10  C   UNL     1      32.881 -12.729 -24.717  0.00  0.00    +0.037 C 
ATOM     11  C   UNL     1      34.190 -15.304 -20.662  0.00  0.00    +0.183 C 
ENDROOT
BRANCH   5  12
ATOM     12  C   UNL     1      34.801 -17.605 -21.229  0.00  0.00    +0.006 C 
ATOM     13  C   UNL     1      36.169 -17.882 -21.194  0.00  0.00    +0.000 C 
ATOM     14  C   UNL     1      33.882 -18.608 -20.916  0.00  0.00    +0.000 C 
ATOM     15  C   UNL     1      36.616 -19.158 -20.849  0.00  0.00    +0.000 C 
ATOM     16  C   UNL     1      34.328 -19.884 -20.570  0.00  0.00    +0.000 C 
ATOM     17  C   UNL     1      35.696 -20.159 -20.537  0.00  0.00    +0.000 C 
ENDBRANCH   5  12
BRANCH   6  18
ATOM     18  O   UNL     1      32.394 -10.568 -23.828  0.00  0.00    -0.479 OA
BRANCH  18  19
ATOM     19  C   UNL     1      32.272  -9.744 -22.671  0.00  0.00    +0.166 C 
ATOM     20  C   UNL     1      32.823  -8.360 -22.981  0.00  0.00    +0.047 C 
ATOM     21  C   UNL     1      30.812  -9.689 -22.247  0.00  0.00    +0.047 C 
ENDBRANCH  18  19
ENDBRANCH   6  18
TORSDOF 3
ENDMDL
