MODEL 1
REMARK VINA RESULT:     -11.0      0.000      0.000
REMARK  Name = 23647361
REMARK  10 active torsions:
REMARK  status: ('A' for Active; 'I' for Inactive)
REMARK    1  A    between atoms: N_2  and  CA_19
REMARK    2  A    between atoms: C_3  and  C_6
REMARK    3  A    between atoms: C_7  and  C_10
REMARK    4  A    between atoms: N_9  and  C_12
REMARK    5  A    between atoms: C_12  and  C_13
REMARK    6  A    between atoms: CA_19  and  C_26
REMARK    7  A    between atoms: CA_19  and  CB_31
REMARK    8  A    between atoms: CA_22  and  C_28
REMARK    9  A    between atoms: C_28  and  O_29
REMARK   10  A    between atoms: CB_31  and  CG1_33
REMARK                            x       y       z     vdW  Elec       q    Type
REMARK                         _______ _______ _______ _____ _____    ______ ____
ROOT
ATOM      1  O   UNL     1      36.521 -21.075 -16.000  0.00  0.00    -0.272 OA
ATOM      2  N   UNL     1      34.834 -22.595 -16.522  0.00  0.00    -0.296 N 
ATOM      3  C   ACE A   0      35.826 -21.670 -16.815  0.00  0.00    +0.253 C 
ATOM      4  H   UNL     1      34.344 -23.005 -17.271  0.00  0.00    +0.150 HD
ENDROOT
BRANCH   3   6
ATOM      5  O   UNL     1      34.968 -21.965 -19.060  0.00  0.00    -0.335 OA
ATOM      6  C   UNL     1      36.019 -21.413 -18.273  0.00  0.00    +0.227 C 
ATOM      7  C   UNL     1      35.053 -20.535 -18.988  0.00  0.00    +0.227 C 
BRANCH   7  10
ATOM      8  O   UNL     1      36.637 -19.707 -20.482  0.00  0.00    -0.272 OA
ATOM      9  N   UNL     1      34.392 -19.624 -21.096  0.00  0.00    -0.298 N 
ATOM     10  C   UNL     1      35.450 -19.917 -20.257  0.00  0.00    +0.253 C 
ATOM     11  H   UNL     1      33.481 -19.844 -20.794  0.00  0.00    +0.150 HD
BRANCH   9  12
ATOM     12  C   UNL     1      34.558 -19.008 -22.393  0.00  0.00    +0.116 C 
BRANCH  12  13
ATOM     13  C   UNL     1      34.418 -17.516 -22.329  0.00  0.00    -0.003 C 
ATOM     14  C   UNL     1      34.373 -16.882 -21.092  0.00  0.00    -0.003 C 
ATOM     15  C   UNL     1      34.334 -16.782 -23.506  0.00  0.00    -0.003 C 
ATOM     16  C   UNL     1      34.244 -15.494 -21.033  0.00  0.00    -0.000 C 
ATOM     17  C   UNL     1      34.204 -15.394 -23.447  0.00  0.00    -0.000 C 
ATOM     18  C   UNL     1      34.158 -14.751 -22.210  0.00  0.00    -0.000 C 
ENDBRANCH  12  13
ENDBRANCH   9  12
ENDBRANCH   7  10
ENDBRANCH   3   6
BRANCH   2  19
ATOM     19  CA  UNL     1      34.487 -22.989 -15.188  0.00  0.00    +0.149 C 
BRANCH  19  26
ATOM     20  O   UNL     1      35.527 -25.114 -15.452  0.00  0.00    -0.273 OA
ATOM     21  N   UNL     1      36.247 -23.797 -13.689  0.00  0.00    -0.270 N 
ATOM     22  CA  UNL     1      37.348 -24.658 -13.277  0.00  0.00    +0.175 C 
ATOM     23  CB  UNL     1      38.193 -23.791 -12.352  0.00  0.00    +0.033 C 
ATOM     24  CD  UNL     1      36.207 -22.575 -12.890  0.00  0.00    +0.094 C 
ATOM     25  CG  UNL     1      37.177 -22.825 -11.746  0.00  0.00    +0.024 C 
ATOM     26  C   UNL     1      35.466 -24.069 -14.801  0.00  0.00    +0.244 C 
BRANCH  22  28
ATOM     27  OXT UNL     1      36.392 -25.818 -11.384  0.00  0.00    -0.248 OA
ATOM     28  C   UNL     1      36.750 -25.826 -12.553  0.00  0.00    +0.332 C 
BRANCH  28  29
ATOM     29  O   UNL     1      36.660 -26.903 -13.371  0.00  0.00    -0.479 OA
ATOM     30  H   UNL     1      35.820 -27.260 -13.583  0.00  0.00    +0.295 HD
ENDBRANCH  28  29
ENDBRANCH  22  28
ENDBRANCH  19  26
BRANCH  19  31
ATOM     31  CB  UNL     1      33.031 -23.457 -15.021  0.00  0.00    +0.027 C 
ATOM     32  CG2 UNL     1      32.592 -23.260 -13.565  0.00  0.00    +0.002 C 
BRANCH  31  33
ATOM     33  CG1 UNL     1      32.061 -22.763 -16.005  0.00  0.00    +0.002 C 
ATOM     34  CD1 UNL     1      30.600 -22.861 -15.588  0.00  0.00    +0.000 C 
ENDBRANCH  31  33
ENDBRANCH  19  31
ENDBRANCH   2  19
TORSDOF 10
ENDMDL
MODEL 2
REMARK VINA RESULT:     -10.4      1.108      1.462
REMARK  Name = 23647361
REMARK  10 active torsions:
REMARK  status: ('A' for Active; 'I' for Inactive)
REMARK    1  A    between atoms: N_2  and  CA_19
REMARK    2  A    between atoms: C_3  and  C_6
REMARK    3  A    between atoms: C_7  and  C_10
REMARK    4  A    between atoms: N_9  and  C_12
REMARK    5  A    between atoms: C_12  and  C_13
REMARK    6  A    between atoms: CA_19  and  C_26
REMARK    7  A    between atoms: CA_19  and  CB_31
REMARK    8  A    between atoms: CA_22  and  C_28
REMARK    9  A    between atoms: C_28  and  O_29
REMARK   10  A    between atoms: CB_31  and  CG1_33
REMARK                            x       y       z     vdW  Elec       q    Type
REMARK                         _______ _______ _______ _____ _____    ______ ____
ROOT
ATOM      1  O   UNL     1      32.650 -23.184 -17.542  0.00  0.00    -0.272 OA
ATOM      2  N   UNL     1      34.566 -22.397 -16.476  0.00  0.00    -0.296 N 
ATOM      3  C   ACE A   0      33.731 -22.607 -17.564  0.00  0.00    +0.253 C 
ATOM      4  H   UNL     1      35.413 -21.917 -16.624  0.00  0.00    +0.150 HD
ENDROOT
BRANCH   3   6
ATOM      5  O   UNL     1      33.198 -21.627 -19.712  0.00  0.00    -0.335 OA
ATOM      6  C   UNL     1      34.247 -22.060 -18.852  0.00  0.00    +0.227 C 
ATOM      7  C   UNL     1      34.050 -20.616 -19.157  0.00  0.00    +0.227 C 
BRANCH   7  10
ATOM      8  O   UNL     1      36.114 -19.891 -19.959  0.00  0.00    -0.272 OA
ATOM      9  N   UNL     1      34.224 -19.501 -21.264  0.00  0.00    -0.298 N 
ATOM     10  C   UNL     1      34.907 -19.971 -20.157  0.00  0.00    +0.253 C 
ATOM     11  H   UNL     1      33.249 -19.629 -21.301  0.00  0.00    +0.150 HD
BRANCH   9  12
ATOM     12  C   UNL     1      34.875 -18.830 -22.367  0.00  0.00    +0.116 C 
BRANCH  12  13
ATOM     13  C   UNL     1      34.540 -17.367 -22.410  0.00  0.00    -0.003 C 
ATOM     14  C   UNL     1      34.209 -16.774 -23.624  0.00  0.00    -0.003 C 
ATOM     15  C   UNL     1      34.566 -16.620 -21.239  0.00  0.00    -0.003 C 
ATOM     16  C   UNL     1      33.897 -15.415 -23.664  0.00  0.00    -0.000 C 
ATOM     17  C   UNL     1      34.255 -15.261 -21.280  0.00  0.00    -0.000 C 
ATOM     18  C   UNL     1      33.921 -14.659 -22.493  0.00  0.00    -0.000 C 
ENDBRANCH  12  13
ENDBRANCH   9  12
ENDBRANCH   7  10
ENDBRANCH   3   6
BRANCH   2  19
ATOM     19  CA  UNL     1      34.262 -22.839 -15.146  0.00  0.00    +0.149 C 
BRANCH  19  26
ATOM     20  O   UNL     1      35.253 -24.969 -15.528  0.00  0.00    -0.273 OA
ATOM     21  N   UNL     1      36.067 -23.729 -13.751  0.00  0.00    -0.270 N 
ATOM     22  CA  UNL     1      37.169 -24.622 -13.417  0.00  0.00    +0.175 C 
ATOM     23  CB  UNL     1      38.066 -23.802 -12.497  0.00  0.00    +0.033 C 
ATOM     24  CD  UNL     1      36.081 -22.536 -12.908  0.00  0.00    +0.094 C 
ATOM     25  CG  UNL     1      37.093 -22.842 -11.815  0.00  0.00    +0.024 C 
ATOM     26  C   UNL     1      35.236 -23.948 -14.839  0.00  0.00    +0.244 C 
BRANCH  22  28
ATOM     27  OXT UNL     1      36.328 -25.854 -11.515  0.00  0.00    -0.248 OA
ATOM     28  C   UNL     1      36.581 -25.805 -12.709  0.00  0.00    +0.332 C 
BRANCH  28  29
ATOM     29  O   UNL     1      36.365 -26.824 -13.578  0.00  0.00    -0.479 OA
ATOM     30  H   UNL     1      36.934 -26.940 -14.313  0.00  0.00    +0.295 HD
ENDBRANCH  28  29
ENDBRANCH  22  28
ENDBRANCH  19  26
BRANCH  19  31
ATOM     31  CB  UNL     1      32.805 -23.292 -14.944  0.00  0.00    +0.027 C 
ATOM     32  CG2 UNL     1      32.747 -24.356 -13.841  0.00  0.00    +0.002 C 
BRANCH  31  33
ATOM     33  CG1 UNL     1      31.846 -22.116 -14.649  0.00  0.00    +0.002 C 
ATOM     34  CD1 UNL     1      30.374 -22.491 -14.759  0.00  0.00    +0.000 C 
ENDBRANCH  31  33
ENDBRANCH  19  31
ENDBRANCH   2  19
TORSDOF 10
ENDMDL
MODEL 3
REMARK VINA RESULT:      -9.6      7.359     14.308
REMARK  Name = 23647361
REMARK  10 active torsions:
REMARK  status: ('A' for Active; 'I' for Inactive)
REMARK    1  A    between atoms: N_2  and  CA_19
REMARK    2  A    between atoms: C_3  and  C_6
REMARK    3  A    between atoms: C_7  and  C_10
REMARK    4  A    between atoms: N_9  and  C_12
REMARK    5  A    between atoms: C_12  and  C_13
REMARK    6  A    between atoms: CA_19  and  C_26
REMARK    7  A    between atoms: CA_19  and  CB_31
REMARK    8  A    between atoms: CA_22  and  C_28
REMARK    9  A    between atoms: C_28  and  O_29
REMARK   10  A    between atoms: CB_31  and  CG1_33
REMARK                            x       y       z     vdW  Elec       q    Type
REMARK                         _______ _______ _______ _____ _____    ______ ____
ROOT
ATOM      1  O   UNL     1      32.200 -12.179 -25.025  0.00  0.00    -0.272 OA
ATOM      2  N   UNL     1      32.745 -11.438 -22.884  0.00  0.00    -0.296 N 
ATOM      3  C   ACE A   0      32.847 -12.272 -23.989  0.00  0.00    +0.253 C 
ATOM      4  H   UNL     1      33.324 -11.619 -22.108  0.00  0.00    +0.150 HD
ENDROOT
BRANCH   3   6
ATOM      5  O   UNL     1      34.127 -13.667 -22.479  0.00  0.00    -0.335 OA
ATOM      6  C   UNL     1      33.852 -13.366 -23.844  0.00  0.00    +0.227 C 
ATOM      7  C   UNL     1      33.432 -14.661 -23.243  0.00  0.00    +0.227 C 
BRANCH   7  10
ATOM      8  O   UNL     1      34.278 -16.336 -24.624  0.00  0.00    -0.272 OA
ATOM      9  N   UNL     1      34.883 -16.349 -22.375  0.00  0.00    -0.298 N 
ATOM     10  C   UNL     1      34.235 -15.862 -23.494  0.00  0.00    +0.253 C 
ATOM     11  H   UNL     1      34.765 -15.874 -21.521  0.00  0.00    +0.150 HD
BRANCH   9  12
ATOM     12  C   UNL     1      35.724 -17.525 -22.398  0.00  0.00    +0.116 C 
BRANCH  12  13
ATOM     13  C   UNL     1      35.225 -18.591 -21.466  0.00  0.00    -0.003 C 
ATOM     14  C   UNL     1      36.114 -19.215 -20.597  0.00  0.00    -0.003 C 
ATOM     15  C   UNL     1      33.882 -18.945 -21.480  0.00  0.00    -0.003 C 
ATOM     16  C   UNL     1      35.651 -20.205 -19.730  0.00  0.00    -0.000 C 
ATOM     17  C   UNL     1      33.419 -19.935 -20.614  0.00  0.00    -0.000 C 
ATOM     18  C   UNL     1      34.304 -20.566 -19.740  0.00  0.00    -0.000 C 
ENDBRANCH  12  13
ENDBRANCH   9  12
ENDBRANCH   7  10
ENDBRANCH   3   6
BRANCH   2  19
ATOM     19  CA  UNL     1      31.844 -10.324 -22.813  0.00  0.00    +0.149 C 
BRANCH  19  26
ATOM     20  O   UNL     1      33.894  -9.128 -22.999  0.00  0.00    -0.273 OA
ATOM     21  N   UNL     1      31.951  -7.982 -23.518  0.00  0.00    -0.270 N 
ATOM     22  CA  UNL     1      32.597  -6.769 -24.004  0.00  0.00    +0.175 C 
ATOM     23  CB  UNL     1      31.500  -6.016 -24.745  0.00  0.00    +0.033 C 
ATOM     24  CD  UNL     1      30.500  -7.903 -23.673  0.00  0.00    +0.094 C 
ATOM     25  CG  UNL     1      30.224  -6.450 -24.028  0.00  0.00    +0.024 C 
ATOM     26  C   UNL     1      32.668  -9.099 -23.119  0.00  0.00    +0.244 C 
BRANCH  22  28
ATOM     27  OXT UNL     1      32.392  -5.260 -22.127  0.00  0.00    -0.248 OA
ATOM     28  C   UNL     1      33.078  -6.012 -22.802  0.00  0.00    +0.332 C 
BRANCH  28  29
ATOM     29  O   UNL     1      34.386  -6.274 -22.563  0.00  0.00    -0.479 OA
ATOM     30  H   UNL     1      35.047  -5.704 -22.902  0.00  0.00    +0.295 HD
ENDBRANCH  28  29
ENDBRANCH  22  28
ENDBRANCH  19  26
BRANCH  19  31
ATOM     31  CB  UNL     1      31.104 -10.190 -21.471  0.00  0.00    +0.027 C 
ATOM     32  CG2 UNL     1      31.246 -11.493 -20.674  0.00  0.00    +0.002 C 
BRANCH  31  33
ATOM     33  CG1 UNL     1      31.573  -8.968 -20.647  0.00  0.00    +0.002 C 
ATOM     34  CD1 UNL     1      31.242  -9.073 -19.165  0.00  0.00    +0.000 C 
ENDBRANCH  31  33
ENDBRANCH  19  31
ENDBRANCH   2  19
TORSDOF 10
ENDMDL
MODEL 4
REMARK VINA RESULT:      -9.3      9.266     15.557
REMARK  Name = 23647361
REMARK  10 active torsions:
REMARK  status: ('A' for Active; 'I' for Inactive)
REMARK    1  A    between atoms: N_2  and  CA_19
REMARK    2  A    between atoms: C_3  and  C_6
REMARK    3  A    between atoms: C_7  and  C_10
REMARK    4  A    between atoms: N_9  and  C_12
REMARK    5  A    between atoms: C_12  and  C_13
REMARK    6  A    between atoms: CA_19  and  C_26
REMARK    7  A    between atoms: CA_19  and  CB_31
REMARK    8  A    between atoms: CA_22  and  C_28
REMARK    9  A    between atoms: C_28  and  O_29
REMARK   10  A    between atoms: CB_31  and  CG1_33
REMARK                            x       y       z     vdW  Elec       q    Type
REMARK                         _______ _______ _______ _____ _____    ______ ____
ROOT
ATOM      1  O   UNL     1      30.427 -10.667 -21.752  0.00  0.00    -0.272 OA
ATOM      2  N   UNL     1      31.736  -8.866 -22.437  0.00  0.00    -0.296 N 
ATOM      3  C   ACE A   0      31.308 -10.186 -22.453  0.00  0.00    +0.253 C 
ATOM      4  H   UNL     1      32.457  -8.602 -23.053  0.00  0.00    +0.150 HD
ENDROOT
BRANCH   3   6
ATOM      5  O   UNL     1      33.436 -11.030 -23.243  0.00  0.00    -0.335 OA
ATOM      6  C   UNL     1      32.025 -11.054 -23.434  0.00  0.00    +0.227 C 
ATOM      7  C   UNL     1      32.753 -12.255 -22.941  0.00  0.00    +0.227 C 
BRANCH   7  10
ATOM      8  O   UNL     1      32.694 -13.256 -25.044  0.00  0.00    -0.272 OA
ATOM      9  N   UNL     1      33.784 -14.377 -23.318  0.00  0.00    -0.298 N 
ATOM     10  C   UNL     1      33.068 -13.337 -23.879  0.00  0.00    +0.253 C 
ATOM     11  H   UNL     1      34.024 -14.320 -22.365  0.00  0.00    +0.150 HD
BRANCH   9  12
ATOM     12  C   UNL     1      34.196 -15.546 -24.063  0.00  0.00    +0.116 C 
BRANCH  12  13
ATOM     13  C   UNL     1      34.387 -16.740 -23.175  0.00  0.00    -0.003 C 
ATOM     14  C   UNL     1      34.005 -18.000 -23.625  0.00  0.00    -0.003 C 
ATOM     15  C   UNL     1      34.943 -16.577 -21.913  0.00  0.00    -0.003 C 
ATOM     16  C   UNL     1      34.183 -19.110 -22.800  0.00  0.00    -0.000 C 
ATOM     17  C   UNL     1      35.121 -17.687 -21.087  0.00  0.00    -0.000 C 
ATOM     18  C   UNL     1      34.741 -18.953 -21.531  0.00  0.00    -0.000 C 
ENDBRANCH  12  13
ENDBRANCH   9  12
ENDBRANCH   7  10
ENDBRANCH   3   6
BRANCH   2  19
ATOM     19  CA  UNL     1      31.181  -7.864 -21.573  0.00  0.00    +0.149 C 
BRANCH  19  26
ATOM     20  O   UNL     1      30.165  -5.842 -22.309  0.00  0.00    -0.273 OA
ATOM     21  N   UNL     1      32.245  -6.357 -23.183  0.00  0.00    -0.270 N 
ATOM     22  CA  UNL     1      32.439  -5.104 -23.901  0.00  0.00    +0.175 C 
ATOM     23  CB  UNL     1      33.922  -5.084 -24.251  0.00  0.00    +0.033 C 
ATOM     24  CD  UNL     1      33.420  -7.217 -23.298  0.00  0.00    +0.094 C 
ATOM     25  CG  UNL     1      34.279  -6.564 -24.371  0.00  0.00    +0.024 C 
ATOM     26  C   UNL     1      31.140  -6.591 -22.380  0.00  0.00    +0.244 C 
BRANCH  22  28
ATOM     27  OXT UNL     1      31.194  -6.183 -25.670  0.00  0.00    -0.248 OA
ATOM     28  C   UNL     1      31.578  -5.158 -25.127  0.00  0.00    +0.332 C 
BRANCH  28  29
ATOM     29  O   UNL     1      31.281  -3.908 -25.560  0.00  0.00    -0.479 OA
ATOM     30  H   UNL     1      31.886  -3.446 -26.105  0.00  0.00    +0.295 HD
ENDBRANCH  28  29
ENDBRANCH  22  28
ENDBRANCH  19  26
BRANCH  19  31
ATOM     31  CB  UNL     1      31.944  -7.672 -20.251  0.00  0.00    +0.027 C 
ATOM     32  CG2 UNL     1      32.229  -6.181 -20.035  0.00  0.00    +0.002 C 
BRANCH  31  33
ATOM     33  CG1 UNL     1      31.209  -8.290 -19.039  0.00  0.00    +0.002 C 
ATOM     34  CD1 UNL     1      31.569  -9.748 -18.788  0.00  0.00    +0.000 C 
ENDBRANCH  31  33
ENDBRANCH  19  31
ENDBRANCH   2  19
TORSDOF 10
ENDMDL
MODEL 5
REMARK VINA RESULT:      -9.2      1.661      2.369
REMARK  Name = 23647361
REMARK  10 active torsions:
REMARK  status: ('A' for Active; 'I' for Inactive)
REMARK    1  A    between atoms: N_2  and  CA_19
REMARK    2  A    between atoms: C_3  and  C_6
REMARK    3  A    between atoms: C_7  and  C_10
REMARK    4  A    between atoms: N_9  and  C_12
REMARK    5  A    between atoms: C_12  and  C_13
REMARK    6  A    between atoms: CA_19  and  C_26
REMARK    7  A    between atoms: CA_19  and  CB_31
REMARK    8  A    between atoms: CA_22  and  C_28
REMARK    9  A    between atoms: C_28  and  O_29
REMARK   10  A    between atoms: CB_31  and  CG1_33
REMARK                            x       y       z     vdW  Elec       q    Type
REMARK                         _______ _______ _______ _____ _____    ______ ____
ROOT
ATOM      1  O   UNL     1      36.688 -20.540 -16.017  0.00  0.00    -0.272 OA
ATOM      2  N   UNL     1      35.350 -22.445 -15.947  0.00  0.00    -0.296 N 
ATOM      3  C   ACE A   0      36.067 -21.437 -16.575  0.00  0.00    +0.253 C 
ATOM      4  H   UNL     1      34.891 -23.110 -16.510  0.00  0.00    +0.150 HD
ENDROOT
BRANCH   3   6
ATOM      5  O   UNL     1      34.892 -22.177 -18.558  0.00  0.00    -0.335 OA
ATOM      6  C   UNL     1      36.045 -21.500 -18.066  0.00  0.00    +0.227 C 
ATOM      7  C   UNL     1      34.981 -20.768 -18.806  0.00  0.00    +0.227 C 
BRANCH   7  10
ATOM      8  O   UNL     1      35.246 -21.346 -21.047  0.00  0.00    -0.272 OA
ATOM      9  N   UNL     1      35.299 -19.089 -20.476  0.00  0.00    -0.298 N 
ATOM     10  C   UNL     1      35.187 -20.443 -20.221  0.00  0.00    +0.253 C 
ATOM     11  H   UNL     1      35.234 -18.463 -19.720  0.00  0.00    +0.150 HD
BRANCH   9  12
ATOM     12  C   UNL     1      35.509 -18.550 -21.801  0.00  0.00    +0.116 C 
BRANCH  12  13
ATOM     13  C   UNL     1      34.924 -17.175 -21.948  0.00  0.00    -0.003 C 
ATOM     14  C   UNL     1      34.739 -16.639 -23.218  0.00  0.00    -0.003 C 
ATOM     15  C   UNL     1      34.574 -16.452 -20.815  0.00  0.00    -0.003 C 
ATOM     16  C   UNL     1      34.195 -15.362 -23.354  0.00  0.00    -0.000 C 
ATOM     17  C   UNL     1      34.030 -15.175 -20.951  0.00  0.00    -0.000 C 
ATOM     18  C   UNL     1      33.841 -14.630 -22.221  0.00  0.00    -0.000 C 
ENDBRANCH  12  13
ENDBRANCH   9  12
ENDBRANCH   7  10
ENDBRANCH   3   6
BRANCH   2  19
ATOM     19  CA  UNL     1      35.242 -22.572 -14.523  0.00  0.00    +0.149 C 
BRANCH  19  26
ATOM     20  O   UNL     1      37.379 -22.429 -13.486  0.00  0.00    -0.273 OA
ATOM     21  N   UNL     1      36.745 -24.494 -14.315  0.00  0.00    -0.270 N 
ATOM     22  CA  UNL     1      37.881 -25.241 -13.790  0.00  0.00    +0.175 C 
ATOM     23  CB  UNL     1      37.471 -26.704 -13.910  0.00  0.00    +0.033 C 
ATOM     24  CD  UNL     1      35.795 -25.381 -14.984  0.00  0.00    +0.094 C 
ATOM     25  CG  UNL     1      36.524 -26.711 -15.107  0.00  0.00    +0.024 C 
ATOM     26  C   UNL     1      36.554 -23.147 -14.052  0.00  0.00    +0.244 C 
BRANCH  22  28
ATOM     27  OXT UNL     1      39.294 -25.435 -15.741  0.00  0.00    -0.248 OA
ATOM     28  C   UNL     1      39.060 -24.920 -14.658  0.00  0.00    +0.332 C 
BRANCH  28  29
ATOM     29  O   UNL     1      39.842 -23.978 -14.076  0.00  0.00    -0.479 OA
ATOM     30  H   UNL     1      40.072 -24.055 -13.171  0.00  0.00    +0.295 HD
ENDBRANCH  28  29
ENDBRANCH  22  28
ENDBRANCH  19  26
BRANCH  19  31
ATOM     31  CB  UNL     1      34.049 -23.422 -14.049  0.00  0.00    +0.027 C 
ATOM     32  CG2 UNL     1      33.928 -23.329 -12.522  0.00  0.00    +0.002 C 
BRANCH  31  33
ATOM     33  CG1 UNL     1      32.724 -23.038 -14.747  0.00  0.00    +0.002 C 
ATOM     34  CD1 UNL     1      31.641 -22.577 -13.781  0.00  0.00    +0.000 C 
ENDBRANCH  31  33
ENDBRANCH  19  31
ENDBRANCH   2  19
TORSDOF 10
ENDMDL
MODEL 6
REMARK VINA RESULT:      -9.2      1.366      1.869
REMARK  Name = 23647361
REMARK  10 active torsions:
REMARK  status: ('A' for Active; 'I' for Inactive)
REMARK    1  A    between atoms: N_2  and  CA_19
REMARK    2  A    between atoms: C_3  and  C_6
REMARK    3  A    between atoms: C_7  and  C_10
REMARK    4  A    between atoms: N_9  and  C_12
REMARK    5  A    between atoms: C_12  and  C_13
REMARK    6  A    between atoms: CA_19  and  C_26
REMARK    7  A    between atoms: CA_19  and  CB_31
REMARK    8  A    between atoms: CA_22  and  C_28
REMARK    9  A    between atoms: C_28  and  O_29
REMARK   10  A    between atoms: CB_31  and  CG1_33
REMARK                            x       y       z     vdW  Elec       q    Type
REMARK                         _______ _______ _______ _____ _____    ______ ____
ROOT
ATOM      1  O   UNL     1      33.507 -23.471 -17.533  0.00  0.00    -0.272 OA
ATOM      2  N   UNL     1      34.573 -22.136 -15.949  0.00  0.00    -0.296 N 
ATOM      3  C   ACE A   0      34.189 -22.499 -17.233  0.00  0.00    +0.253 C 
ATOM      4  H   UNL     1      35.125 -21.328 -15.839  0.00  0.00    +0.150 HD
ENDROOT
BRANCH   3   6
ATOM      5  O   UNL     1      34.616 -22.185 -19.595  0.00  0.00    -0.335 OA
ATOM      6  C   UNL     1      34.682 -21.585 -18.305  0.00  0.00    +0.227 C 
ATOM      7  C   UNL     1      33.725 -21.092 -19.333  0.00  0.00    +0.227 C 
BRANCH   7  10
ATOM      8  O   UNL     1      33.157 -19.122 -20.439  0.00  0.00    -0.272 OA
ATOM      9  N   UNL     1      35.402 -19.733 -20.358  0.00  0.00    -0.298 N 
ATOM     10  C   UNL     1      34.054 -19.884 -20.096  0.00  0.00    +0.253 C 
ATOM     11  H   UNL     1      36.024 -20.421 -20.025  0.00  0.00    +0.150 HD
BRANCH   9  12
ATOM     12  C   UNL     1      35.944 -18.616 -21.099  0.00  0.00    +0.116 C 
BRANCH  12  13
ATOM     13  C   UNL     1      35.082 -18.248 -22.271  0.00  0.00    -0.003 C 
ATOM     14  C   UNL     1      34.567 -19.250 -23.087  0.00  0.00    -0.003 C 
ATOM     15  C   UNL     1      34.808 -16.911 -22.531  0.00  0.00    -0.003 C 
ATOM     16  C   UNL     1      33.766 -18.909 -24.176  0.00  0.00    -0.000 C 
ATOM     17  C   UNL     1      34.007 -16.569 -23.621  0.00  0.00    -0.000 C 
ATOM     18  C   UNL     1      33.487 -17.568 -24.443  0.00  0.00    -0.000 C 
ENDBRANCH  12  13
ENDBRANCH   9  12
ENDBRANCH   7  10
ENDBRANCH   3   6
BRANCH   2  19
ATOM     19  CA  UNL     1      34.207 -22.873 -14.774  0.00  0.00    +0.149 C 
BRANCH  19  26
ATOM     20  O   UNL     1      35.301 -24.885 -15.422  0.00  0.00    -0.273 OA
ATOM     21  N   UNL     1      36.089 -23.817 -13.526  0.00  0.00    -0.270 N 
ATOM     22  CA  UNL     1      37.245 -24.680 -13.317  0.00  0.00    +0.175 C 
ATOM     23  CB  UNL     1      38.118 -23.924 -12.323  0.00  0.00    +0.033 C 
ATOM     24  CD  UNL     1      36.059 -22.732 -12.549  0.00  0.00    +0.094 C 
ATOM     25  CG  UNL     1      37.112 -23.106 -11.516  0.00  0.00    +0.024 C 
ATOM     26  C   UNL     1      35.246 -23.954 -14.617  0.00  0.00    +0.244 C 
BRANCH  22  28
ATOM     27  OXT UNL     1      36.738 -27.043 -13.327  0.00  0.00    -0.248 OA
ATOM     28  C   UNL     1      36.738 -25.969 -12.744  0.00  0.00    +0.332 C 
BRANCH  28  29
ATOM     29  O   UNL     1      36.275 -25.784 -11.484  0.00  0.00    -0.479 OA
ATOM     30  H   UNL     1      35.393 -26.017 -11.271  0.00  0.00    +0.295 HD
ENDBRANCH  28  29
ENDBRANCH  22  28
ENDBRANCH  19  26
BRANCH  19  31
ATOM     31  CB  UNL     1      32.783 -23.456 -14.808  0.00  0.00    +0.027 C 
ATOM     32  CG2 UNL     1      32.584 -24.392 -13.609  0.00  0.00    +0.002 C 
BRANCH  31  33
ATOM     33  CG1 UNL     1      31.689 -22.365 -14.862  0.00  0.00    +0.002 C 
ATOM     34  CD1 UNL     1      30.594 -22.654 -15.880  0.00  0.00    +0.000 C 
ENDBRANCH  31  33
ENDBRANCH  19  31
ENDBRANCH   2  19
TORSDOF 10
ENDMDL
MODEL 7
REMARK VINA RESULT:      -9.2      1.964      2.695
REMARK  Name = 23647361
REMARK  10 active torsions:
REMARK  status: ('A' for Active; 'I' for Inactive)
REMARK    1  A    between atoms: N_2  and  CA_19
REMARK    2  A    between atoms: C_3  and  C_6
REMARK    3  A    between atoms: C_7  and  C_10
REMARK    4  A    between atoms: N_9  and  C_12
REMARK    5  A    between atoms: C_12  and  C_13
REMARK    6  A    between atoms: CA_19  and  C_26
REMARK    7  A    between atoms: CA_19  and  CB_31
REMARK    8  A    between atoms: CA_22  and  C_28
REMARK    9  A    between atoms: C_28  and  O_29
REMARK   10  A    between atoms: CB_31  and  CG1_33
REMARK                            x       y       z     vdW  Elec       q    Type
REMARK                         _______ _______ _______ _____ _____    ______ ____
ROOT
ATOM      1  O   UNL     1      31.251 -22.065 -17.245  0.00  0.00    -0.272 OA
ATOM      2  N   UNL     1      32.937 -22.770 -15.801  0.00  0.00    -0.296 N 
ATOM      3  C   ACE A   0      32.425 -22.322 -17.011  0.00  0.00    +0.253 C 
ATOM      4  H   UNL     1      33.905 -22.942 -15.740  0.00  0.00    +0.150 HD
ENDROOT
BRANCH   3   6
ATOM      5  O   UNL     1      32.906 -22.417 -19.382  0.00  0.00    -0.335 OA
ATOM      6  C   UNL     1      33.444 -22.158 -18.089  0.00  0.00    +0.227 C 
ATOM      7  C   UNL     1      33.276 -21.064 -19.085  0.00  0.00    +0.227 C 
BRANCH   7  10
ATOM      8  O   UNL     1      35.452 -21.294 -19.883  0.00  0.00    -0.272 OA
ATOM      9  N   UNL     1      34.259 -19.381 -20.467  0.00  0.00    -0.298 N 
ATOM     10  C   UNL     1      34.440 -20.603 -19.847  0.00  0.00    +0.253 C 
ATOM     11  H   UNL     1      33.393 -18.925 -20.359  0.00  0.00    +0.150 HD
BRANCH   9  12
ATOM     12  C   UNL     1      35.280 -18.741 -21.266  0.00  0.00    +0.116 C 
BRANCH  12  13
ATOM     13  C   UNL     1      34.811 -17.435 -21.836  0.00  0.00    -0.003 C 
ATOM     14  C   UNL     1      34.590 -16.354 -20.989  0.00  0.00    -0.003 C 
ATOM     15  C   UNL     1      34.600 -17.317 -23.205  0.00  0.00    -0.003 C 
ATOM     16  C   UNL     1      34.155 -15.140 -21.519  0.00  0.00    -0.000 C 
ATOM     17  C   UNL     1      34.164 -16.103 -23.735  0.00  0.00    -0.000 C 
ATOM     18  C   UNL     1      33.941 -15.015 -22.892  0.00  0.00    -0.000 C 
ENDBRANCH  12  13
ENDBRANCH   9  12
ENDBRANCH   7  10
ENDBRANCH   3   6
BRANCH   2  19
ATOM     19  CA  UNL     1      32.134 -22.993 -14.635  0.00  0.00    +0.149 C 
BRANCH  19  26
ATOM     20  O   UNL     1      32.817 -22.651 -12.381  0.00  0.00    -0.273 OA
ATOM     21  N   UNL     1      34.278 -23.794 -13.765  0.00  0.00    -0.270 N 
ATOM     22  CA  UNL     1      35.242 -24.149 -12.732  0.00  0.00    +0.175 C 
ATOM     23  CB  UNL     1      36.109 -25.230 -13.367  0.00  0.00    +0.033 C 
ATOM     24  CD  UNL     1      34.650 -24.372 -15.054  0.00  0.00    +0.094 C 
ATOM     25  CG  UNL     1      36.066 -24.890 -14.855  0.00  0.00    +0.024 C 
ATOM     26  C   UNL     1      33.096 -23.127 -13.482  0.00  0.00    +0.244 C 
BRANCH  22  28
ATOM     27  OXT UNL     1      36.908 -22.444 -13.130  0.00  0.00    -0.248 OA
ATOM     28  C   UNL     1      36.032 -22.914 -12.419  0.00  0.00    +0.332 C 
BRANCH  28  29
ATOM     29  O   UNL     1      35.644 -22.385 -11.233  0.00  0.00    -0.479 OA
ATOM     30  H   UNL     1      36.193 -22.475 -10.479  0.00  0.00    +0.295 HD
ENDBRANCH  28  29
ENDBRANCH  22  28
ENDBRANCH  19  26
BRANCH  19  31
ATOM     31  CB  UNL     1      31.195 -24.209 -14.733  0.00  0.00    +0.027 C 
ATOM     32  CG2 UNL     1      31.156 -24.937 -13.384  0.00  0.00    +0.002 C 
BRANCH  31  33
ATOM     33  CG1 UNL     1      29.775 -23.832 -15.214  0.00  0.00    +0.002 C 
ATOM     34  CD1 UNL     1      28.673 -24.650 -14.554  0.00  0.00    +0.000 C 
ENDBRANCH  31  33
ENDBRANCH  19  31
ENDBRANCH   2  19
TORSDOF 10
ENDMDL
MODEL 8
REMARK VINA RESULT:      -9.2      8.945     15.608
REMARK  Name = 23647361
REMARK  10 active torsions:
REMARK  status: ('A' for Active; 'I' for Inactive)
REMARK    1  A    between atoms: N_2  and  CA_19
REMARK    2  A    between atoms: C_3  and  C_6
REMARK    3  A    between atoms: C_7  and  C_10
REMARK    4  A    between atoms: N_9  and  C_12
REMARK    5  A    between atoms: C_12  and  C_13
REMARK    6  A    between atoms: CA_19  and  C_26
REMARK    7  A    between atoms: CA_19  and  CB_31
REMARK    8  A    between atoms: CA_22  and  C_28
REMARK    9  A    between atoms: C_28  and  O_29
REMARK   10  A    between atoms: CB_31  and  CG1_33
REMARK                            x       y       z     vdW  Elec       q    Type
REMARK                         _______ _______ _______ _____ _____    ______ ____
ROOT
ATOM      1  O   UNL     1      30.671 -10.346 -22.486  0.00  0.00    -0.272 OA
ATOM      2  N   UNL     1      32.630  -9.115 -22.213  0.00  0.00    -0.296 N 
ATOM      3  C   ACE A   0      31.892 -10.251 -22.515  0.00  0.00    +0.253 C 
ATOM      4  H   UNL     1      33.611  -9.168 -22.274  0.00  0.00    +0.150 HD
ENDROOT
BRANCH   3   6
ATOM      5  O   UNL     1      32.525 -12.534 -22.016  0.00  0.00    -0.335 OA
ATOM      6  C   UNL     1      32.713 -11.435 -22.903  0.00  0.00    +0.227 C 
ATOM      7  C   UNL     1      32.027 -12.677 -23.353  0.00  0.00    +0.227 C 
BRANCH   7  10
ATOM      8  O   UNL     1      32.621 -13.699 -25.361  0.00  0.00    -0.272 OA
ATOM      9  N   UNL     1      33.601 -14.474 -23.395  0.00  0.00    -0.298 N 
ATOM     10  C   UNL     1      32.772 -13.661 -24.145  0.00  0.00    +0.253 C 
ATOM     11  H   UNL     1      33.631 -14.340 -22.420  0.00  0.00    +0.150 HD
BRANCH   9  12
ATOM     12  C   UNL     1      34.422 -15.514 -23.974  0.00  0.00    +0.116 C 
BRANCH  12  13
ATOM     13  C   UNL     1      34.444 -16.751 -23.124  0.00  0.00    -0.003 C 
ATOM     14  C   UNL     1      34.944 -16.686 -21.828  0.00  0.00    -0.003 C 
ATOM     15  C   UNL     1      33.967 -17.949 -23.641  0.00  0.00    -0.003 C 
ATOM     16  C   UNL     1      34.964 -17.836 -21.039  0.00  0.00    -0.000 C 
ATOM     17  C   UNL     1      33.987 -19.099 -22.852  0.00  0.00    -0.000 C 
ATOM     18  C   UNL     1      34.487 -19.042 -21.551  0.00  0.00    -0.000 C 
ENDBRANCH  12  13
ENDBRANCH   9  12
ENDBRANCH   7  10
ENDBRANCH   3   6
BRANCH   2  19
ATOM     19  CA  UNL     1      32.040  -7.868 -21.820  0.00  0.00    +0.149 C 
BRANCH  19  26
ATOM     20  O   UNL     1      33.770  -6.244 -22.012  0.00  0.00    -0.273 OA
ATOM     21  N   UNL     1      32.341  -6.485 -23.817  0.00  0.00    -0.270 N 
ATOM     22  CA  UNL     1      33.058  -5.590 -24.717  0.00  0.00    +0.175 C 
ATOM     23  CB  UNL     1      32.486  -5.890 -26.098  0.00  0.00    +0.033 C 
ATOM     24  CD  UNL     1      31.205  -7.110 -24.491  0.00  0.00    +0.094 C 
ATOM     25  CG  UNL     1      31.061  -6.349 -25.800  0.00  0.00    +0.024 C 
ATOM     26  C   UNL     1      32.806  -6.794 -22.549  0.00  0.00    +0.244 C 
BRANCH  22  28
ATOM     27  OXT UNL     1      32.026  -3.887 -23.348  0.00  0.00    -0.248 OA
ATOM     28  C   UNL     1      32.754  -4.188 -24.282  0.00  0.00    +0.332 C 
BRANCH  28  29
ATOM     29  O   UNL     1      33.398  -3.292 -25.069  0.00  0.00    -0.479 OA
ATOM     30  H   UNL     1      33.106  -2.403 -25.101  0.00  0.00    +0.295 HD
ENDBRANCH  28  29
ENDBRANCH  22  28
ENDBRANCH  19  26
BRANCH  19  31
ATOM     31  CB  UNL     1      32.026  -7.623 -20.300  0.00  0.00    +0.027 C 
ATOM     32  CG2 UNL     1      31.753  -6.140 -20.023  0.00  0.00    +0.002 C 
BRANCH  31  33
ATOM     33  CG1 UNL     1      31.023  -8.533 -19.555  0.00  0.00    +0.002 C 
ATOM     34  CD1 UNL     1      31.688  -9.668 -18.788  0.00  0.00    +0.000 C 
ENDBRANCH  31  33
ENDBRANCH  19  31
ENDBRANCH   2  19
TORSDOF 10
ENDMDL
MODEL 9
REMARK VINA RESULT:      -9.0      2.728      5.080
REMARK  Name = 23647361
REMARK  10 active torsions:
REMARK  status: ('A' for Active; 'I' for Inactive)
REMARK    1  A    between atoms: N_2  and  CA_19
REMARK    2  A    between atoms: C_3  and  C_6
REMARK    3  A    between atoms: C_7  and  C_10
REMARK    4  A    between atoms: N_9  and  C_12
REMARK    5  A    between atoms: C_12  and  C_13
REMARK    6  A    between atoms: CA_19  and  C_26
REMARK    7  A    between atoms: CA_19  and  CB_31
REMARK    8  A    between atoms: CA_22  and  C_28
REMARK    9  A    between atoms: C_28  and  O_29
REMARK   10  A    between atoms: CB_31  and  CG1_33
REMARK                            x       y       z     vdW  Elec       q    Type
REMARK                         _______ _______ _______ _____ _____    ______ ____
ROOT
ATOM      1  O   UNL     1      35.028 -21.928 -16.254  0.00  0.00    -0.272 OA
ATOM      2  N   UNL     1      33.155 -22.642 -17.441  0.00  0.00    -0.296 N 
ATOM      3  C   ACE A   0      34.415 -22.078 -17.304  0.00  0.00    +0.253 C 
ATOM      4  H   UNL     1      32.768 -22.705 -18.345  0.00  0.00    +0.150 HD
ENDROOT
BRANCH   3   6
ATOM      5  O   UNL     1      34.220 -21.942 -19.713  0.00  0.00    -0.335 OA
ATOM      6  C   UNL     1      35.033 -21.629 -18.587  0.00  0.00    +0.227 C 
ATOM      7  C   UNL     1      34.367 -20.556 -19.375  0.00  0.00    +0.227 C 
BRANCH   7  10
ATOM      8  O   UNL     1      36.326 -19.550 -20.134  0.00  0.00    -0.272 OA
ATOM      9  N   UNL     1      34.433 -19.439 -21.486  0.00  0.00    -0.298 N 
ATOM     10  C   UNL     1      35.148 -19.801 -20.360  0.00  0.00    +0.253 C 
ATOM     11  H   UNL     1      33.487 -19.704 -21.546  0.00  0.00    +0.150 HD
BRANCH   9  12
ATOM     12  C   UNL     1      35.008 -18.688 -22.580  0.00  0.00    +0.116 C 
BRANCH  12  13
ATOM     13  C   UNL     1      34.616 -17.240 -22.535  0.00  0.00    -0.003 C 
ATOM     14  C   UNL     1      34.580 -16.575 -21.314  0.00  0.00    -0.003 C 
ATOM     15  C   UNL     1      34.291 -16.578 -23.712  0.00  0.00    -0.003 C 
ATOM     16  C   UNL     1      34.217 -15.230 -21.272  0.00  0.00    -0.000 C 
ATOM     17  C   UNL     1      33.927 -15.232 -23.671  0.00  0.00    -0.000 C 
ATOM     18  C   UNL     1      33.889 -14.558 -22.450  0.00  0.00    -0.000 C 
ENDBRANCH  12  13
ENDBRANCH   9  12
ENDBRANCH   7  10
ENDBRANCH   3   6
BRANCH   2  19
ATOM     19  CA  UNL     1      32.385 -23.140 -16.338  0.00  0.00    +0.149 C 
BRANCH  19  26
ATOM     20  O   UNL     1      30.731 -21.737 -17.318  0.00  0.00    -0.273 OA
ATOM     21  N   UNL     1      29.989 -23.436 -15.933  0.00  0.00    -0.270 N 
ATOM     22  CA  UNL     1      28.566 -23.248 -16.187  0.00  0.00    +0.175 C 
ATOM     23  CB  UNL     1      27.907 -24.514 -15.652  0.00  0.00    +0.033 C 
ATOM     24  CD  UNL     1      30.221 -24.582 -15.057  0.00  0.00    +0.094 C 
ATOM     25  CG  UNL     1      28.844 -24.956 -14.530  0.00  0.00    +0.024 C 
ATOM     26  C   UNL     1      30.965 -22.699 -16.586  0.00  0.00    +0.244 C 
BRANCH  22  28
ATOM     27  OXT UNL     1      28.557 -21.712 -14.320  0.00  0.00    -0.248 OA
ATOM     28  C   UNL     1      28.137 -22.032 -15.422  0.00  0.00    +0.332 C 
BRANCH  28  29
ATOM     29  O   UNL     1      27.212 -21.329 -16.121  0.00  0.00    -0.479 OA
ATOM     30  H   UNL     1      27.231 -20.393 -16.111  0.00  0.00    +0.295 HD
ENDBRANCH  28  29
ENDBRANCH  22  28
ENDBRANCH  19  26
BRANCH  19  31
ATOM     31  CB  UNL     1      32.887 -22.685 -14.956  0.00  0.00    +0.027 C 
ATOM     32  CG2 UNL     1      31.811 -21.831 -14.275  0.00  0.00    +0.002 C 
BRANCH  31  33
ATOM     33  CG1 UNL     1      33.326 -23.865 -14.059  0.00  0.00    +0.002 C 
ATOM     34  CD1 UNL     1      34.609 -24.538 -14.527  0.00  0.00    +0.000 C 
ENDBRANCH  31  33
ENDBRANCH  19  31
ENDBRANCH   2  19
TORSDOF 10
ENDMDL
