MODEL 1
REMARK VINA RESULT:     -12.1      0.000      0.000
REMARK  Name = 56832738
REMARK  10 active torsions:
REMARK  status: ('A' for Active; 'I' for Inactive)
REMARK    1  A    between atoms: C_2  and  C_11
REMARK    2  A    between atoms: C_5  and  C_25
REMARK    3  A    between atoms: C_10  and  C_22
REMARK    4  A    between atoms: C_12  and  O_16
REMARK    5  A    between atoms: C_13  and  O_18
REMARK    6  A    between atoms: C_14  and  O_20
REMARK    7  A    between atoms: C_22  and  O_23
REMARK    8  A    between atoms: C_25  and  C_27
REMARK    9  A    between atoms: C_32  and  O_33
REMARK   10  A    between atoms: O_33  and  C_34
REMARK                            x       y       z     vdW  Elec       q    Type
REMARK                         _______ _______ _______ _____ _____    ______ ____
ROOT
ATOM      1 CL   UNL     1      30.405 -22.244 -16.852  0.00  0.00    -0.083 Cl
ATOM      2  C   UNL     1      34.102 -23.287 -14.480  0.00  0.00    +0.031 C 
ATOM      3  C   UNL     1      34.112 -23.433 -15.867  0.00  0.00    -0.003 C 
ATOM      4  C   UNL     1      32.957 -22.819 -13.836  0.00  0.00    +0.001 C 
ATOM      5  C   UNL     1      32.975 -23.114 -16.610  0.00  0.00    -0.007 C 
ATOM      6  C   UNL     1      31.820 -22.500 -14.579  0.00  0.00    +0.011 C 
ATOM      7  C   UNL     1      31.829 -22.646 -15.966  0.00  0.00    +0.054 C 
ENDROOT
BRANCH   2  11
ATOM      8  O   UNL     1      35.007 -24.071 -12.340  0.00  0.00    -0.326 OA
ATOM      9  O   UNL     1      36.177 -22.465 -13.542  0.00  0.00    -0.326 OA
ATOM     10  C   UNL     1      36.210 -23.790 -11.613  0.00  0.00    +0.176 C 
ATOM     11  C   UNL     1      35.337 -23.634 -13.673  0.00  0.00    +0.235 C 
ATOM     12  C   UNL     1      37.252 -24.875 -11.992  0.00  0.00    +0.169 C 
ATOM     13  C   UNL     1      36.184 -24.756 -14.317  0.00  0.00    +0.196 C 
ATOM     14  C   UNL     1      37.475 -25.010 -13.514  0.00  0.00    +0.172 C 
ATOM     15  C   UNL     1      36.541 -22.407 -12.156  0.00  0.00    +0.177 C 
BRANCH  12  16
ATOM     16  O   UNL     1      36.785 -26.134 -11.498  0.00  0.00    -0.379 OA
ATOM     17  H   UNL     1      37.282 -26.852 -11.921  0.00  0.00    +0.211 HD
ENDBRANCH  12  16
BRANCH  13  18
ATOM     18  O   UNL     1      35.426 -25.964 -14.364  0.00  0.00    -0.377 OA
ATOM     19  H   UNL     1      36.019 -26.722 -14.246  0.00  0.00    +0.211 HD
ENDBRANCH  13  18
BRANCH  14  20
ATOM     20  O   UNL     1      38.458 -24.060 -13.930  0.00  0.00    -0.379 OA
ATOM     21  H   UNL     1      39.261 -24.527 -14.208  0.00  0.00    +0.211 HD
ENDBRANCH  14  20
BRANCH  10  22
ATOM     22  C   UNL     1      35.910 -23.766 -10.120  0.00  0.00    +0.169 C 
BRANCH  22  23
ATOM     23  O   UNL     1      34.910 -24.732  -9.846  0.00  0.00    -0.379 OA
ATOM     24  H   UNL     1      34.090 -24.284  -9.585  0.00  0.00    +0.211 HD
ENDBRANCH  22  23
ENDBRANCH  10  22
ENDBRANCH   2  11
BRANCH   5  25
ATOM     25  C   UNL     1      33.025 -23.286 -18.094  0.00  0.00    +0.054 C 
BRANCH  25  27
ATOM     26  F   UNL     1      36.445 -20.258 -19.825  0.00  0.00    -0.201 F 
ATOM     27  C   UNL     1      33.428 -22.033 -18.842  0.00  0.00    -0.015 C 
ATOM     28  C   UNL     1      34.777 -21.714 -18.994  0.00  0.00    +0.029 C 
ATOM     29  C   UNL     1      32.449 -21.196 -19.378  0.00  0.00    -0.001 C 
ATOM     30  C   UNL     1      35.147 -20.559 -19.683  0.00  0.00    +0.174 C 
ATOM     31  C   UNL     1      32.819 -20.042 -20.067  0.00  0.00    +0.039 C 
ATOM     32  C   UNL     1      34.168 -19.723 -20.219  0.00  0.00    +0.166 C 
BRANCH  32  33
ATOM     33  O   UNL     1      34.528 -18.595 -20.891  0.00  0.00    -0.473 OA
BRANCH  33  34
ATOM     34  C   UNL     1      34.478 -18.646 -22.317  0.00  0.00    +0.206 C 
ATOM     35  C   UNL     1      34.586 -17.239 -22.863  0.00  0.00    +0.051 C 
ENDBRANCH  33  34
ENDBRANCH  32  33
ENDBRANCH  25  27
ENDBRANCH   5  25
TORSDOF 10
ENDMDL
MODEL 2
REMARK VINA RESULT:     -11.5      0.992      2.391
REMARK  Name = 56832738
REMARK  10 active torsions:
REMARK  status: ('A' for Active; 'I' for Inactive)
REMARK    1  A    between atoms: C_2  and  C_11
REMARK    2  A    between atoms: C_5  and  C_25
REMARK    3  A    between atoms: C_10  and  C_22
REMARK    4  A    between atoms: C_12  and  O_16
REMARK    5  A    between atoms: C_13  and  O_18
REMARK    6  A    between atoms: C_14  and  O_20
REMARK    7  A    between atoms: C_22  and  O_23
REMARK    8  A    between atoms: C_25  and  C_27
REMARK    9  A    between atoms: C_32  and  O_33
REMARK   10  A    between atoms: O_33  and  C_34
REMARK                            x       y       z     vdW  Elec       q    Type
REMARK                         _______ _______ _______ _____ _____    ______ ____
ROOT
ATOM      1 CL   UNL     1      30.471 -22.182 -16.519  0.00  0.00    -0.083 Cl
ATOM      2  C   UNL     1      34.233 -23.682 -14.523  0.00  0.00    +0.031 C 
ATOM      3  C   UNL     1      34.122 -23.740 -15.912  0.00  0.00    -0.003 C 
ATOM      4  C   UNL     1      33.187 -23.162 -13.761  0.00  0.00    +0.001 C 
ATOM      5  C   UNL     1      32.965 -23.279 -16.539  0.00  0.00    -0.007 C 
ATOM      6  C   UNL     1      32.029 -22.701 -14.388  0.00  0.00    +0.011 C 
ATOM      7  C   UNL     1      31.918 -22.759 -15.778  0.00  0.00    +0.054 C 
ENDROOT
BRANCH   2  11
ATOM      8  O   UNL     1      36.660 -23.452 -14.259  0.00  0.00    -0.326 OA
ATOM      9  O   UNL     1      35.711 -25.570 -14.184  0.00  0.00    -0.326 OA
ATOM     10  C   UNL     1      37.719 -24.382 -13.998  0.00  0.00    +0.176 C 
ATOM     11  C   UNL     1      35.491 -24.183 -13.841  0.00  0.00    +0.235 C 
ATOM     12  C   UNL     1      37.959 -24.403 -12.466  0.00  0.00    +0.169 C 
ATOM     13  C   UNL     1      35.424 -24.081 -12.300  0.00  0.00    +0.196 C 
ATOM     14  C   UNL     1      36.682 -24.686 -11.646  0.00  0.00    +0.172 C 
ATOM     15  C   UNL     1      37.097 -25.662 -14.538  0.00  0.00    +0.177 C 
BRANCH  12  16
ATOM     16  O   UNL     1      38.464 -23.122 -12.076  0.00  0.00    -0.379 OA
ATOM     17  H   UNL     1      38.778 -23.164 -11.159  0.00  0.00    +0.211 HD
ENDBRANCH  12  16
BRANCH  13  18
ATOM     18  O   UNL     1      35.317 -22.711 -11.913  0.00  0.00    -0.377 OA
ATOM     19  H   UNL     1      34.383 -22.451 -11.898  0.00  0.00    +0.211 HD
ENDBRANCH  13  18
BRANCH  14  20
ATOM     20  O   UNL     1      36.496 -26.098 -11.538  0.00  0.00    -0.379 OA
ATOM     21  H   UNL     1      35.849 -26.286 -10.841  0.00  0.00    +0.211 HD
ENDBRANCH  14  20
BRANCH  10  22
ATOM     22  C   UNL     1      38.961 -23.972 -14.778  0.00  0.00    +0.169 C 
BRANCH  22  23
ATOM     23  O   UNL     1      40.106 -24.344 -14.030  0.00  0.00    -0.379 OA
ATOM     24  H   UNL     1      40.770 -24.728 -14.625  0.00  0.00    +0.211 HD
ENDBRANCH  22  23
ENDBRANCH  10  22
ENDBRANCH   2  11
BRANCH   5  25
ATOM     25  C   UNL     1      32.885 -23.359 -18.030  0.00  0.00    +0.054 C 
BRANCH  25  27
ATOM     26  F   UNL     1      36.376 -20.277 -19.503  0.00  0.00    -0.201 F 
ATOM     27  C   UNL     1      33.321 -22.092 -18.735  0.00  0.00    -0.015 C 
ATOM     28  C   UNL     1      34.674 -21.758 -18.797  0.00  0.00    +0.029 C 
ATOM     29  C   UNL     1      32.369 -21.257 -19.321  0.00  0.00    -0.001 C 
ATOM     30  C   UNL     1      35.075 -20.592 -19.447  0.00  0.00    +0.174 C 
ATOM     31  C   UNL     1      32.770 -20.091 -19.970  0.00  0.00    +0.039 C 
ATOM     32  C   UNL     1      34.123 -19.757 -20.033  0.00  0.00    +0.166 C 
BRANCH  32  33
ATOM     33  O   UNL     1      34.513 -18.617 -20.666  0.00  0.00    -0.473 OA
BRANCH  33  34
ATOM     34  C   UNL     1      35.017 -18.754 -21.995  0.00  0.00    +0.206 C 
ATOM     35  C   UNL     1      36.410 -18.164 -22.055  0.00  0.00    +0.051 C 
ENDBRANCH  33  34
ENDBRANCH  32  33
ENDBRANCH  25  27
ENDBRANCH   5  25
TORSDOF 10
ENDMDL
MODEL 3
REMARK VINA RESULT:     -10.9      3.222      5.025
REMARK  Name = 56832738
REMARK  10 active torsions:
REMARK  status: ('A' for Active; 'I' for Inactive)
REMARK    1  A    between atoms: C_2  and  C_11
REMARK    2  A    between atoms: C_5  and  C_25
REMARK    3  A    between atoms: C_10  and  C_22
REMARK    4  A    between atoms: C_12  and  O_16
REMARK    5  A    between atoms: C_13  and  O_18
REMARK    6  A    between atoms: C_14  and  O_20
REMARK    7  A    between atoms: C_22  and  O_23
REMARK    8  A    between atoms: C_25  and  C_27
REMARK    9  A    between atoms: C_32  and  O_33
REMARK   10  A    between atoms: O_33  and  C_34
REMARK                            x       y       z     vdW  Elec       q    Type
REMARK                         _______ _______ _______ _____ _____    ______ ____
ROOT
ATOM      1 CL   UNL     1      36.641 -21.664 -17.355  0.00  0.00    -0.083 Cl
ATOM      2  C   UNL     1      32.731 -22.799 -15.403  0.00  0.00    +0.031 C 
ATOM      3  C   UNL     1      32.848 -22.856 -16.792  0.00  0.00    -0.003 C 
ATOM      4  C   UNL     1      33.817 -22.395 -14.628  0.00  0.00    +0.001 C 
ATOM      5  C   UNL     1      34.051 -22.508 -17.405  0.00  0.00    -0.007 C 
ATOM      6  C   UNL     1      35.021 -22.047 -15.241  0.00  0.00    +0.011 C 
ATOM      7  C   UNL     1      35.138 -22.104 -16.631  0.00  0.00    +0.054 C 
ENDROOT
BRANCH   2  11
ATOM      8  O   UNL     1      30.536 -23.869 -15.637  0.00  0.00    -0.326 OA
ATOM      9  O   UNL     1      30.738 -21.983 -14.298  0.00  0.00    -0.326 OA
ATOM     10  C   UNL     1      29.249 -23.620 -15.059  0.00  0.00    +0.176 C 
ATOM     11  C   UNL     1      31.423 -23.177 -14.737  0.00  0.00    +0.235 C 
ATOM     12  C   UNL     1      29.111 -24.529 -13.810  0.00  0.00    +0.169 C 
ATOM     13  C   UNL     1      31.616 -24.092 -13.505  0.00  0.00    +0.196 C 
ATOM     14  C   UNL     1      30.272 -24.374 -12.804  0.00  0.00    +0.172 C 
ATOM     15  C   UNL     1      29.379 -22.140 -14.729  0.00  0.00    +0.177 C 
BRANCH  12  16
ATOM     16  O   UNL     1      29.082 -25.891 -14.249  0.00  0.00    -0.379 OA
ATOM     17  H   UNL     1      28.213 -26.090 -14.630  0.00  0.00    +0.211 HD
ENDBRANCH  12  16
BRANCH  13  18
ATOM     18  O   UNL     1      32.192 -25.332 -13.913  0.00  0.00    -0.377 OA
ATOM     19  H   UNL     1      32.948 -25.541 -13.342  0.00  0.00    +0.211 HD
ENDBRANCH  13  18
BRANCH  14  20
ATOM     20  O   UNL     1      29.988 -23.286 -11.923  0.00  0.00    -0.379 OA
ATOM     21  H   UNL     1      30.460 -22.494 -12.225  0.00  0.00    +0.211 HD
ENDBRANCH  14  20
BRANCH  10  22
ATOM     22  C   UNL     1      28.165 -23.886 -16.096  0.00  0.00    +0.169 C 
BRANCH  22  23
ATOM     23  O   UNL     1      28.059 -22.751 -16.939  0.00  0.00    -0.379 OA
ATOM     24  H   UNL     1      27.194 -22.756 -17.378  0.00  0.00    +0.211 HD
ENDBRANCH  22  23
ENDBRANCH  10  22
ENDBRANCH   2  11
BRANCH   5  25
ATOM     25  C   UNL     1      34.135 -22.581 -18.896  0.00  0.00    +0.054 C 
BRANCH  25  27
ATOM     26  F   UNL     1      36.832 -18.931 -20.704  0.00  0.00    -0.201 F 
ATOM     27  C   UNL     1      34.253 -21.230 -19.569  0.00  0.00    -0.015 C 
ATOM     28  C   UNL     1      35.512 -20.689 -19.834  0.00  0.00    +0.029 C 
ATOM     29  C   UNL     1      33.103 -20.524 -19.922  0.00  0.00    -0.001 C 
ATOM     30  C   UNL     1      35.620 -19.445 -20.453  0.00  0.00    +0.174 C 
ATOM     31  C   UNL     1      33.211 -19.280 -20.542  0.00  0.00    +0.039 C 
ATOM     32  C   UNL     1      34.470 -18.740 -20.807  0.00  0.00    +0.166 C 
BRANCH  32  33
ATOM     33  O   UNL     1      34.574 -17.524 -21.411  0.00  0.00    -0.473 OA
BRANCH  33  34
ATOM     34  C   UNL     1      34.634 -17.512 -22.837  0.00  0.00    +0.206 C 
ATOM     35  C   UNL     1      34.311 -16.118 -23.331  0.00  0.00    +0.051 C 
ENDBRANCH  33  34
ENDBRANCH  32  33
ENDBRANCH  25  27
ENDBRANCH   5  25
TORSDOF 10
ENDMDL
MODEL 4
REMARK VINA RESULT:     -10.9      1.203      2.416
REMARK  Name = 56832738
REMARK  10 active torsions:
REMARK  status: ('A' for Active; 'I' for Inactive)
REMARK    1  A    between atoms: C_2  and  C_11
REMARK    2  A    between atoms: C_5  and  C_25
REMARK    3  A    between atoms: C_10  and  C_22
REMARK    4  A    between atoms: C_12  and  O_16
REMARK    5  A    between atoms: C_13  and  O_18
REMARK    6  A    between atoms: C_14  and  O_20
REMARK    7  A    between atoms: C_22  and  O_23
REMARK    8  A    between atoms: C_25  and  C_27
REMARK    9  A    between atoms: C_32  and  O_33
REMARK   10  A    between atoms: O_33  and  C_34
REMARK                            x       y       z     vdW  Elec       q    Type
REMARK                         _______ _______ _______ _____ _____    ______ ____
ROOT
ATOM      1 CL   UNL     1      30.570 -22.350 -16.492  0.00  0.00    -0.083 Cl
ATOM      2  C   UNL     1      34.464 -23.528 -14.534  0.00  0.00    +0.031 C 
ATOM      3  C   UNL     1      34.337 -23.617 -15.919  0.00  0.00    -0.003 C 
ATOM      4  C   UNL     1      33.393 -23.076 -13.763  0.00  0.00    +0.001 C 
ATOM      5  C   UNL     1      33.139 -23.255 -16.535  0.00  0.00    -0.007 C 
ATOM      6  C   UNL     1      32.195 -22.714 -14.378  0.00  0.00    +0.011 C 
ATOM      7  C   UNL     1      32.067 -22.803 -15.765  0.00  0.00    +0.054 C 
ENDROOT
BRANCH   2  11
ATOM      8  O   UNL     1      36.652 -24.612 -14.767  0.00  0.00    -0.326 OA
ATOM      9  O   UNL     1      35.496 -24.818 -12.764  0.00  0.00    -0.326 OA
ATOM     10  C   UNL     1      37.482 -25.364 -13.874  0.00  0.00    +0.176 C 
ATOM     11  C   UNL     1      35.766 -23.921 -13.864  0.00  0.00    +0.235 C 
ATOM     12  C   UNL     1      38.489 -24.378 -13.227  0.00  0.00    +0.169 C 
ATOM     13  C   UNL     1      36.548 -22.709 -13.307  0.00  0.00    +0.196 C 
ATOM     14  C   UNL     1      37.815 -23.162 -12.555  0.00  0.00    +0.172 C 
ATOM     15  C   UNL     1      36.434 -25.893 -12.906  0.00  0.00    +0.177 C 
BRANCH  12  16
ATOM     16  O   UNL     1      39.362 -23.893 -14.251  0.00  0.00    -0.379 OA
ATOM     17  H   UNL     1      40.099 -23.410 -13.847  0.00  0.00    +0.211 HD
ENDBRANCH  12  16
BRANCH  13  18
ATOM     18  O   UNL     1      36.932 -21.850 -14.380  0.00  0.00    -0.377 OA
ATOM     19  H   UNL     1      36.219 -21.216 -14.557  0.00  0.00    +0.211 HD
ENDBRANCH  13  18
BRANCH  14  20
ATOM     20  O   UNL     1      37.445 -23.508 -11.219  0.00  0.00    -0.379 OA
ATOM     21  H   UNL     1      38.129 -23.202 -10.605  0.00  0.00    +0.211 HD
ENDBRANCH  14  20
BRANCH  10  22
ATOM     22  C   UNL     1      38.174 -26.483 -14.642  0.00  0.00    +0.169 C 
BRANCH  22  23
ATOM     23  O   UNL     1      39.533 -26.530 -14.243  0.00  0.00    -0.379 OA
ATOM     24  H   UNL     1      39.587 -26.786 -13.309  0.00  0.00    +0.211 HD
ENDBRANCH  22  23
ENDBRANCH  10  22
ENDBRANCH   2  11
BRANCH   5  25
ATOM     25  C   UNL     1      33.043 -23.367 -18.023  0.00  0.00    +0.054 C 
BRANCH  25  27
ATOM     26  F   UNL     1      36.371 -20.150 -19.584  0.00  0.00    -0.201 F 
ATOM     27  C   UNL     1      33.413 -22.095 -18.756  0.00  0.00    -0.015 C 
ATOM     28  C   UNL     1      34.747 -21.698 -18.836  0.00  0.00    +0.029 C 
ATOM     29  C   UNL     1      32.418 -21.319 -19.351  0.00  0.00    -0.001 C 
ATOM     30  C   UNL     1      35.087 -20.527 -19.511  0.00  0.00    +0.174 C 
ATOM     31  C   UNL     1      32.757 -20.148 -20.027  0.00  0.00    +0.039 C 
ATOM     32  C   UNL     1      34.092 -19.751 -20.107  0.00  0.00    +0.166 C 
BRANCH  32  33
ATOM     33  O   UNL     1      34.422 -18.607 -20.766  0.00  0.00    -0.473 OA
BRANCH  33  34
ATOM     34  C   UNL     1      34.929 -18.746 -22.093  0.00  0.00    +0.206 C 
ATOM     35  C   UNL     1      36.337 -18.192 -22.142  0.00  0.00    +0.051 C 
ENDBRANCH  33  34
ENDBRANCH  32  33
ENDBRANCH  25  27
ENDBRANCH   5  25
TORSDOF 10
ENDMDL
MODEL 5
REMARK VINA RESULT:     -10.6      3.186      5.190
REMARK  Name = 56832738
REMARK  10 active torsions:
REMARK  status: ('A' for Active; 'I' for Inactive)
REMARK    1  A    between atoms: C_2  and  C_11
REMARK    2  A    between atoms: C_5  and  C_25
REMARK    3  A    between atoms: C_10  and  C_22
REMARK    4  A    between atoms: C_12  and  O_16
REMARK    5  A    between atoms: C_13  and  O_18
REMARK    6  A    between atoms: C_14  and  O_20
REMARK    7  A    between atoms: C_22  and  O_23
REMARK    8  A    between atoms: C_25  and  C_27
REMARK    9  A    between atoms: C_32  and  O_33
REMARK   10  A    between atoms: O_33  and  C_34
REMARK                            x       y       z     vdW  Elec       q    Type
REMARK                         _______ _______ _______ _____ _____    ______ ____
ROOT
ATOM      1 CL   UNL     1      34.996 -20.566 -19.483  0.00  0.00    -0.083 Cl
ATOM      2  C   UNL     1      36.237 -22.563 -15.629  0.00  0.00    +0.031 C 
ATOM      3  C   UNL     1      34.950 -22.768 -16.125  0.00  0.00    -0.003 C 
ATOM      4  C   UNL     1      37.131 -21.748 -16.323  0.00  0.00    +0.001 C 
ATOM      5  C   UNL     1      34.556 -22.156 -17.315  0.00  0.00    -0.007 C 
ATOM      6  C   UNL     1      36.737 -21.136 -17.513  0.00  0.00    +0.011 C 
ATOM      7  C   UNL     1      35.449 -21.340 -18.010  0.00  0.00    +0.054 C 
ENDROOT
BRANCH   2  11
ATOM      8  O   UNL     1      35.559 -23.850 -13.654  0.00  0.00    -0.326 OA
ATOM      9  O   UNL     1      37.216 -22.238 -13.439  0.00  0.00    -0.326 OA
ATOM     10  C   UNL     1      36.011 -23.885 -12.295  0.00  0.00    +0.176 C 
ATOM     11  C   UNL     1      36.666 -23.228 -14.336  0.00  0.00    +0.235 C 
ATOM     12  C   UNL     1      37.059 -25.022 -12.178  0.00  0.00    +0.169 C 
ATOM     13  C   UNL     1      37.736 -24.324 -14.547  0.00  0.00    +0.196 C 
ATOM     14  C   UNL     1      38.210 -24.906 -13.200  0.00  0.00    +0.172 C 
ATOM     15  C   UNL     1      36.603 -22.489 -12.167  0.00  0.00    +0.177 C 
BRANCH  12  16
ATOM     16  O   UNL     1      36.393 -26.269 -12.397  0.00  0.00    -0.379 OA
ATOM     17  H   UNL     1      36.093 -26.629 -11.548  0.00  0.00    +0.211 HD
ENDBRANCH  12  16
BRANCH  13  18
ATOM     18  O   UNL     1      37.194 -25.379 -15.340  0.00  0.00    -0.377 OA
ATOM     19  H   UNL     1      37.293 -25.161 -16.280  0.00  0.00    +0.211 HD
ENDBRANCH  13  18
BRANCH  14  20
ATOM     20  O   UNL     1      39.223 -24.049 -12.672  0.00  0.00    -0.379 OA
ATOM     21  H   UNL     1      39.376 -24.266 -11.739  0.00  0.00    +0.211 HD
ENDBRANCH  14  20
BRANCH  10  22
ATOM     22  C   UNL     1      34.820 -24.092 -11.367  0.00  0.00    +0.169 C 
BRANCH  22  23
ATOM     23  O   UNL     1      35.265 -24.774 -10.208  0.00  0.00    -0.379 OA
ATOM     24  H   UNL     1      36.111 -25.210 -10.394  0.00  0.00    +0.211 HD
ENDBRANCH  22  23
ENDBRANCH  10  22
ENDBRANCH   2  11
BRANCH   5  25
ATOM     25  C   UNL     1      33.168 -22.400 -17.813  0.00  0.00    +0.054 C 
BRANCH  25  27
ATOM     26  F   UNL     1      28.597 -22.133 -16.108  0.00  0.00    -0.201 F 
ATOM     27  C   UNL     1      32.151 -22.611 -16.711  0.00  0.00    -0.015 C 
ATOM     28  C   UNL     1      30.815 -22.269 -16.918  0.00  0.00    +0.029 C 
ATOM     29  C   UNL     1      32.552 -23.148 -15.487  0.00  0.00    -0.001 C 
ATOM     30  C   UNL     1      29.880 -22.464 -15.903  0.00  0.00    +0.174 C 
ATOM     31  C   UNL     1      31.616 -23.343 -14.472  0.00  0.00    +0.039 C 
ATOM     32  C   UNL     1      30.280 -23.000 -14.679  0.00  0.00    +0.166 C 
BRANCH  32  33
ATOM     33  O   UNL     1      29.368 -23.191 -13.687  0.00  0.00    -0.473 OA
BRANCH  33  34
ATOM     34  C   UNL     1      29.244 -24.513 -13.164  0.00  0.00    +0.206 C 
ATOM     35  C   UNL     1      28.576 -25.391 -14.201  0.00  0.00    +0.051 C 
ENDBRANCH  33  34
ENDBRANCH  32  33
ENDBRANCH  25  27
ENDBRANCH   5  25
TORSDOF 10
ENDMDL
MODEL 6
REMARK VINA RESULT:     -10.3     10.538     17.369
REMARK  Name = 56832738
REMARK  10 active torsions:
REMARK  status: ('A' for Active; 'I' for Inactive)
REMARK    1  A    between atoms: C_2  and  C_11
REMARK    2  A    between atoms: C_5  and  C_25
REMARK    3  A    between atoms: C_10  and  C_22
REMARK    4  A    between atoms: C_12  and  O_16
REMARK    5  A    between atoms: C_13  and  O_18
REMARK    6  A    between atoms: C_14  and  O_20
REMARK    7  A    between atoms: C_22  and  O_23
REMARK    8  A    between atoms: C_25  and  C_27
REMARK    9  A    between atoms: C_32  and  O_33
REMARK   10  A    between atoms: O_33  and  C_34
REMARK                            x       y       z     vdW  Elec       q    Type
REMARK                         _______ _______ _______ _____ _____    ______ ____
ROOT
ATOM      1 CL   UNL     1      31.327  -9.874 -18.445  0.00  0.00    -0.083 Cl
ATOM      2  C   UNL     1      31.669  -7.158 -22.036  0.00  0.00    +0.031 C 
ATOM      3  C   UNL     1      31.181  -8.455 -22.199  0.00  0.00    -0.003 C 
ATOM      4  C   UNL     1      32.044  -6.709 -20.771  0.00  0.00    +0.001 C 
ATOM      5  C   UNL     1      31.071  -9.302 -21.097  0.00  0.00    -0.007 C 
ATOM      6  C   UNL     1      31.934  -7.556 -19.668  0.00  0.00    +0.011 C 
ATOM      7  C   UNL     1      31.447  -8.853 -19.831  0.00  0.00    +0.054 C 
ENDROOT
BRANCH   2  11
ATOM      8  O   UNL     1      32.241  -4.921 -22.861  0.00  0.00    -0.326 OA
ATOM      9  O   UNL     1      30.494  -6.082 -23.859  0.00  0.00    -0.326 OA
ATOM     10  C   UNL     1      31.748  -4.108 -23.934  0.00  0.00    +0.176 C 
ATOM     11  C   UNL     1      31.788  -6.237 -23.234  0.00  0.00    +0.235 C 
ATOM     12  C   UNL     1      32.656  -4.355 -25.166  0.00  0.00    +0.169 C 
ATOM     13  C   UNL     1      32.771  -6.764 -24.305  0.00  0.00    +0.196 C 
ATOM     14  C   UNL     1      32.790  -5.846 -25.543  0.00  0.00    +0.172 C 
ATOM     15  C   UNL     1      30.344  -4.673 -24.084  0.00  0.00    +0.177 C 
BRANCH  12  16
ATOM     16  O   UNL     1      33.963  -3.853 -24.867  0.00  0.00    -0.379 OA
ATOM     17  H   UNL     1      34.606  -4.238 -25.482  0.00  0.00    +0.211 HD
ENDBRANCH  12  16
BRANCH  13  18
ATOM     18  O   UNL     1      34.088  -6.828 -23.759  0.00  0.00    -0.377 OA
ATOM     19  H   UNL     1      34.268  -6.019 -23.254  0.00  0.00    +0.211 HD
ENDBRANCH  13  18
BRANCH  14  20
ATOM     20  O   UNL     1      31.703  -6.215 -26.393  0.00  0.00    -0.379 OA
ATOM     21  H   UNL     1      31.065  -6.745 -25.889  0.00  0.00    +0.211 HD
ENDBRANCH  14  20
BRANCH  10  22
ATOM     22  C   UNL     1      31.737  -2.647 -23.502  0.00  0.00    +0.169 C 
BRANCH  22  23
ATOM     23  O   UNL     1      31.157  -2.562 -22.211  0.00  0.00    -0.379 OA
ATOM     24  H   UNL     1      31.614  -1.878 -21.696  0.00  0.00    +0.211 HD
ENDBRANCH  22  23
ENDBRANCH  10  22
ENDBRANCH   2  11
BRANCH   5  25
ATOM     25  C   UNL     1      30.546 -10.685 -21.313  0.00  0.00    +0.054 C 
BRANCH  25  27
ATOM     26  F   UNL     1      33.226 -14.598 -20.144  0.00  0.00    -0.201 F 
ATOM     27  C   UNL     1      31.619 -11.702 -21.643  0.00  0.00    -0.015 C 
ATOM     28  C   UNL     1      31.937 -12.703 -20.726  0.00  0.00    +0.029 C 
ATOM     29  C   UNL     1      32.290 -11.636 -22.864  0.00  0.00    -0.001 C 
ATOM     30  C   UNL     1      32.925 -13.639 -21.030  0.00  0.00    +0.174 C 
ATOM     31  C   UNL     1      33.277 -12.571 -23.168  0.00  0.00    +0.039 C 
ATOM     32  C   UNL     1      33.596 -13.573 -22.251  0.00  0.00    +0.166 C 
BRANCH  32  33
ATOM     33  O   UNL     1      34.561 -14.486 -22.549  0.00  0.00    -0.473 OA
BRANCH  33  34
ATOM     34  C   UNL     1      34.190 -15.565 -23.407  0.00  0.00    +0.206 C 
ATOM     35  C   UNL     1      34.556 -16.873 -22.738  0.00  0.00    +0.051 C 
ENDBRANCH  33  34
ENDBRANCH  32  33
ENDBRANCH  25  27
ENDBRANCH   5  25
TORSDOF 10
ENDMDL
MODEL 7
REMARK VINA RESULT:      -9.9     10.470     17.263
REMARK  Name = 56832738
REMARK  10 active torsions:
REMARK  status: ('A' for Active; 'I' for Inactive)
REMARK    1  A    between atoms: C_2  and  C_11
REMARK    2  A    between atoms: C_5  and  C_25
REMARK    3  A    between atoms: C_10  and  C_22
REMARK    4  A    between atoms: C_12  and  O_16
REMARK    5  A    between atoms: C_13  and  O_18
REMARK    6  A    between atoms: C_14  and  O_20
REMARK    7  A    between atoms: C_22  and  O_23
REMARK    8  A    between atoms: C_25  and  C_27
REMARK    9  A    between atoms: C_32  and  O_33
REMARK   10  A    between atoms: O_33  and  C_34
REMARK                            x       y       z     vdW  Elec       q    Type
REMARK                         _______ _______ _______ _____ _____    ______ ____
ROOT
ATOM      1 CL   UNL     1      31.221  -9.936 -18.449  0.00  0.00    -0.083 Cl
ATOM      2  C   UNL     1      31.899  -7.197 -21.973  0.00  0.00    +0.031 C 
ATOM      3  C   UNL     1      31.382  -8.474 -22.186  0.00  0.00    -0.003 C 
ATOM      4  C   UNL     1      32.200  -6.772 -20.679  0.00  0.00    +0.001 C 
ATOM      5  C   UNL     1      31.168  -9.329 -21.104  0.00  0.00    -0.007 C 
ATOM      6  C   UNL     1      31.986  -7.627 -19.597  0.00  0.00    +0.011 C 
ATOM      7  C   UNL     1      31.470  -8.905 -19.810  0.00  0.00    +0.054 C 
ENDROOT
BRANCH   2  11
ATOM      8  O   UNL     1      32.864  -6.910 -24.209  0.00  0.00    -0.326 OA
ATOM      9  O   UNL     1      32.910  -5.128 -22.721  0.00  0.00    -0.326 OA
ATOM     10  C   UNL     1      33.456  -5.800 -24.895  0.00  0.00    +0.176 C 
ATOM     11  C   UNL     1      32.131  -6.268 -23.148  0.00  0.00    +0.235 C 
ATOM     12  C   UNL     1      32.342  -5.114 -25.728  0.00  0.00    +0.169 C 
ATOM     13  C   UNL     1      30.817  -5.737 -23.767  0.00  0.00    +0.196 C 
ATOM     14  C   UNL     1      31.101  -4.726 -24.896  0.00  0.00    +0.172 C 
ATOM     15  C   UNL     1      33.935  -4.971 -23.712  0.00  0.00    +0.177 C 
BRANCH  12  16
ATOM     16  O   UNL     1      31.925  -6.024 -26.751  0.00  0.00    -0.379 OA
ATOM     17  H   UNL     1      32.659  -6.617 -26.976  0.00  0.00    +0.211 HD
ENDBRANCH  12  16
BRANCH  13  18
ATOM     18  O   UNL     1      30.064  -6.825 -24.303  0.00  0.00    -0.377 OA
ATOM     19  H   UNL     1      29.119  -6.610 -24.272  0.00  0.00    +0.211 HD
ENDBRANCH  13  18
BRANCH  14  20
ATOM     20  O   UNL     1      31.314  -3.443 -24.305  0.00  0.00    -0.379 OA
ATOM     21  H   UNL     1      31.682  -2.839 -24.968  0.00  0.00    +0.211 HD
ENDBRANCH  14  20
BRANCH  10  22
ATOM     22  C   UNL     1      34.611  -6.291 -25.759  0.00  0.00    +0.169 C 
BRANCH  22  23
ATOM     23  O   UNL     1      34.718  -5.447 -26.892  0.00  0.00    -0.379 OA
ATOM     24  H   UNL     1      34.653  -5.980 -27.699  0.00  0.00    +0.211 HD
ENDBRANCH  22  23
ENDBRANCH  10  22
ENDBRANCH   2  11
BRANCH   5  25
ATOM     25  C   UNL     1      30.614 -10.691 -21.374  0.00  0.00    +0.054 C 
BRANCH  25  27
ATOM     26  F   UNL     1      33.280 -14.580 -20.096  0.00  0.00    -0.201 F 
ATOM     27  C   UNL     1      31.672 -11.731 -21.681  0.00  0.00    -0.015 C 
ATOM     28  C   UNL     1      31.998 -12.697 -20.730  0.00  0.00    +0.029 C 
ATOM     29  C   UNL     1      32.320 -11.721 -22.916  0.00  0.00    -0.001 C 
ATOM     30  C   UNL     1      32.971 -13.654 -21.014  0.00  0.00    +0.174 C 
ATOM     31  C   UNL     1      33.294 -12.678 -23.200  0.00  0.00    +0.039 C 
ATOM     32  C   UNL     1      33.620 -13.644 -22.249  0.00  0.00    +0.166 C 
BRANCH  32  33
ATOM     33  O   UNL     1      34.571 -14.578 -22.527  0.00  0.00    -0.473 OA
BRANCH  33  34
ATOM     34  C   UNL     1      34.192 -15.655 -23.383  0.00  0.00    +0.206 C 
ATOM     35  C   UNL     1      34.559 -16.964 -22.717  0.00  0.00    +0.051 C 
ENDBRANCH  33  34
ENDBRANCH  32  33
ENDBRANCH  25  27
ENDBRANCH   5  25
TORSDOF 10
ENDMDL
MODEL 8
REMARK VINA RESULT:      -9.7      3.158      5.751
REMARK  Name = 56832738
REMARK  10 active torsions:
REMARK  status: ('A' for Active; 'I' for Inactive)
REMARK    1  A    between atoms: C_2  and  C_11
REMARK    2  A    between atoms: C_5  and  C_25
REMARK    3  A    between atoms: C_10  and  C_22
REMARK    4  A    between atoms: C_12  and  O_16
REMARK    5  A    between atoms: C_13  and  O_18
REMARK    6  A    between atoms: C_14  and  O_20
REMARK    7  A    between atoms: C_22  and  O_23
REMARK    8  A    between atoms: C_25  and  C_27
REMARK    9  A    between atoms: C_32  and  O_33
REMARK   10  A    between atoms: O_33  and  C_34
REMARK                            x       y       z     vdW  Elec       q    Type
REMARK                         _______ _______ _______ _____ _____    ______ ____
ROOT
ATOM      1 CL   UNL     1      34.574 -20.363 -19.644  0.00  0.00    -0.083 Cl
ATOM      2  C   UNL     1      36.028 -22.716 -16.076  0.00  0.00    +0.031 C 
ATOM      3  C   UNL     1      34.690 -22.805 -16.459  0.00  0.00    -0.003 C 
ATOM      4  C   UNL     1      36.907 -21.906 -16.795  0.00  0.00    +0.001 C 
ATOM      5  C   UNL     1      34.230 -22.083 -17.560  0.00  0.00    -0.007 C 
ATOM      6  C   UNL     1      36.447 -21.184 -17.896  0.00  0.00    +0.011 C 
ATOM      7  C   UNL     1      35.108 -21.272 -18.279  0.00  0.00    +0.054 C 
ENDROOT
BRANCH   2  11
ATOM      8  O   UNL     1      37.962 -23.433 -14.748  0.00  0.00    -0.326 OA
ATOM      9  O   UNL     1      36.180 -24.896 -15.033  0.00  0.00    -0.326 OA
ATOM     10  C   UNL     1      38.262 -24.619 -14.001  0.00  0.00    +0.176 C 
ATOM     11  C   UNL     1      36.528 -23.501 -14.880  0.00  0.00    +0.235 C 
ATOM     12  C   UNL     1      37.854 -24.361 -12.528  0.00  0.00    +0.169 C 
ATOM     13  C   UNL     1      35.930 -23.009 -13.541  0.00  0.00    +0.196 C 
ATOM     14  C   UNL     1      36.392 -23.893 -12.366  0.00  0.00    +0.172 C 
ATOM     15  C   UNL     1      37.374 -25.626 -14.716  0.00  0.00    +0.177 C 
BRANCH  12  16
ATOM     16  O   UNL     1      38.709 -23.342 -11.999  0.00  0.00    -0.379 OA
ATOM     17  H   UNL     1      38.979 -23.581 -11.098  0.00  0.00    +0.211 HD
ENDBRANCH  12  16
BRANCH  13  18
ATOM     18  O   UNL     1      36.343 -21.664 -13.296  0.00  0.00    -0.377 OA
ATOM     19  H   UNL     1      36.219 -21.454 -12.357  0.00  0.00    +0.211 HD
ENDBRANCH  13  18
BRANCH  14  20
ATOM     20  O   UNL     1      35.537 -25.035 -12.301  0.00  0.00    -0.379 OA
ATOM     21  H   UNL     1      34.616 -24.745 -12.220  0.00  0.00    +0.211 HD
ENDBRANCH  14  20
BRANCH  10  22
ATOM     22  C   UNL     1      39.742 -24.951 -14.147  0.00  0.00    +0.169 C 
BRANCH  22  23
ATOM     23  O   UNL     1      39.995 -25.300 -15.497  0.00  0.00    -0.379 OA
ATOM     24  H   UNL     1      39.153 -25.420 -15.963  0.00  0.00    +0.211 HD
ENDBRANCH  22  23
ENDBRANCH  10  22
ENDBRANCH   2  11
BRANCH   5  25
ATOM     25  C   UNL     1      32.789 -22.204 -17.937  0.00  0.00    +0.054 C 
BRANCH  25  27
ATOM     26  F   UNL     1      28.355 -22.193 -15.885  0.00  0.00    -0.201 F 
ATOM     27  C   UNL     1      31.871 -22.484 -16.764  0.00  0.00    -0.015 C 
ATOM     28  C   UNL     1      30.508 -22.206 -16.863  0.00  0.00    +0.029 C 
ATOM     29  C   UNL     1      32.390 -23.018 -15.585  0.00  0.00    -0.001 C 
ATOM     30  C   UNL     1      29.664 -22.463 -15.784  0.00  0.00    +0.174 C 
ATOM     31  C   UNL     1      31.547 -23.275 -14.506  0.00  0.00    +0.039 C 
ATOM     32  C   UNL     1      30.183 -22.997 -14.604  0.00  0.00    +0.166 C 
BRANCH  32  33
ATOM     33  O   UNL     1      29.361 -23.248 -13.549  0.00  0.00    -0.473 OA
BRANCH  33  34
ATOM     34  C   UNL     1      29.254 -24.604 -13.118  0.00  0.00    +0.206 C 
ATOM     35  C   UNL     1      28.598 -25.418 -14.214  0.00  0.00    +0.051 C 
ENDBRANCH  33  34
ENDBRANCH  32  33
ENDBRANCH  25  27
ENDBRANCH   5  25
TORSDOF 10
ENDMDL
MODEL 9
REMARK VINA RESULT:      -9.6      3.824      7.562
REMARK  Name = 56832738
REMARK  10 active torsions:
REMARK  status: ('A' for Active; 'I' for Inactive)
REMARK    1  A    between atoms: C_2  and  C_11
REMARK    2  A    between atoms: C_5  and  C_25
REMARK    3  A    between atoms: C_10  and  C_22
REMARK    4  A    between atoms: C_12  and  O_16
REMARK    5  A    between atoms: C_13  and  O_18
REMARK    6  A    between atoms: C_14  and  O_20
REMARK    7  A    between atoms: C_22  and  O_23
REMARK    8  A    between atoms: C_25  and  C_27
REMARK    9  A    between atoms: C_32  and  O_33
REMARK   10  A    between atoms: O_33  and  C_34
REMARK                            x       y       z     vdW  Elec       q    Type
REMARK                         _______ _______ _______ _____ _____    ______ ____
ROOT
ATOM      1 CL   UNL     1      36.194 -21.535 -18.044  0.00  0.00    -0.083 Cl
ATOM      2  C   UNL     1      32.549 -22.780 -15.688  0.00  0.00    +0.031 C 
ATOM      3  C   UNL     1      33.707 -22.398 -15.011  0.00  0.00    -0.003 C 
ATOM      4  C   UNL     1      32.522 -22.773 -17.082  0.00  0.00    +0.001 C 
ATOM      5  C   UNL     1      34.839 -22.012 -15.729  0.00  0.00    -0.007 C 
ATOM      6  C   UNL     1      33.653 -22.386 -17.800  0.00  0.00    +0.011 C 
ATOM      7  C   UNL     1      34.812 -22.005 -17.124  0.00  0.00    +0.054 C 
ENDROOT
BRANCH   2  11
ATOM      8  O   UNL     1      30.391 -23.945 -15.720  0.00  0.00    -0.326 OA
ATOM      9  O   UNL     1      30.621 -22.027 -14.431  0.00  0.00    -0.326 OA
ATOM     10  C   UNL     1      29.147 -23.738 -15.040  0.00  0.00    +0.176 C 
ATOM     11  C   UNL     1      31.319 -23.199 -14.908  0.00  0.00    +0.235 C 
ATOM     12  C   UNL     1      29.152 -24.629 -13.771  0.00  0.00    +0.169 C 
ATOM     13  C   UNL     1      31.653 -24.082 -13.683  0.00  0.00    +0.196 C 
ATOM     14  C   UNL     1      30.385 -24.407 -12.868  0.00  0.00    +0.172 C 
ATOM     15  C   UNL     1      29.239 -22.249 -14.744  0.00  0.00    +0.177 C 
BRANCH  12  16
ATOM     16  O   UNL     1      29.146 -25.998 -14.185  0.00  0.00    -0.379 OA
ATOM     17  H   UNL     1      28.658 -26.530 -13.537  0.00  0.00    +0.211 HD
ENDBRANCH  12  16
BRANCH  13  18
ATOM     18  O   UNL     1      32.246 -25.305 -14.119  0.00  0.00    -0.377 OA
ATOM     19  H   UNL     1      33.039 -25.486 -13.591  0.00  0.00    +0.211 HD
ENDBRANCH  13  18
BRANCH  14  20
ATOM     20  O   UNL     1      30.129 -23.315 -11.983  0.00  0.00    -0.379 OA
ATOM     21  H   UNL     1      30.070 -23.644 -11.073  0.00  0.00    +0.211 HD
ENDBRANCH  14  20
BRANCH  10  22
ATOM     22  C   UNL     1      27.992 -24.068 -15.978  0.00  0.00    +0.169 C 
BRANCH  22  23
ATOM     23  O   UNL     1      28.168 -23.342 -17.182  0.00  0.00    -0.379 OA
ATOM     24  H   UNL     1      27.501 -22.640 -17.236  0.00  0.00    +0.211 HD
ENDBRANCH  22  23
ENDBRANCH  10  22
ENDBRANCH   2  11
BRANCH   5  25
ATOM     25  C   UNL     1      36.061 -21.612 -14.967  0.00  0.00    +0.054 C 
BRANCH  25  27
ATOM     26  F   UNL     1      37.188 -25.150 -11.792  0.00  0.00    -0.201 F 
ATOM     27  C   UNL     1      36.924 -22.781 -14.538  0.00  0.00    -0.015 C 
ATOM     28  C   UNL     1      36.656 -23.443 -13.339  0.00  0.00    +0.029 C 
ATOM     29  C   UNL     1      37.987 -23.194 -15.340  0.00  0.00    -0.001 C 
ATOM     30  C   UNL     1      37.450 -24.518 -12.945  0.00  0.00    +0.174 C 
ATOM     31  C   UNL     1      38.781 -24.269 -14.945  0.00  0.00    +0.039 C 
ATOM     32  C   UNL     1      38.513 -24.931 -13.747  0.00  0.00    +0.166 C 
BRANCH  32  33
ATOM     33  O   UNL     1      39.290 -25.981 -13.363  0.00  0.00    -0.473 OA
BRANCH  33  34
ATOM     34  C   UNL     1      40.535 -26.150 -14.041  0.00  0.00    +0.206 C 
ATOM     35  C   UNL     1      41.343 -27.213 -13.329  0.00  0.00    +0.051 C 
ENDBRANCH  33  34
ENDBRANCH  32  33
ENDBRANCH  25  27
ENDBRANCH   5  25
TORSDOF 10
ENDMDL
