MODEL 1
REMARK VINA RESULT:     -10.8      0.000      0.000
REMARK  Name = 35455
REMARK  4 active torsions:
REMARK  status: ('A' for Active; 'I' for Inactive)
REMARK    1  A    between atoms: N_3  and  C_8
REMARK    2  A    between atoms: N_4  and  C_14
REMARK    3  A    between atoms: C_5  and  C_20
REMARK    4  A    between atoms: C_20  and  C_21
REMARK                            x       y       z     vdW  Elec       q    Type
REMARK                         _______ _______ _______ _____ _____    ______ ____
ROOT
ATOM      1  O   UNL     1      33.204 -24.085 -12.348  0.00  0.00    -0.272 OA
ATOM      2  O   UNL     1      31.756 -22.941 -16.690  0.00  0.00    -0.272 OA
ATOM      3  N   UNL     1      34.326 -23.629 -14.398  0.00  0.00    -0.179 N 
ATOM      4  N   UNL     1      33.895 -23.180 -15.670  0.00  0.00    -0.179 N 
ATOM      5  C   UNL     1      31.999 -23.583 -14.377  0.00  0.00    +0.161 C 
ATOM      6  C   UNL     1      33.235 -23.771 -13.529  0.00  0.00    +0.254 C 
ATOM      7  C   UNL     1      32.494 -23.223 -15.758  0.00  0.00    +0.254 C 
ENDROOT
BRANCH   3   8
ATOM      8  C   UNL     1      35.590 -24.247 -14.151  0.00  0.00    +0.073 C 
ATOM      9  C   UNL     1      35.918 -25.448 -14.784  0.00  0.00    +0.017 C 
ATOM     10  C   UNL     1      36.503 -23.651 -13.277  0.00  0.00    +0.017 C 
ATOM     11  C   UNL     1      37.152 -26.051 -14.543  0.00  0.00    +0.001 C 
ATOM     12  C   UNL     1      37.737 -24.256 -13.037  0.00  0.00    +0.001 C 
ATOM     13  C   UNL     1      38.062 -25.454 -13.670  0.00  0.00    +0.000 C 
ENDBRANCH   3   8
BRANCH   4  14
ATOM     14  C   UNL     1      34.690 -22.393 -16.557  0.00  0.00    +0.073 C 
ATOM     15  C   UNL     1      35.884 -21.822 -16.111  0.00  0.00    +0.017 C 
ATOM     16  C   UNL     1      34.277 -22.191 -17.876  0.00  0.00    +0.017 C 
ATOM     17  C   UNL     1      36.660 -21.054 -16.978  0.00  0.00    +0.001 C 
ATOM     18  C   UNL     1      35.053 -21.422 -18.744  0.00  0.00    +0.001 C 
ATOM     19  C   UNL     1      36.245 -20.854 -18.294  0.00  0.00    +0.000 C 
ENDBRANCH   4  14
BRANCH   5  20
ATOM     20  C   UNL     1      31.103 -22.497 -13.806  0.00  0.00    +0.044 C 
BRANCH  20  21
ATOM     21  C   UNL     1      29.852 -22.336 -14.622  0.00  0.00    -0.034 C 
ATOM     22  C   UNL     1      28.902 -23.258 -14.863  0.00  0.00    -0.048 C 
ATOM     23  C   UNL     1      27.668 -23.033 -15.692  0.00  0.00    +0.026 C 
ATOM     24  C   UNL     1      29.013 -24.641 -14.279  0.00  0.00    +0.026 C 
ENDBRANCH  20  21
ENDBRANCH   5  20
TORSDOF 4
ENDMDL
MODEL 2
REMARK VINA RESULT:     -10.7      0.970      4.252
REMARK  Name = 35455
REMARK  4 active torsions:
REMARK  status: ('A' for Active; 'I' for Inactive)
REMARK    1  A    between atoms: N_3  and  C_8
REMARK    2  A    between atoms: N_4  and  C_14
REMARK    3  A    between atoms: C_5  and  C_20
REMARK    4  A    between atoms: C_20  and  C_21
REMARK                            x       y       z     vdW  Elec       q    Type
REMARK                         _______ _______ _______ _____ _____    ______ ____
ROOT
ATOM      1  O   UNL     1      31.212 -22.081 -17.207  0.00  0.00    -0.272 OA
ATOM      2  O   UNL     1      32.336 -23.179 -12.759  0.00  0.00    -0.272 OA
ATOM      3  N   UNL     1      33.242 -22.678 -16.114  0.00  0.00    -0.179 N 
ATOM      4  N   UNL     1      33.555 -23.112 -14.803  0.00  0.00    -0.179 N 
ATOM      5  C   UNL     1      31.303 -22.515 -14.836  0.00  0.00    +0.161 C 
ATOM      6  C   UNL     1      31.869 -22.421 -16.233  0.00  0.00    +0.254 C 
ATOM      7  C   UNL     1      32.451 -22.946 -13.953  0.00  0.00    +0.254 C 
ENDROOT
BRANCH   3   8
ATOM      8  C   UNL     1      34.202 -22.170 -17.043  0.00  0.00    +0.073 C 
ATOM      9  C   UNL     1      33.870 -22.045 -18.394  0.00  0.00    +0.017 C 
ATOM     10  C   UNL     1      35.473 -21.795 -16.603  0.00  0.00    +0.017 C 
ATOM     11  C   UNL     1      34.806 -21.549 -19.301  0.00  0.00    +0.001 C 
ATOM     12  C   UNL     1      36.409 -21.299 -17.510  0.00  0.00    +0.001 C 
ATOM     13  C   UNL     1      36.076 -21.175 -18.859  0.00  0.00    +0.000 C 
ENDBRANCH   3   8
BRANCH   4  14
ATOM     14  C   UNL     1      34.639 -23.985 -14.482  0.00  0.00    +0.073 C 
ATOM     15  C   UNL     1      34.820 -25.171 -15.199  0.00  0.00    +0.017 C 
ATOM     16  C   UNL     1      35.522 -23.657 -13.452  0.00  0.00    +0.017 C 
ATOM     17  C   UNL     1      35.879 -26.023 -14.886  0.00  0.00    +0.001 C 
ATOM     18  C   UNL     1      36.580 -24.510 -13.138  0.00  0.00    +0.001 C 
ATOM     19  C   UNL     1      36.759 -25.693 -13.855  0.00  0.00    +0.000 C 
ENDBRANCH   4  14
BRANCH   5  20
ATOM     20  C   UNL     1      30.152 -23.504 -14.776  0.00  0.00    +0.044 C 
BRANCH  20  21
ATOM     21  C   UNL     1      28.832 -22.798 -14.656  0.00  0.00    -0.034 C 
ATOM     22  C   UNL     1      27.842 -22.741 -15.566  0.00  0.00    -0.048 C 
ATOM     23  C   UNL     1      26.539 -22.015 -15.383  0.00  0.00    +0.026 C 
ATOM     24  C   UNL     1      27.979 -23.449 -16.888  0.00  0.00    +0.026 C 
ENDBRANCH  20  21
ENDBRANCH   5  20
TORSDOF 4
ENDMDL
MODEL 3
REMARK VINA RESULT:      -9.9     15.208     18.102
REMARK  Name = 35455
REMARK  4 active torsions:
REMARK  status: ('A' for Active; 'I' for Inactive)
REMARK    1  A    between atoms: N_3  and  C_8
REMARK    2  A    between atoms: N_4  and  C_14
REMARK    3  A    between atoms: C_5  and  C_20
REMARK    4  A    between atoms: C_20  and  C_21
REMARK                            x       y       z     vdW  Elec       q    Type
REMARK                         _______ _______ _______ _____ _____    ______ ____
ROOT
ATOM      1  O   UNL     1      30.919  -9.460 -21.682  0.00  0.00    -0.272 OA
ATOM      2  O   UNL     1      34.937  -8.898 -24.088  0.00  0.00    -0.272 OA
ATOM      3  N   UNL     1      31.995  -7.589 -22.688  0.00  0.00    -0.179 N 
ATOM      4  N   UNL     1      33.144  -7.444 -23.502  0.00  0.00    -0.179 N 
ATOM      5  C   UNL     1      33.052  -9.661 -22.790  0.00  0.00    +0.161 C 
ATOM      6  C   UNL     1      31.813  -8.932 -22.328  0.00  0.00    +0.254 C 
ATOM      7  C   UNL     1      33.885  -8.637 -23.525  0.00  0.00    +0.254 C 
ENDROOT
BRANCH   3   8
ATOM      8  C   UNL     1      31.364  -6.515 -21.990  0.00  0.00    +0.073 C 
ATOM      9  C   UNL     1      31.801  -6.158 -20.712  0.00  0.00    +0.017 C 
ATOM     10  C   UNL     1      30.310  -5.816 -22.583  0.00  0.00    +0.017 C 
ATOM     11  C   UNL     1      31.185  -5.108 -20.031  0.00  0.00    +0.001 C 
ATOM     12  C   UNL     1      29.695  -4.766 -21.901  0.00  0.00    +0.001 C 
ATOM     13  C   UNL     1      30.133  -4.412 -20.625  0.00  0.00    +0.000 C 
ENDBRANCH   3   8
BRANCH   4  14
ATOM     14  C   UNL     1      33.305  -6.428 -24.492  0.00  0.00    +0.073 C 
ATOM     15  C   UNL     1      32.535  -6.456 -25.658  0.00  0.00    +0.017 C 
ATOM     16  C   UNL     1      34.233  -5.402 -24.300  0.00  0.00    +0.017 C 
ATOM     17  C   UNL     1      32.693  -5.464 -26.625  0.00  0.00    +0.001 C 
ATOM     18  C   UNL     1      34.391  -4.409 -25.267  0.00  0.00    +0.001 C 
ATOM     19  C   UNL     1      33.620  -4.440 -26.430  0.00  0.00    +0.000 C 
ENDBRANCH   4  14
BRANCH   5  20
ATOM     20  C   UNL     1      32.696 -10.835 -23.684  0.00  0.00    +0.044 C 
BRANCH  20  21
ATOM     21  C   UNL     1      33.405 -12.087 -23.250  0.00  0.00    -0.034 C 
ATOM     22  C   UNL     1      33.064 -12.922 -22.252  0.00  0.00    -0.048 C 
ATOM     23  C   UNL     1      33.819 -14.163 -21.867  0.00  0.00    +0.026 C 
ATOM     24  C   UNL     1      31.836 -12.660 -21.422  0.00  0.00    +0.026 C 
ENDBRANCH  20  21
ENDBRANCH   5  20
TORSDOF 4
ENDMDL
MODEL 4
REMARK VINA RESULT:      -9.8      1.697      6.532
REMARK  Name = 35455
REMARK  4 active torsions:
REMARK  status: ('A' for Active; 'I' for Inactive)
REMARK    1  A    between atoms: N_3  and  C_8
REMARK    2  A    between atoms: N_4  and  C_14
REMARK    3  A    between atoms: C_5  and  C_20
REMARK    4  A    between atoms: C_20  and  C_21
REMARK                            x       y       z     vdW  Elec       q    Type
REMARK                         _______ _______ _______ _____ _____    ______ ____
ROOT
ATOM      1  O   UNL     1      37.119 -21.890 -16.461  0.00  0.00    -0.272 OA
ATOM      2  O   UNL     1      34.331 -25.039 -14.325  0.00  0.00    -0.272 OA
ATOM      3  N   UNL     1      34.780 -22.332 -16.516  0.00  0.00    -0.179 N 
ATOM      4  N   UNL     1      33.933 -23.206 -15.792  0.00  0.00    -0.179 N 
ATOM      5  C   UNL     1      36.132 -23.694 -15.199  0.00  0.00    +0.161 C 
ATOM      6  C   UNL     1      36.113 -22.490 -16.111  0.00  0.00    +0.254 C 
ATOM      7  C   UNL     1      34.692 -24.123 -15.049  0.00  0.00    +0.254 C 
ENDROOT
BRANCH   3   8
ATOM      8  C   UNL     1      34.420 -21.702 -17.747  0.00  0.00    +0.073 C 
ATOM      9  C   UNL     1      35.411 -21.172 -18.577  0.00  0.00    +0.017 C 
ATOM     10  C   UNL     1      33.078 -21.617 -18.125  0.00  0.00    +0.017 C 
ATOM     11  C   UNL     1      35.060 -20.558 -19.780  0.00  0.00    +0.001 C 
ATOM     12  C   UNL     1      32.729 -21.002 -19.328  0.00  0.00    +0.001 C 
ATOM     13  C   UNL     1      33.719 -20.474 -20.155  0.00  0.00    +0.000 C 
ENDBRANCH   3   8
BRANCH   4  14
ATOM     14  C   UNL     1      32.562 -22.936 -15.496  0.00  0.00    +0.073 C 
ATOM     15  C   UNL     1      32.208 -22.366 -14.271  0.00  0.00    +0.017 C 
ATOM     16  C   UNL     1      31.570 -23.239 -16.431  0.00  0.00    +0.017 C 
ATOM     17  C   UNL     1      30.869 -22.101 -13.983  0.00  0.00    +0.001 C 
ATOM     18  C   UNL     1      30.231 -22.976 -16.143  0.00  0.00    +0.001 C 
ATOM     19  C   UNL     1      29.881 -22.406 -14.918  0.00  0.00    +0.000 C 
ENDBRANCH   4  14
BRANCH   5  20
ATOM     20  C   UNL     1      36.755 -23.353 -13.856  0.00  0.00    +0.044 C 
BRANCH  20  21
ATOM     21  C   UNL     1      38.170 -23.851 -13.769  0.00  0.00    -0.034 C 
ATOM     22  C   UNL     1      38.602 -25.123 -13.844  0.00  0.00    -0.048 C 
ATOM     23  C   UNL     1      40.038 -25.557 -13.749  0.00  0.00    +0.026 C 
ATOM     24  C   UNL     1      37.625 -26.250 -14.051  0.00  0.00    +0.026 C 
ENDBRANCH  20  21
ENDBRANCH   5  20
TORSDOF 4
ENDMDL
MODEL 5
REMARK VINA RESULT:      -9.3      1.885      6.158
REMARK  Name = 35455
REMARK  4 active torsions:
REMARK  status: ('A' for Active; 'I' for Inactive)
REMARK    1  A    between atoms: N_3  and  C_8
REMARK    2  A    between atoms: N_4  and  C_14
REMARK    3  A    between atoms: C_5  and  C_20
REMARK    4  A    between atoms: C_20  and  C_21
REMARK                            x       y       z     vdW  Elec       q    Type
REMARK                         _______ _______ _______ _____ _____    ______ ____
ROOT
ATOM      1  O   UNL     1      37.233 -21.536 -16.569  0.00  0.00    -0.272 OA
ATOM      2  O   UNL     1      34.738 -24.848 -14.319  0.00  0.00    -0.272 OA
ATOM      3  N   UNL     1      34.939 -22.173 -16.586  0.00  0.00    -0.179 N 
ATOM      4  N   UNL     1      34.175 -23.094 -15.829  0.00  0.00    -0.179 N 
ATOM      5  C   UNL     1      36.413 -23.381 -15.249  0.00  0.00    +0.161 C 
ATOM      6  C   UNL     1      36.284 -22.209 -16.192  0.00  0.00    +0.254 C 
ATOM      7  C   UNL     1      35.015 -23.925 -15.071  0.00  0.00    +0.254 C 
ENDROOT
BRANCH   3   8
ATOM      8  C   UNL     1      34.517 -21.609 -17.829  0.00  0.00    +0.073 C 
ATOM      9  C   UNL     1      33.159 -21.560 -18.150  0.00  0.00    +0.017 C 
ATOM     10  C   UNL     1      35.461 -21.103 -18.725  0.00  0.00    +0.017 C 
ATOM     11  C   UNL     1      32.747 -21.009 -19.363  0.00  0.00    +0.001 C 
ATOM     12  C   UNL     1      35.048 -20.552 -19.938  0.00  0.00    +0.001 C 
ATOM     13  C   UNL     1      33.692 -20.504 -20.257  0.00  0.00    +0.000 C 
ENDBRANCH   3   8
BRANCH   4  14
ATOM     14  C   UNL     1      32.789 -22.932 -15.525  0.00  0.00    +0.073 C 
ATOM     15  C   UNL     1      31.816 -23.378 -16.423  0.00  0.00    +0.017 C 
ATOM     16  C   UNL     1      32.401 -22.327 -14.328  0.00  0.00    +0.017 C 
ATOM     17  C   UNL     1      30.463 -23.219 -16.126  0.00  0.00    +0.001 C 
ATOM     18  C   UNL     1      31.047 -22.167 -14.030  0.00  0.00    +0.001 C 
ATOM     19  C   UNL     1      30.078 -22.614 -14.929  0.00  0.00    +0.000 C 
ENDBRANCH   4  14
BRANCH   5  20
ATOM     20  C   UNL     1      37.017 -22.953 -13.922  0.00  0.00    +0.044 C 
BRANCH  20  21
ATOM     21  C   UNL     1      36.031 -23.102 -12.800  0.00  0.00    -0.034 C 
ATOM     22  C   UNL     1      36.202 -23.750 -11.633  0.00  0.00    -0.048 C 
ATOM     23  C   UNL     1      35.170 -23.863 -10.545  0.00  0.00    +0.026 C 
ATOM     24  C   UNL     1      37.509 -24.429 -11.321  0.00  0.00    +0.026 C 
ENDBRANCH  20  21
ENDBRANCH   5  20
TORSDOF 4
ENDMDL
MODEL 6
REMARK VINA RESULT:      -9.1     16.859     19.740
REMARK  Name = 35455
REMARK  4 active torsions:
REMARK  status: ('A' for Active; 'I' for Inactive)
REMARK    1  A    between atoms: N_3  and  C_8
REMARK    2  A    between atoms: N_4  and  C_14
REMARK    3  A    between atoms: C_5  and  C_20
REMARK    4  A    between atoms: C_20  and  C_21
REMARK                            x       y       z     vdW  Elec       q    Type
REMARK                         _______ _______ _______ _____ _____    ______ ____
ROOT
ATOM      1  O   UNL     1      30.086  -6.908 -22.499  0.00  0.00    -0.272 OA
ATOM      2  O   UNL     1      34.555  -7.900 -23.637  0.00  0.00    -0.272 OA
ATOM      3  N   UNL     1      31.785  -5.743 -23.693  0.00  0.00    -0.179 N 
ATOM      4  N   UNL     1      33.088  -6.089 -24.125  0.00  0.00    -0.179 N 
ATOM      5  C   UNL     1      32.299  -7.825 -22.788  0.00  0.00    +0.161 C 
ATOM      6  C   UNL     1      31.204  -6.804 -22.984  0.00  0.00    +0.254 C 
ATOM      7  C   UNL     1      33.500  -7.293 -23.534  0.00  0.00    +0.254 C 
ENDROOT
BRANCH   3   8
ATOM      8  C   UNL     1      31.296  -4.403 -23.608  0.00  0.00    +0.073 C 
ATOM      9  C   UNL     1      30.832  -3.754 -24.755  0.00  0.00    +0.017 C 
ATOM     10  C   UNL     1      31.278  -3.739 -22.379  0.00  0.00    +0.017 C 
ATOM     11  C   UNL     1      30.353  -2.447 -24.673  0.00  0.00    +0.001 C 
ATOM     12  C   UNL     1      30.799  -2.432 -22.298  0.00  0.00    +0.001 C 
ATOM     13  C   UNL     1      30.336  -1.786 -23.444  0.00  0.00    +0.000 C 
ENDBRANCH   3   8
BRANCH   4  14
ATOM     14  C   UNL     1      33.712  -5.564 -25.298  0.00  0.00    +0.073 C 
ATOM     15  C   UNL     1      34.834  -4.739 -25.187  0.00  0.00    +0.017 C 
ATOM     16  C   UNL     1      33.204  -5.876 -26.561  0.00  0.00    +0.017 C 
ATOM     17  C   UNL     1      35.443  -4.228 -26.332  0.00  0.00    +0.001 C 
ATOM     18  C   UNL     1      33.813  -5.364 -27.707  0.00  0.00    +0.001 C 
ATOM     19  C   UNL     1      34.933  -4.540 -27.592  0.00  0.00    +0.000 C 
ENDBRANCH   4  14
BRANCH   5  20
ATOM     20  C   UNL     1      31.876  -9.187 -23.311  0.00  0.00    +0.044 C 
BRANCH  20  21
ATOM     21  C   UNL     1      31.591 -10.140 -22.185  0.00  0.00    -0.034 C 
ATOM     22  C   UNL     1      31.999 -11.417 -22.063  0.00  0.00    -0.048 C 
ATOM     23  C   UNL     1      31.678 -12.321 -20.906  0.00  0.00    +0.026 C 
ATOM     24  C   UNL     1      32.855 -12.050 -23.127  0.00  0.00    +0.026 C 
ENDBRANCH  20  21
ENDBRANCH   5  20
TORSDOF 4
ENDMDL
MODEL 7
REMARK VINA RESULT:      -9.0      1.913      5.643
REMARK  Name = 35455
REMARK  4 active torsions:
REMARK  status: ('A' for Active; 'I' for Inactive)
REMARK    1  A    between atoms: N_3  and  C_8
REMARK    2  A    between atoms: N_4  and  C_14
REMARK    3  A    between atoms: C_5  and  C_20
REMARK    4  A    between atoms: C_20  and  C_21
REMARK                            x       y       z     vdW  Elec       q    Type
REMARK                         _______ _______ _______ _____ _____    ______ ____
ROOT
ATOM      1  O   UNL     1      34.300 -24.846 -11.231  0.00  0.00    -0.272 OA
ATOM      2  O   UNL     1      37.178 -21.644 -13.161  0.00  0.00    -0.272 OA
ATOM      3  N   UNL     1      34.177 -23.469 -13.170  0.00  0.00    -0.179 N 
ATOM      4  N   UNL     1      35.089 -22.590 -13.804  0.00  0.00    -0.179 N 
ATOM      5  C   UNL     1      36.047 -23.281 -11.796  0.00  0.00    +0.161 C 
ATOM      6  C   UNL     1      34.747 -24.019 -12.012  0.00  0.00    +0.254 C 
ATOM      7  C   UNL     1      36.200 -22.355 -12.980  0.00  0.00    +0.254 C 
ENDROOT
BRANCH   3   8
ATOM      8  C   UNL     1      32.769 -23.476 -13.410  0.00  0.00    +0.073 C 
ATOM      9  C   UNL     1      32.060 -22.273 -13.453  0.00  0.00    +0.017 C 
ATOM     10  C   UNL     1      32.097 -24.686 -13.605  0.00  0.00    +0.017 C 
ATOM     11  C   UNL     1      30.685 -22.281 -13.689  0.00  0.00    +0.001 C 
ATOM     12  C   UNL     1      30.722 -24.691 -13.840  0.00  0.00    +0.001 C 
ATOM     13  C   UNL     1      30.016 -23.490 -13.883  0.00  0.00    +0.000 C 
ENDBRANCH   3   8
BRANCH   4  14
ATOM     14  C   UNL     1      35.115 -22.335 -15.209  0.00  0.00    +0.073 C 
ATOM     15  C   UNL     1      34.004 -22.641 -15.998  0.00  0.00    +0.017 C 
ATOM     16  C   UNL     1      36.252 -21.779 -15.799  0.00  0.00    +0.017 C 
ATOM     17  C   UNL     1      34.030 -22.391 -17.370  0.00  0.00    +0.001 C 
ATOM     18  C   UNL     1      36.278 -21.531 -17.172  0.00  0.00    +0.001 C 
ATOM     19  C   UNL     1      35.166 -21.836 -17.957  0.00  0.00    +0.000 C 
ENDBRANCH   4  14
BRANCH   5  20
ATOM     20  C   UNL     1      37.214 -24.247 -11.689  0.00  0.00    +0.044 C 
BRANCH  20  21
ATOM     21  C   UNL     1      37.070 -25.386 -12.657  0.00  0.00    -0.034 C 
ATOM     22  C   UNL     1      37.703 -25.553 -13.834  0.00  0.00    -0.048 C 
ATOM     23  C   UNL     1      37.513 -26.722 -14.760  0.00  0.00    +0.026 C 
ATOM     24  C   UNL     1      38.701 -24.534 -14.315  0.00  0.00    +0.026 C 
ENDBRANCH  20  21
ENDBRANCH   5  20
TORSDOF 4
ENDMDL
MODEL 8
REMARK VINA RESULT:      -8.9     14.188     17.223
REMARK  Name = 35455
REMARK  4 active torsions:
REMARK  status: ('A' for Active; 'I' for Inactive)
REMARK    1  A    between atoms: N_3  and  C_8
REMARK    2  A    between atoms: N_4  and  C_14
REMARK    3  A    between atoms: C_5  and  C_20
REMARK    4  A    between atoms: C_20  and  C_21
REMARK                            x       y       z     vdW  Elec       q    Type
REMARK                         _______ _______ _______ _____ _____    ______ ____
ROOT
ATOM      1  O   UNL     1      33.257 -10.533 -24.162  0.00  0.00    -0.272 OA
ATOM      2  O   UNL     1      30.130  -9.848 -20.696  0.00  0.00    -0.272 OA
ATOM      3  N   UNL     1      32.332  -8.597 -23.129  0.00  0.00    -0.179 N 
ATOM      4  N   UNL     1      31.477  -8.396 -22.018  0.00  0.00    -0.179 N 
ATOM      5  C   UNL     1      31.603 -10.689 -22.413  0.00  0.00    +0.161 C 
ATOM      6  C   UNL     1      32.549  -9.966 -23.342  0.00  0.00    +0.254 C 
ATOM      7  C   UNL     1      30.923  -9.615 -21.596  0.00  0.00    +0.254 C 
ENDROOT
BRANCH   3   8
ATOM      8  C   UNL     1      32.590  -7.614 -24.133  0.00  0.00    +0.073 C 
ATOM      9  C   UNL     1      33.881  -7.106 -24.299  0.00  0.00    +0.017 C 
ATOM     10  C   UNL     1      31.554  -7.158 -24.952  0.00  0.00    +0.017 C 
ATOM     11  C   UNL     1      34.134  -6.147 -25.279  0.00  0.00    +0.001 C 
ATOM     12  C   UNL     1      31.808  -6.198 -25.931  0.00  0.00    +0.001 C 
ATOM     13  C   UNL     1      33.097  -5.693 -26.096  0.00  0.00    +0.000 C 
ENDBRANCH   3   8
BRANCH   4  14
ATOM     14  C   UNL     1      31.511  -7.243 -21.176  0.00  0.00    +0.073 C 
ATOM     15  C   UNL     1      32.317  -7.230 -20.035  0.00  0.00    +0.017 C 
ATOM     16  C   UNL     1      30.739  -6.123 -21.491  0.00  0.00    +0.017 C 
ATOM     17  C   UNL     1      32.350  -6.104 -19.214  0.00  0.00    +0.001 C 
ATOM     18  C   UNL     1      30.771  -4.996 -20.669  0.00  0.00    +0.001 C 
ATOM     19  C   UNL     1      31.578  -4.987 -19.530  0.00  0.00    +0.000 C 
ENDBRANCH   4  14
BRANCH   5  20
ATOM     20  C   UNL     1      32.349 -11.672 -21.528  0.00  0.00    +0.044 C 
BRANCH  20  21
ATOM     21  C   UNL     1      33.043 -12.724 -22.346  0.00  0.00    -0.034 C 
ATOM     22  C   UNL     1      33.599 -13.871 -21.913  0.00  0.00    -0.048 C 
ATOM     23  C   UNL     1      34.282 -14.885 -22.786  0.00  0.00    +0.026 C 
ATOM     24  C   UNL     1      33.559 -14.235 -20.452  0.00  0.00    +0.026 C 
ENDBRANCH  20  21
ENDBRANCH   5  20
TORSDOF 4
ENDMDL
MODEL 9
REMARK VINA RESULT:      -8.8      1.564      5.820
REMARK  Name = 35455
REMARK  4 active torsions:
REMARK  status: ('A' for Active; 'I' for Inactive)
REMARK    1  A    between atoms: N_3  and  C_8
REMARK    2  A    between atoms: N_4  and  C_14
REMARK    3  A    between atoms: C_5  and  C_20
REMARK    4  A    between atoms: C_20  and  C_21
REMARK                            x       y       z     vdW  Elec       q    Type
REMARK                         _______ _______ _______ _____ _____    ______ ____
ROOT
ATOM      1  O   UNL     1      33.130 -25.077 -13.797  0.00  0.00    -0.272 OA
ATOM      2  O   UNL     1      36.508 -22.423 -15.748  0.00  0.00    -0.272 OA
ATOM      3  N   UNL     1      33.126 -23.293 -15.373  0.00  0.00    -0.179 N 
ATOM      4  N   UNL     1      34.148 -22.573 -16.038  0.00  0.00    -0.179 N 
ATOM      5  C   UNL     1      35.163 -23.965 -14.469  0.00  0.00    +0.161 C 
ATOM      6  C   UNL     1      33.679 -24.242 -14.501  0.00  0.00    +0.254 C 
ATOM      7  C   UNL     1      35.400 -22.859 -15.471  0.00  0.00    +0.254 C 
ENDROOT
BRANCH   3   8
ATOM      8  C   UNL     1      31.770 -22.854 -15.272  0.00  0.00    +0.073 C 
ATOM      9  C   UNL     1      30.857 -23.162 -16.283  0.00  0.00    +0.017 C 
ATOM     10  C   UNL     1      31.353 -22.118 -14.160  0.00  0.00    +0.017 C 
ATOM     11  C   UNL     1      29.533 -22.734 -16.184  0.00  0.00    +0.001 C 
ATOM     12  C   UNL     1      30.028 -21.691 -14.062  0.00  0.00    +0.001 C 
ATOM     13  C   UNL     1      29.119 -21.999 -15.072  0.00  0.00    +0.000 C 
ENDBRANCH   3   8
BRANCH   4  14
ATOM     14  C   UNL     1      34.015 -22.003 -17.340  0.00  0.00    +0.073 C 
ATOM     15  C   UNL     1      35.139 -21.518 -18.013  0.00  0.00    +0.017 C 
ATOM     16  C   UNL     1      32.760 -21.931 -17.948  0.00  0.00    +0.017 C 
ATOM     17  C   UNL     1      35.009 -20.963 -19.285  0.00  0.00    +0.001 C 
ATOM     18  C   UNL     1      32.629 -21.374 -19.221  0.00  0.00    +0.001 C 
ATOM     19  C   UNL     1      33.754 -20.891 -19.890  0.00  0.00    +0.000 C 
ENDBRANCH   4  14
BRANCH   5  20
ATOM     20  C   UNL     1      35.960 -25.211 -14.815  0.00  0.00    +0.044 C 
BRANCH  20  21
ATOM     21  C   UNL     1      37.437 -24.965 -14.696  0.00  0.00    -0.034 C 
ATOM     22  C   UNL     1      38.207 -25.090 -13.599  0.00  0.00    -0.048 C 
ATOM     23  C   UNL     1      39.686 -24.828 -13.546  0.00  0.00    +0.026 C 
ATOM     24  C   UNL     1      37.607 -25.534 -12.291  0.00  0.00    +0.026 C 
ENDBRANCH  20  21
ENDBRANCH   5  20
TORSDOF 4
ENDMDL
