MODEL 1
REMARK VINA RESULT:     -12.6      0.000      0.000
REMARK  Name = 11314340
REMARK  7 active torsions:
REMARK  status: ('A' for Active; 'I' for Inactive)
REMARK    1  A    between atoms: C_2  and  C_10
REMARK    2  A    between atoms: C_3  and  O_18
REMARK    3  A    between atoms: O_18  and  C_19
REMARK    4  A    between atoms: C_19  and  C_20
REMARK    5  A    between atoms: C_20  and  N_21
REMARK    6  A    between atoms: C_20  and  C_25
REMARK    7  A    between atoms: C_25  and  C_26
REMARK                            x       y       z     vdW  Elec       q    Type
REMARK                         _______ _______ _______ _____ _____    ______ ____
ROOT
ATOM      1  N   UNL     1      31.971 -21.665 -18.775  0.00  0.00    -0.239 NA
ATOM      2  C   UNL     1      34.200 -21.620 -17.857  0.00  0.00    +0.022 C 
ATOM      3  C   UNL     1      33.754 -20.528 -19.945  0.00  0.00    +0.158 C 
ATOM      4  C   UNL     1      34.648 -20.879 -18.940  0.00  0.00    +0.040 C 
ATOM      5  C   UNL     1      32.869 -21.987 -17.817  0.00  0.00    +0.099 C 
ATOM      6  C   UNL     1      32.438 -20.942 -19.817  0.00  0.00    +0.136 C 
ENDROOT
BRANCH   2  10
ATOM      7  N   UNL     1      36.623 -23.604 -12.976  0.00  0.00    -0.280 N 
ATOM      8  N   UNL     1      37.607 -23.110 -13.753  0.00  0.00    -0.173 NA
ATOM      9  C   UNL     1      35.563 -22.918 -14.727  0.00  0.00    +0.032 A 
ATOM     10  C   UNL     1      35.109 -22.003 -16.793  0.00  0.00    +0.002 C 
ATOM     11  C   UNL     1      36.979 -22.671 -14.859  0.00  0.00    +0.102 A 
ATOM     12  C   UNL     1      34.567 -22.614 -15.646  0.00  0.00    +0.003 C 
ATOM     13  C   UNL     1      35.372 -23.515 -13.513  0.00  0.00    +0.053 A 
ATOM     14  C   UNL     1      36.504 -21.737 -16.972  0.00  0.00    +0.002 C 
ATOM     15  C   UNL     1      37.493 -22.059 -16.016  0.00  0.00    +0.021 C 
ATOM     16  C   UNL     1      34.180 -24.006 -12.801  0.00  0.00    +0.051 C 
ATOM     17  H   UNL     1      36.794 -24.000 -12.090  0.00  0.00    +0.189 HD
ENDBRANCH   2  10
BRANCH   3  18
ATOM     18  O   UNL     1      34.158 -19.802 -21.017  0.00  0.00    -0.476 OA
BRANCH  18  19
ATOM     19  C   UNL     1      35.565 -19.627 -21.197  0.00  0.00    +0.184 C 
BRANCH  19  20
ATOM     20  C   UNL     1      35.894 -18.143 -21.402  0.00  0.00    -0.017 C 
BRANCH  20  21
ATOM     21  N   UNL     1      37.312 -18.029 -21.755  0.00  0.00    +0.384 N 
ATOM     22  H   UNL     1      37.409 -17.996 -22.770  0.00  0.00    -0.089 HD
ATOM     23  H   UNL     1      37.819 -18.837 -21.391  0.00  0.00    -0.089 HD
ATOM     24  H   UNL     1      37.696 -17.175 -21.348  0.00  0.00    -0.089 HD
ENDBRANCH  20  21
BRANCH  20  25
ATOM     25  C   UNL     1      35.063 -17.486 -22.524  0.00  0.00    +0.008 C 
BRANCH  25  26
ATOM     26  C   UNL     1      34.553 -16.102 -22.202  0.00  0.00    -0.024 C 
ATOM     27  C   UNL     1      34.268 -15.772 -20.886  0.00  0.00    -0.004 C 
ATOM     28  C   UNL     1      34.380 -15.185 -23.227  0.00  0.00    -0.004 C 
ATOM     29  C   UNL     1      33.798 -14.494 -20.587  0.00  0.00    -0.000 C 
ATOM     30  C   UNL     1      33.909 -13.906 -22.928  0.00  0.00    -0.000 C 
ATOM     31  C   UNL     1      33.618 -13.560 -21.609  0.00  0.00    -0.000 C 
ENDBRANCH  25  26
ENDBRANCH  20  25
ENDBRANCH  19  20
ENDBRANCH  18  19
ENDBRANCH   3  18
TORSDOF 7
ENDMDL
MODEL 2
REMARK VINA RESULT:     -12.5      4.293     11.199
REMARK  Name = 11314340
REMARK  7 active torsions:
REMARK  status: ('A' for Active; 'I' for Inactive)
REMARK    1  A    between atoms: C_2  and  C_10
REMARK    2  A    between atoms: C_3  and  O_18
REMARK    3  A    between atoms: O_18  and  C_19
REMARK    4  A    between atoms: C_19  and  C_20
REMARK    5  A    between atoms: C_20  and  N_21
REMARK    6  A    between atoms: C_20  and  C_25
REMARK    7  A    between atoms: C_25  and  C_26
REMARK                            x       y       z     vdW  Elec       q    Type
REMARK                         _______ _______ _______ _____ _____    ______ ____
ROOT
ATOM      1  N   UNL     1      33.141 -14.546 -25.566  0.00  0.00    -0.239 NA
ATOM      2  C   UNL     1      32.990 -13.166 -23.594  0.00  0.00    +0.022 C 
ATOM      3  C   UNL     1      34.234 -15.215 -23.517  0.00  0.00    +0.158 C 
ATOM      4  C   UNL     1      33.767 -14.068 -22.884  0.00  0.00    +0.040 C 
ATOM      5  C   UNL     1      32.705 -13.443 -24.918  0.00  0.00    +0.099 C 
ATOM      6  C   UNL     1      33.896 -15.406 -24.846  0.00  0.00    +0.136 C 
ENDROOT
BRANCH   2  10
ATOM      7  N   UNL     1      31.898  -7.708 -21.965  0.00  0.00    -0.280 N 
ATOM      8  N   UNL     1      31.117  -8.522 -21.228  0.00  0.00    -0.173 NA
ATOM      9  C   UNL     1      32.423  -9.673 -22.689  0.00  0.00    +0.032 A 
ATOM     10  C   UNL     1      32.487 -11.961 -22.962  0.00  0.00    +0.002 C 
ATOM     11  C   UNL     1      31.420  -9.762 -21.655  0.00  0.00    +0.102 A 
ATOM     12  C   UNL     1      33.005 -10.723 -23.388  0.00  0.00    +0.003 C 
ATOM     13  C   UNL     1      32.705  -8.348 -22.861  0.00  0.00    +0.053 A 
ATOM     14  C   UNL     1      31.492 -12.102 -21.943  0.00  0.00    +0.002 C 
ATOM     15  C   UNL     1      30.919 -11.012 -21.249  0.00  0.00    +0.021 C 
ATOM     16  C   UNL     1      33.622  -7.613 -23.749  0.00  0.00    +0.051 C 
ATOM     17  H   UNL     1      31.887  -6.728 -21.866  0.00  0.00    +0.189 HD
ENDBRANCH   2  10
BRANCH   3  18
ATOM     18  O   UNL     1      34.998 -16.118 -22.852  0.00  0.00    -0.476 OA
BRANCH  18  19
ATOM     19  C   UNL     1      34.714 -17.501 -23.066  0.00  0.00    +0.184 C 
BRANCH  19  20
ATOM     20  C   UNL     1      34.821 -18.276 -21.748  0.00  0.00    -0.017 C 
BRANCH  20  21
ATOM     21  N   UNL     1      34.950 -17.311 -20.653  0.00  0.00    +0.384 N 
ATOM     22  H   UNL     1      34.735 -16.375 -20.996  0.00  0.00    -0.089 HD
ATOM     23  H   UNL     1      35.905 -17.330 -20.294  0.00  0.00    -0.089 HD
ATOM     24  H   UNL     1      34.301 -17.557 -19.905  0.00  0.00    -0.089 HD
ENDBRANCH  20  21
BRANCH  20  25
ATOM     25  C   UNL     1      33.592 -19.166 -21.465  0.00  0.00    +0.008 C 
BRANCH  25  26
ATOM     26  C   UNL     1      33.767 -20.134 -20.320  0.00  0.00    -0.024 C 
ATOM     27  C   UNL     1      32.645 -20.661 -19.698  0.00  0.00    -0.004 C 
ATOM     28  C   UNL     1      35.046 -20.480 -19.910  0.00  0.00    -0.004 C 
ATOM     29  C   UNL     1      32.806 -21.555 -18.640  0.00  0.00    -0.000 C 
ATOM     30  C   UNL     1      35.206 -21.375 -18.852  0.00  0.00    -0.000 C 
ATOM     31  C   UNL     1      34.087 -21.912 -18.217  0.00  0.00    -0.000 C 
ENDBRANCH  25  26
ENDBRANCH  20  25
ENDBRANCH  19  20
ENDBRANCH  18  19
ENDBRANCH   3  18
TORSDOF 7
ENDMDL
MODEL 3
REMARK VINA RESULT:     -12.2      0.997      2.134
REMARK  Name = 11314340
REMARK  7 active torsions:
REMARK  status: ('A' for Active; 'I' for Inactive)
REMARK    1  A    between atoms: C_2  and  C_10
REMARK    2  A    between atoms: C_3  and  O_18
REMARK    3  A    between atoms: O_18  and  C_19
REMARK    4  A    between atoms: C_19  and  C_20
REMARK    5  A    between atoms: C_20  and  N_21
REMARK    6  A    between atoms: C_20  and  C_25
REMARK    7  A    between atoms: C_25  and  C_26
REMARK                            x       y       z     vdW  Elec       q    Type
REMARK                         _______ _______ _______ _____ _____    ______ ____
ROOT
ATOM      1  N   UNL     1      32.277 -21.871 -18.621  0.00  0.00    -0.239 NA
ATOM      2  C   UNL     1      34.035 -22.297 -17.027  0.00  0.00    +0.022 C 
ATOM      3  C   UNL     1      34.518 -21.058 -19.023  0.00  0.00    +0.158 C 
ATOM      4  C   UNL     1      34.944 -21.615 -17.822  0.00  0.00    +0.040 C 
ATOM      5  C   UNL     1      32.727 -22.399 -17.461  0.00  0.00    +0.099 C 
ATOM      6  C   UNL     1      33.187 -21.213 -19.374  0.00  0.00    +0.136 C 
ENDROOT
BRANCH   2  10
ATOM      7  N   UNL     1      36.984 -24.639 -12.616  0.00  0.00    -0.280 N 
ATOM      8  N   UNL     1      35.689 -24.562 -12.252  0.00  0.00    -0.173 NA
ATOM      9  C   UNL     1      36.042 -23.757 -14.347  0.00  0.00    +0.032 A 
ATOM     10  C   UNL     1      34.449 -22.890 -15.769  0.00  0.00    +0.002 C 
ATOM     11  C   UNL     1      35.069 -24.015 -13.313  0.00  0.00    +0.102 A 
ATOM     12  C   UNL     1      35.812 -23.200 -15.598  0.00  0.00    +0.003 C 
ATOM     13  C   UNL     1      37.254 -24.168 -13.868  0.00  0.00    +0.053 A 
ATOM     14  C   UNL     1      33.446 -23.125 -14.775  0.00  0.00    +0.002 C 
ATOM     15  C   UNL     1      33.714 -23.695 -13.510  0.00  0.00    +0.021 C 
ATOM     16  C   UNL     1      38.616 -24.174 -14.428  0.00  0.00    +0.051 C 
ATOM     17  H   UNL     1      37.681 -25.005 -12.025  0.00  0.00    +0.189 HD
ENDBRANCH   2  10
BRANCH   3  18
ATOM     18  O   UNL     1      35.380 -20.383 -19.824  0.00  0.00    -0.476 OA
BRANCH  18  19
ATOM     19  C   UNL     1      34.824 -19.665 -20.926  0.00  0.00    +0.184 C 
BRANCH  19  20
ATOM     20  C   UNL     1      35.469 -18.278 -21.036  0.00  0.00    -0.017 C 
BRANCH  20  21
ATOM     21  N   UNL     1      36.925 -18.440 -20.978  0.00  0.00    +0.384 N 
ATOM     22  H   UNL     1      37.199 -18.718 -20.036  0.00  0.00    -0.089 HD
ATOM     23  H   UNL     1      37.375 -17.555 -21.216  0.00  0.00    -0.089 HD
ATOM     24  H   UNL     1      37.214 -19.158 -21.643  0.00  0.00    -0.089 HD
ENDBRANCH  20  21
BRANCH  20  25
ATOM     25  C   UNL     1      35.117 -17.546 -22.349  0.00  0.00    +0.008 C 
BRANCH  25  26
ATOM     26  C   UNL     1      34.585 -16.146 -22.166  0.00  0.00    -0.024 C 
ATOM     27  C   UNL     1      34.440 -15.323 -23.273  0.00  0.00    -0.004 C 
ATOM     28  C   UNL     1      34.249 -15.707 -20.894  0.00  0.00    -0.004 C 
ATOM     29  C   UNL     1      33.948 -14.030 -23.104  0.00  0.00    -0.000 C 
ATOM     30  C   UNL     1      33.757 -14.412 -20.726  0.00  0.00    -0.000 C 
ATOM     31  C   UNL     1      33.606 -13.574 -21.830  0.00  0.00    -0.000 C 
ENDBRANCH  25  26
ENDBRANCH  20  25
ENDBRANCH  19  20
ENDBRANCH  18  19
ENDBRANCH   3  18
TORSDOF 7
ENDMDL
MODEL 4
REMARK VINA RESULT:     -12.1      3.804      6.646
REMARK  Name = 11314340
REMARK  7 active torsions:
REMARK  status: ('A' for Active; 'I' for Inactive)
REMARK    1  A    between atoms: C_2  and  C_10
REMARK    2  A    between atoms: C_3  and  O_18
REMARK    3  A    between atoms: O_18  and  C_19
REMARK    4  A    between atoms: C_19  and  C_20
REMARK    5  A    between atoms: C_20  and  N_21
REMARK    6  A    between atoms: C_20  and  C_25
REMARK    7  A    between atoms: C_25  and  C_26
REMARK                            x       y       z     vdW  Elec       q    Type
REMARK                         _______ _______ _______ _____ _____    ______ ____
ROOT
ATOM      1  N   UNL     1      33.430 -16.820 -24.861  0.00  0.00    -0.239 NA
ATOM      2  C   UNL     1      34.370 -17.297 -22.693  0.00  0.00    +0.022 C 
ATOM      3  C   UNL     1      34.125 -15.021 -23.405  0.00  0.00    +0.158 C 
ATOM      4  C   UNL     1      34.521 -15.942 -22.442  0.00  0.00    +0.040 C 
ATOM      5  C   UNL     1      33.826 -17.687 -23.902  0.00  0.00    +0.099 C 
ATOM      6  C   UNL     1      33.591 -15.506 -24.587  0.00  0.00    +0.136 C 
ENDROOT
BRANCH   2  10
ATOM      7  N   UNL     1      34.579 -21.528 -18.730  0.00  0.00    -0.280 N 
ATOM      8  N   UNL     1      35.837 -21.086 -18.929  0.00  0.00    -0.173 NA
ATOM      9  C   UNL     1      34.323 -19.978 -20.212  0.00  0.00    +0.032 A 
ATOM     10  C   UNL     1      34.774 -18.284 -21.708  0.00  0.00    +0.002 C 
ATOM     11  C   UNL     1      35.715 -20.115 -19.852  0.00  0.00    +0.102 A 
ATOM     12  C   UNL     1      33.775 -19.090 -21.128  0.00  0.00    +0.003 C 
ATOM     13  C   UNL     1      33.628 -20.896 -19.477  0.00  0.00    +0.053 A 
ATOM     14  C   UNL     1      36.165 -18.381 -21.386  0.00  0.00    +0.002 C 
ATOM     15  C   UNL     1      36.692 -19.297 -20.448  0.00  0.00    +0.021 C 
ATOM     16  C   UNL     1      32.202 -21.251 -19.387  0.00  0.00    +0.051 C 
ATOM     17  H   UNL     1      34.364 -22.250 -18.096  0.00  0.00    +0.189 HD
ENDBRANCH   2  10
BRANCH   3  18
ATOM     18  O   UNL     1      34.258 -13.688 -23.192  0.00  0.00    -0.476 OA
BRANCH  18  19
ATOM     19  C   UNL     1      33.464 -13.108 -22.155  0.00  0.00    +0.184 C 
BRANCH  19  20
ATOM     20  C   UNL     1      32.808 -11.814 -22.648  0.00  0.00    -0.017 C 
BRANCH  20  21
ATOM     21  N   UNL     1      32.594 -11.926 -24.094  0.00  0.00    +0.384 N 
ATOM     22  H   UNL     1      31.619 -11.721 -24.312  0.00  0.00    -0.089 HD
ATOM     23  H   UNL     1      32.818 -12.874 -24.398  0.00  0.00    -0.089 HD
ATOM     24  H   UNL     1      33.198 -11.262 -24.580  0.00  0.00    -0.089 HD
ENDBRANCH  20  21
BRANCH  20  25
ATOM     25  C   UNL     1      31.446 -11.529 -21.980  0.00  0.00    +0.008 C 
BRANCH  25  26
ATOM     26  C   UNL     1      31.414 -10.290 -21.119  0.00  0.00    -0.024 C 
ATOM     27  C   UNL     1      31.403 -10.421 -19.739  0.00  0.00    -0.004 C 
ATOM     28  C   UNL     1      31.397  -9.042 -21.723  0.00  0.00    -0.004 C 
ATOM     29  C   UNL     1      31.373  -9.276 -18.943  0.00  0.00    -0.000 C 
ATOM     30  C   UNL     1      31.367  -7.897 -20.926  0.00  0.00    -0.000 C 
ATOM     31  C   UNL     1      31.355  -8.014 -19.537  0.00  0.00    -0.000 C 
ENDBRANCH  25  26
ENDBRANCH  20  25
ENDBRANCH  19  20
ENDBRANCH  18  19
ENDBRANCH   3  18
TORSDOF 7
ENDMDL
MODEL 5
REMARK VINA RESULT:     -11.7      2.565      3.998
REMARK  Name = 11314340
REMARK  7 active torsions:
REMARK  status: ('A' for Active; 'I' for Inactive)
REMARK    1  A    between atoms: C_2  and  C_10
REMARK    2  A    between atoms: C_3  and  O_18
REMARK    3  A    between atoms: O_18  and  C_19
REMARK    4  A    between atoms: C_19  and  C_20
REMARK    5  A    between atoms: C_20  and  N_21
REMARK    6  A    between atoms: C_20  and  C_25
REMARK    7  A    between atoms: C_25  and  C_26
REMARK                            x       y       z     vdW  Elec       q    Type
REMARK                         _______ _______ _______ _____ _____    ______ ____
ROOT
ATOM      1  N   UNL     1      35.717 -21.668 -18.141  0.00  0.00    -0.239 NA
ATOM      2  C   UNL     1      33.422 -22.010 -17.486  0.00  0.00    +0.022 C 
ATOM      3  C   UNL     1      33.916 -20.749 -19.465  0.00  0.00    +0.158 C 
ATOM      4  C   UNL     1      32.984 -21.285 -18.584  0.00  0.00    +0.040 C 
ATOM      5  C   UNL     1      34.782 -22.174 -17.306  0.00  0.00    +0.099 C 
ATOM      6  C   UNL     1      35.258 -20.966 -19.201  0.00  0.00    +0.136 C 
ENDROOT
BRANCH   2  10
ATOM      7  N   UNL     1      28.672 -23.796 -14.678  0.00  0.00    -0.280 N 
ATOM      8  N   UNL     1      29.744 -24.169 -13.952  0.00  0.00    -0.173 NA
ATOM      9  C   UNL     1      30.331 -23.064 -15.850  0.00  0.00    +0.032 A 
ATOM     10  C   UNL     1      32.474 -22.582 -16.548  0.00  0.00    +0.002 C 
ATOM     11  C   UNL     1      30.802 -23.726 -14.657  0.00  0.00    +0.102 A 
ATOM     12  C   UNL     1      31.101 -22.468 -16.840  0.00  0.00    +0.003 C 
ATOM     13  C   UNL     1      28.967 -23.127 -15.831  0.00  0.00    +0.053 A 
ATOM     14  C   UNL     1      32.991 -23.229 -15.381  0.00  0.00    +0.002 C 
ATOM     15  C   UNL     1      32.179 -23.826 -14.390  0.00  0.00    +0.021 C 
ATOM     16  C   UNL     1      27.917 -22.647 -16.745  0.00  0.00    +0.051 C 
ATOM     17  H   UNL     1      27.748 -23.992 -14.399  0.00  0.00    +0.189 HD
ENDBRANCH   2  10
BRANCH   3  18
ATOM     18  O   UNL     1      33.522 -20.036 -20.550  0.00  0.00    -0.476 OA
BRANCH  18  19
ATOM     19  C   UNL     1      34.531 -19.662 -21.490  0.00  0.00    +0.184 C 
BRANCH  19  20
ATOM     20  C   UNL     1      34.974 -18.215 -21.245  0.00  0.00    -0.017 C 
BRANCH  20  21
ATOM     21  N   UNL     1      36.377 -18.227 -20.821  0.00  0.00    +0.384 N 
ATOM     22  H   UNL     1      36.895 -18.909 -21.375  0.00  0.00    -0.089 HD
ATOM     23  H   UNL     1      36.432 -18.479 -19.834  0.00  0.00    -0.089 HD
ATOM     24  H   UNL     1      36.782 -17.300 -20.958  0.00  0.00    -0.089 HD
ENDBRANCH  20  21
BRANCH  20  25
ATOM     25  C   UNL     1      34.857 -17.323 -22.499  0.00  0.00    +0.008 C 
BRANCH  25  26
ATOM     26  C   UNL     1      34.415 -15.906 -22.225  0.00  0.00    -0.024 C 
ATOM     27  C   UNL     1      34.283 -15.018 -23.282  0.00  0.00    -0.004 C 
ATOM     28  C   UNL     1      34.147 -15.518 -20.921  0.00  0.00    -0.004 C 
ATOM     29  C   UNL     1      33.874 -13.709 -23.029  0.00  0.00    -0.000 C 
ATOM     30  C   UNL     1      33.739 -14.208 -20.669  0.00  0.00    -0.000 C 
ATOM     31  C   UNL     1      33.602 -13.304 -21.722  0.00  0.00    -0.000 C 
ENDBRANCH  25  26
ENDBRANCH  20  25
ENDBRANCH  19  20
ENDBRANCH  18  19
ENDBRANCH   3  18
TORSDOF 7
ENDMDL
MODEL 6
REMARK VINA RESULT:     -11.6      2.079      3.289
REMARK  Name = 11314340
REMARK  7 active torsions:
REMARK  status: ('A' for Active; 'I' for Inactive)
REMARK    1  A    between atoms: C_2  and  C_10
REMARK    2  A    between atoms: C_3  and  O_18
REMARK    3  A    between atoms: O_18  and  C_19
REMARK    4  A    between atoms: C_19  and  C_20
REMARK    5  A    between atoms: C_20  and  N_21
REMARK    6  A    between atoms: C_20  and  C_25
REMARK    7  A    between atoms: C_25  and  C_26
REMARK                            x       y       z     vdW  Elec       q    Type
REMARK                         _______ _______ _______ _____ _____    ______ ____
ROOT
ATOM      1  N   UNL     1      31.113 -22.766 -15.164  0.00  0.00    -0.239 NA
ATOM      2  C   UNL     1      33.519 -22.917 -15.220  0.00  0.00    +0.022 C 
ATOM      3  C   UNL     1      32.311 -22.451 -17.239  0.00  0.00    +0.158 C 
ATOM      4  C   UNL     1      33.520 -22.657 -16.582  0.00  0.00    +0.040 C 
ATOM      5  C   UNL     1      32.306 -22.962 -14.559  0.00  0.00    +0.099 C 
ATOM      6  C   UNL     1      31.147 -22.516 -16.492  0.00  0.00    +0.136 C 
ENDROOT
BRANCH   2  10
ATOM      7  N   UNL     1      37.614 -23.892 -11.230  0.00  0.00    -0.280 N 
ATOM      8  N   UNL     1      38.224 -23.767 -12.425  0.00  0.00    -0.173 NA
ATOM      9  C   UNL     1      35.969 -23.538 -12.583  0.00  0.00    +0.032 A 
ATOM     10  C   UNL     1      34.763 -23.137 -14.505  0.00  0.00    +0.002 C 
ATOM     11  C   UNL     1      37.223 -23.544 -13.297  0.00  0.00    +0.102 A 
ATOM     12  C   UNL     1      34.701 -23.342 -13.113  0.00  0.00    +0.003 C 
ATOM     13  C   UNL     1      36.256 -23.763 -11.266  0.00  0.00    +0.053 A 
ATOM     14  C   UNL     1      35.980 -23.134 -15.258  0.00  0.00    +0.002 C 
ATOM     15  C   UNL     1      37.256 -23.337 -14.687  0.00  0.00    +0.021 C 
ATOM     16  C   UNL     1      35.429 -23.873 -10.053  0.00  0.00    +0.051 C 
ATOM     17  H   UNL     1      38.110 -24.064 -10.397  0.00  0.00    +0.189 HD
ENDBRANCH   2  10
BRANCH   3  18
ATOM     18  O   UNL     1      32.276 -22.193 -18.570  0.00  0.00    -0.476 OA
BRANCH  18  19
ATOM     19  C   UNL     1      33.519 -21.915 -19.217  0.00  0.00    +0.184 C 
BRANCH  19  20
ATOM     20  C   UNL     1      33.347 -20.783 -20.235  0.00  0.00    -0.017 C 
BRANCH  20  21
ATOM     21  N   UNL     1      32.143 -20.024 -19.884  0.00  0.00    +0.384 N 
ATOM     22  H   UNL     1      31.986 -19.294 -20.578  0.00  0.00    -0.089 HD
ATOM     23  H   UNL     1      32.264 -19.600 -18.964  0.00  0.00    -0.089 HD
ATOM     24  H   UNL     1      31.339 -20.653 -19.864  0.00  0.00    -0.089 HD
ENDBRANCH  20  21
BRANCH  20  25
ATOM     25  C   UNL     1      34.541 -19.805 -20.266  0.00  0.00    +0.008 C 
BRANCH  25  26
ATOM     26  C   UNL     1      34.469 -18.757 -21.351  0.00  0.00    -0.024 C 
ATOM     27  C   UNL     1      34.042 -19.121 -22.619  0.00  0.00    -0.004 C 
ATOM     28  C   UNL     1      34.830 -17.451 -21.060  0.00  0.00    -0.004 C 
ATOM     29  C   UNL     1      33.975 -18.154 -23.621  0.00  0.00    -0.000 C 
ATOM     30  C   UNL     1      34.764 -16.484 -22.064  0.00  0.00    -0.000 C 
ATOM     31  C   UNL     1      34.337 -16.835 -23.344  0.00  0.00    -0.000 C 
ENDBRANCH  25  26
ENDBRANCH  20  25
ENDBRANCH  19  20
ENDBRANCH  18  19
ENDBRANCH   3  18
TORSDOF 7
ENDMDL
MODEL 7
REMARK VINA RESULT:     -11.6      2.085      2.969
REMARK  Name = 11314340
REMARK  7 active torsions:
REMARK  status: ('A' for Active; 'I' for Inactive)
REMARK    1  A    between atoms: C_2  and  C_10
REMARK    2  A    between atoms: C_3  and  O_18
REMARK    3  A    between atoms: O_18  and  C_19
REMARK    4  A    between atoms: C_19  and  C_20
REMARK    5  A    between atoms: C_20  and  N_21
REMARK    6  A    between atoms: C_20  and  C_25
REMARK    7  A    between atoms: C_25  and  C_26
REMARK                            x       y       z     vdW  Elec       q    Type
REMARK                         _______ _______ _______ _____ _____    ______ ____
ROOT
ATOM      1  N   UNL     1      36.076 -21.231 -18.885  0.00  0.00    -0.239 NA
ATOM      2  C   UNL     1      33.863 -21.639 -18.021  0.00  0.00    +0.022 C 
ATOM      3  C   UNL     1      34.135 -20.360 -20.031  0.00  0.00    +0.158 C 
ATOM      4  C   UNL     1      33.304 -20.924 -19.069  0.00  0.00    +0.040 C 
ATOM      5  C   UNL     1      35.238 -21.765 -17.969  0.00  0.00    +0.099 C 
ATOM      6  C   UNL     1      35.501 -20.540 -19.895  0.00  0.00    +0.136 C 
ENDROOT
BRANCH   2  10
ATOM      7  N   UNL     1      31.762 -24.217 -13.269  0.00  0.00    -0.280 N 
ATOM      8  N   UNL     1      30.723 -23.940 -14.082  0.00  0.00    -0.173 NA
ATOM      9  C   UNL     1      32.707 -23.273 -14.965  0.00  0.00    +0.032 A 
ATOM     10  C   UNL     1      33.023 -22.238 -17.000  0.00  0.00    +0.002 C 
ATOM     11  C   UNL     1      31.278 -23.349 -15.155  0.00  0.00    +0.102 A 
ATOM     12  C   UNL     1      33.644 -22.735 -15.838  0.00  0.00    +0.003 C 
ATOM     13  C   UNL     1      32.980 -23.836 -13.751  0.00  0.00    +0.053 A 
ATOM     14  C   UNL     1      31.612 -22.289 -17.235  0.00  0.00    +0.002 C 
ATOM     15  C   UNL     1      30.684 -22.844 -16.326  0.00  0.00    +0.021 C 
ATOM     16  C   UNL     1      34.223 -24.060 -12.994  0.00  0.00    +0.051 C 
ATOM     17  H   UNL     1      31.650 -24.657 -12.396  0.00  0.00    +0.189 HD
ENDBRANCH   2  10
BRANCH   3  18
ATOM     18  O   UNL     1      33.621 -19.656 -21.071  0.00  0.00    -0.476 OA
BRANCH  18  19
ATOM     19  C   UNL     1      34.510 -19.321 -22.138  0.00  0.00    +0.184 C 
BRANCH  19  20
ATOM     20  C   UNL     1      35.064 -17.905 -21.944  0.00  0.00    -0.017 C 
BRANCH  20  21
ATOM     21  N   UNL     1      36.527 -17.969 -21.997  0.00  0.00    +0.384 N 
ATOM     22  H   UNL     1      36.819 -18.923 -22.208  0.00  0.00    -0.089 HD
ATOM     23  H   UNL     1      36.912 -17.687 -21.095  0.00  0.00    -0.089 HD
ATOM     24  H   UNL     1      36.869 -17.340 -22.724  0.00  0.00    -0.089 HD
ENDBRANCH  20  21
BRANCH  20  25
ATOM     25  C   UNL     1      34.585 -16.912 -23.024  0.00  0.00    +0.008 C 
BRANCH  25  26
ATOM     26  C   UNL     1      34.229 -15.540 -22.504  0.00  0.00    -0.024 C 
ATOM     27  C   UNL     1      34.113 -15.340 -21.137  0.00  0.00    -0.004 C 
ATOM     28  C   UNL     1      34.024 -14.504 -23.402  0.00  0.00    -0.004 C 
ATOM     29  C   UNL     1      33.784 -14.074 -20.656  0.00  0.00    -0.000 C 
ATOM     30  C   UNL     1      33.695 -13.237 -22.920  0.00  0.00    -0.000 C 
ATOM     31  C   UNL     1      33.575 -13.021 -21.548  0.00  0.00    -0.000 C 
ENDBRANCH  25  26
ENDBRANCH  20  25
ENDBRANCH  19  20
ENDBRANCH  18  19
ENDBRANCH   3  18
TORSDOF 7
ENDMDL
MODEL 8
REMARK VINA RESULT:     -11.6      3.063      9.654
REMARK  Name = 11314340
REMARK  7 active torsions:
REMARK  status: ('A' for Active; 'I' for Inactive)
REMARK    1  A    between atoms: C_2  and  C_10
REMARK    2  A    between atoms: C_3  and  O_18
REMARK    3  A    between atoms: O_18  and  C_19
REMARK    4  A    between atoms: C_19  and  C_20
REMARK    5  A    between atoms: C_20  and  N_21
REMARK    6  A    between atoms: C_20  and  C_25
REMARK    7  A    between atoms: C_25  and  C_26
REMARK                            x       y       z     vdW  Elec       q    Type
REMARK                         _______ _______ _______ _____ _____    ______ ____
ROOT
ATOM      1  N   UNL     1      36.185 -20.209 -19.428  0.00  0.00    -0.239 NA
ATOM      2  C   UNL     1      34.564 -19.280 -20.953  0.00  0.00    +0.022 C 
ATOM      3  C   UNL     1      33.865 -20.877 -19.306  0.00  0.00    +0.158 C 
ATOM      4  C   UNL     1      33.557 -20.032 -20.367  0.00  0.00    +0.040 C 
ATOM      5  C   UNL     1      35.848 -19.399 -20.457  0.00  0.00    +0.099 C 
ATOM      6  C   UNL     1      35.181 -20.929 -18.878  0.00  0.00    +0.136 C 
ENDROOT
BRANCH   2  10
ATOM      7  N   UNL     1      33.596 -14.709 -24.389  0.00  0.00    -0.280 N 
ATOM      8  N   UNL     1      33.474 -15.822 -25.139  0.00  0.00    -0.173 NA
ATOM      9  C   UNL     1      33.982 -16.294 -22.975  0.00  0.00    +0.032 A 
ATOM     10  C   UNL     1      34.276 -18.390 -22.063  0.00  0.00    +0.002 C 
ATOM     11  C   UNL     1      33.709 -16.835 -24.286  0.00  0.00    +0.102 A 
ATOM     12  C   UNL     1      34.272 -17.004 -21.817  0.00  0.00    +0.003 C 
ATOM     13  C   UNL     1      33.901 -14.935 -23.078  0.00  0.00    +0.053 A 
ATOM     14  C   UNL     1      34.013 -18.975 -23.342  0.00  0.00    +0.002 C 
ATOM     15  C   UNL     1      33.719 -18.224 -24.503  0.00  0.00    +0.021 C 
ATOM     16  C   UNL     1      34.072 -13.833 -22.116  0.00  0.00    +0.051 C 
ATOM     17  H   UNL     1      33.475 -13.804 -24.758  0.00  0.00    +0.189 HD
ENDBRANCH   2  10
BRANCH   3  18
ATOM     18  O   UNL     1      32.904 -21.625 -18.709  0.00  0.00    -0.476 OA
BRANCH  18  19
ATOM     19  C   UNL     1      33.285 -22.913 -18.222  0.00  0.00    +0.184 C 
BRANCH  19  20
ATOM     20  C   UNL     1      32.840 -23.083 -16.765  0.00  0.00    -0.017 C 
BRANCH  20  21
ATOM     21  N   UNL     1      33.884 -22.533 -15.895  0.00  0.00    +0.384 N 
ATOM     22  H   UNL     1      33.936 -21.523 -16.022  0.00  0.00    -0.089 HD
ATOM     23  H   UNL     1      34.782 -22.954 -16.135  0.00  0.00    -0.089 HD
ATOM     24  H   UNL     1      33.660 -22.743 -14.921  0.00  0.00    -0.089 HD
ENDBRANCH  20  21
BRANCH  20  25
ATOM     25  C   UNL     1      31.515 -22.359 -16.445  0.00  0.00    +0.008 C 
BRANCH  25  26
ATOM     26  C   UNL     1      30.511 -23.191 -15.683  0.00  0.00    -0.024 C 
ATOM     27  C   UNL     1      30.935 -23.936 -14.593  0.00  0.00    -0.004 C 
ATOM     28  C   UNL     1      29.185 -23.194 -16.085  0.00  0.00    -0.004 C 
ATOM     29  C   UNL     1      30.009 -24.704 -13.888  0.00  0.00    -0.000 C 
ATOM     30  C   UNL     1      28.259 -23.963 -15.379  0.00  0.00    -0.000 C 
ATOM     31  C   UNL     1      28.670 -24.717 -14.281  0.00  0.00    -0.000 C 
ENDBRANCH  25  26
ENDBRANCH  20  25
ENDBRANCH  19  20
ENDBRANCH  18  19
ENDBRANCH   3  18
TORSDOF 7
ENDMDL
MODEL 9
REMARK VINA RESULT:     -11.6      2.371      9.221
REMARK  Name = 11314340
REMARK  7 active torsions:
REMARK  status: ('A' for Active; 'I' for Inactive)
REMARK    1  A    between atoms: C_2  and  C_10
REMARK    2  A    between atoms: C_3  and  O_18
REMARK    3  A    between atoms: O_18  and  C_19
REMARK    4  A    between atoms: C_19  and  C_20
REMARK    5  A    between atoms: C_20  and  N_21
REMARK    6  A    between atoms: C_20  and  C_25
REMARK    7  A    between atoms: C_25  and  C_26
REMARK                            x       y       z     vdW  Elec       q    Type
REMARK                         _______ _______ _______ _____ _____    ______ ____
ROOT
ATOM      1  N   UNL     1      36.052 -20.702 -19.126  0.00  0.00    -0.239 NA
ATOM      2  C   UNL     1      34.590 -19.486 -20.608  0.00  0.00    +0.022 C 
ATOM      3  C   UNL     1      33.687 -21.198 -19.191  0.00  0.00    +0.158 C 
ATOM      4  C   UNL     1      33.501 -20.219 -20.161  0.00  0.00    +0.040 C 
ATOM      5  C   UNL     1      35.833 -19.759 -20.069  0.00  0.00    +0.099 C 
ATOM      6  C   UNL     1      34.971 -21.399 -18.711  0.00  0.00    +0.136 C 
ENDROOT
BRANCH   2  10
ATOM      7  N   UNL     1      33.951 -14.506 -23.511  0.00  0.00    -0.280 N 
ATOM      8  N   UNL     1      33.975 -15.508 -24.412  0.00  0.00    -0.173 NA
ATOM      9  C   UNL     1      34.191 -16.262 -22.279  0.00  0.00    +0.032 A 
ATOM     10  C   UNL     1      34.429 -18.458 -21.620  0.00  0.00    +0.002 C 
ATOM     11  C   UNL     1      34.124 -16.624 -23.675  0.00  0.00    +0.102 A 
ATOM     12  C   UNL     1      34.342 -17.118 -21.196  0.00  0.00    +0.003 C 
ATOM     13  C   UNL     1      34.077 -14.903 -22.211  0.00  0.00    +0.053 A 
ATOM     14  C   UNL     1      34.368 -18.867 -22.990  0.00  0.00    +0.002 C 
ATOM     15  C   UNL     1      34.214 -17.970 -24.071  0.00  0.00    +0.021 C 
ATOM     16  C   UNL     1      34.073 -13.940 -21.097  0.00  0.00    +0.051 C 
ATOM     17  H   UNL     1      33.851 -13.561 -23.770  0.00  0.00    +0.189 HD
ENDBRANCH   2  10
BRANCH   3  18
ATOM     18  O   UNL     1      32.644 -21.932 -18.731  0.00  0.00    -0.476 OA
BRANCH  18  19
ATOM     19  C   UNL     1      32.924 -22.915 -17.733  0.00  0.00    +0.184 C 
BRANCH  19  20
ATOM     20  C   UNL     1      32.422 -22.442 -16.365  0.00  0.00    -0.017 C 
BRANCH  20  21
ATOM     21  N   UNL     1      30.957 -22.486 -16.369  0.00  0.00    +0.384 N 
ATOM     22  H   UNL     1      30.637 -23.250 -15.775  0.00  0.00    -0.089 HD
ATOM     23  H   UNL     1      30.624 -22.635 -17.323  0.00  0.00    -0.089 HD
ATOM     24  H   UNL     1      30.588 -21.602 -16.015  0.00  0.00    -0.089 HD
ENDBRANCH  20  21
BRANCH  20  25
ATOM     25  C   UNL     1      32.927 -23.314 -15.196  0.00  0.00    +0.008 C 
BRANCH  25  26
ATOM     26  C   UNL     1      34.429 -23.370 -15.057  0.00  0.00    -0.024 C 
ATOM     27  C   UNL     1      35.169 -22.206 -15.199  0.00  0.00    -0.004 C 
ATOM     28  C   UNL     1      35.043 -24.584 -14.789  0.00  0.00    -0.004 C 
ATOM     29  C   UNL     1      36.557 -22.257 -15.070  0.00  0.00    -0.000 C 
ATOM     30  C   UNL     1      36.431 -24.634 -14.660  0.00  0.00    -0.000 C 
ATOM     31  C   UNL     1      37.188 -23.472 -14.801  0.00  0.00    -0.000 C 
ENDBRANCH  25  26
ENDBRANCH  20  25
ENDBRANCH  19  20
ENDBRANCH  18  19
ENDBRANCH   3  18
TORSDOF 7
ENDMDL
