MODEL 1
REMARK VINA RESULT:     -11.5      0.000      0.000
REMARK  Name = 86764100
REMARK  4 active torsions:
REMARK  status: ('A' for Active; 'I' for Inactive)
REMARK    1  A    between atoms: C_1  and  C_12
REMARK    2  A    between atoms: C_5  and  O_19
REMARK    3  A    between atoms: O_19  and  C_21
REMARK    4  A    between atoms: C_22  and  C_29
REMARK                            x       y       z     vdW  Elec       q    Type
REMARK                         _______ _______ _______ _____ _____    ______ ____
ROOT
ATOM      1  C   UNL     1      34.342 -18.334 -21.385  0.00  0.00    +0.012 C 
ATOM      2  C   UNL     1      35.611 -18.860 -21.140  0.00  0.00    -0.017 C 
ATOM      3  C   UNL     1      33.210 -18.995 -20.909  0.00  0.00    +0.004 C 
ATOM      4  C   UNL     1      35.747 -20.046 -20.420  0.00  0.00    +0.033 C 
ATOM      5  C   UNL     1      34.614 -20.707 -19.945  0.00  0.00    +0.147 C 
ATOM      6  C   UNL     1      33.346 -20.182 -20.188  0.00  0.00    +0.038 C 
ATOM      7  C   UNL     1      36.846 -18.178 -21.635  0.00  0.00    +0.031 C 
ENDROOT
BRANCH   1  12
ATOM      8  O   UNL     1      33.700 -16.020 -25.539  0.00  0.00    -0.246 OA
ATOM      9  O   UNL     1      33.958 -13.559 -21.690  0.00  0.00    -0.267 OA
ATOM     10  N   UNL     1      34.012 -17.165 -23.526  0.00  0.00    -0.280 N 
ATOM     11  N   UNL     1      33.831 -14.816 -23.605  0.00  0.00    -0.275 N 
ATOM     12  C   UNL     1      34.165 -17.093 -22.137  0.00  0.00    +0.064 A 
ATOM     13  C   UNL     1      34.156 -15.919 -21.467  0.00  0.00    +0.050 A 
ATOM     14  C   UNL     1      33.839 -16.014 -24.313  0.00  0.00    +0.331 A 
ATOM     15  C   UNL     1      33.975 -14.656 -22.242  0.00  0.00    +0.258 A 
ATOM     16  C   UNL     1      34.032 -18.470 -24.190  0.00  0.00    +0.135 C 
ATOM     17  C   UNL     1      34.312 -15.737 -19.981  0.00  0.00    +0.038 C 
ATOM     18  H   UNL     1      33.710 -13.994 -24.133  0.00  0.00    +0.173 HD
ENDBRANCH   1  12
BRANCH   5  19
ATOM     19  O   UNL     1      34.747 -21.866 -19.242  0.00  0.00    -0.436 OA
BRANCH  19  21
ATOM     20  N   UNL     1      36.411 -21.247 -17.740  0.00  0.00    -0.210 NA
ATOM     21  C   UNL     1      35.181 -21.777 -17.930  0.00  0.00    +0.234 C 
ATOM     22  C   UNL     1      34.362 -22.222 -16.905  0.00  0.00    +0.125 C 
ATOM     23  C   UNL     1      34.835 -22.117 -15.601  0.00  0.00    +0.010 C 
ATOM     24  C   UNL     1      36.095 -21.578 -15.366  0.00  0.00    +0.021 C 
ATOM     25  C   UNL     1      36.836 -21.161 -16.460  0.00  0.00    +0.102 C 
BRANCH  22  29
ATOM     26  F   UNL     1      32.120 -21.897 -17.674  0.00  0.00    -0.166 F 
ATOM     27  F   UNL     1      33.024 -23.829 -18.066  0.00  0.00    -0.166 F 
ATOM     28  F   UNL     1      32.427 -23.303 -16.043  0.00  0.00    -0.166 F 
ATOM     29  C   UNL     1      33.014 -22.799 -17.169  0.00  0.00    +0.423 C 
ENDBRANCH  22  29
ENDBRANCH  19  21
ENDBRANCH   5  19
TORSDOF 4
ENDMDL
MODEL 2
REMARK VINA RESULT:     -11.4      0.523      2.039
REMARK  Name = 86764100
REMARK  4 active torsions:
REMARK  status: ('A' for Active; 'I' for Inactive)
REMARK    1  A    between atoms: C_1  and  C_12
REMARK    2  A    between atoms: C_5  and  O_19
REMARK    3  A    between atoms: O_19  and  C_21
REMARK    4  A    between atoms: C_22  and  C_29
REMARK                            x       y       z     vdW  Elec       q    Type
REMARK                         _______ _______ _______ _____ _____    ______ ____
ROOT
ATOM      1  C   UNL     1      34.350 -18.400 -21.411  0.00  0.00    +0.012 C 
ATOM      2  C   UNL     1      35.622 -18.906 -21.146  0.00  0.00    -0.017 C 
ATOM      3  C   UNL     1      33.220 -19.069 -20.940  0.00  0.00    +0.004 C 
ATOM      4  C   UNL     1      35.765 -20.082 -20.409  0.00  0.00    +0.033 C 
ATOM      5  C   UNL     1      34.636 -20.751 -19.938  0.00  0.00    +0.147 C 
ATOM      6  C   UNL     1      33.363 -20.245 -20.203  0.00  0.00    +0.038 C 
ATOM      7  C   UNL     1      36.855 -18.215 -21.635  0.00  0.00    +0.031 C 
ENDROOT
BRANCH   1  12
ATOM      8  O   UNL     1      34.000 -13.619 -21.633  0.00  0.00    -0.246 OA
ATOM      9  O   UNL     1      33.641 -16.014 -25.516  0.00  0.00    -0.267 OA
ATOM     10  N   UNL     1      34.175 -15.946 -21.504  0.00  0.00    -0.280 N 
ATOM     11  N   UNL     1      33.826 -14.837 -23.555  0.00  0.00    -0.275 N 
ATOM     12  C   UNL     1      34.166 -17.171 -22.181  0.00  0.00    +0.064 A 
ATOM     13  C   UNL     1      33.992 -17.258 -23.518  0.00  0.00    +0.050 A 
ATOM     14  C   UNL     1      34.001 -14.726 -22.179  0.00  0.00    +0.331 A 
ATOM     15  C   UNL     1      33.804 -15.999 -24.298  0.00  0.00    +0.258 A 
ATOM     16  C   UNL     1      34.367 -15.922 -20.053  0.00  0.00    +0.135 C 
ATOM     17  C   UNL     1      33.967 -18.522 -24.335  0.00  0.00    +0.038 C 
ATOM     18  H   UNL     1      33.703 -13.996 -24.051  0.00  0.00    +0.173 HD
ENDBRANCH   1  12
BRANCH   5  19
ATOM     19  O   UNL     1      34.775 -21.899 -19.219  0.00  0.00    -0.436 OA
BRANCH  19  21
ATOM     20  N   UNL     1      36.429 -21.262 -17.714  0.00  0.00    -0.210 NA
ATOM     21  C   UNL     1      35.198 -21.788 -17.905  0.00  0.00    +0.234 C 
ATOM     22  C   UNL     1      34.368 -22.209 -16.879  0.00  0.00    +0.125 C 
ATOM     23  C   UNL     1      34.831 -22.083 -15.573  0.00  0.00    +0.010 C 
ATOM     24  C   UNL     1      36.092 -21.547 -15.338  0.00  0.00    +0.021 C 
ATOM     25  C   UNL     1      36.844 -21.154 -16.432  0.00  0.00    +0.102 C 
BRANCH  22  29
ATOM     26  F   UNL     1      32.132 -21.884 -17.665  0.00  0.00    -0.166 F 
ATOM     27  F   UNL     1      33.030 -23.825 -18.028  0.00  0.00    -0.166 F 
ATOM     28  F   UNL     1      32.423 -23.271 -16.015  0.00  0.00    -0.166 F 
ATOM     29  C   UNL     1      33.019 -22.784 -17.143  0.00  0.00    +0.423 C 
ENDBRANCH  22  29
ENDBRANCH  19  21
ENDBRANCH   5  19
TORSDOF 4
ENDMDL
MODEL 3
REMARK VINA RESULT:     -11.1      1.787      2.264
REMARK  Name = 86764100
REMARK  4 active torsions:
REMARK  status: ('A' for Active; 'I' for Inactive)
REMARK    1  A    between atoms: C_1  and  C_12
REMARK    2  A    between atoms: C_5  and  O_19
REMARK    3  A    between atoms: O_19  and  C_21
REMARK    4  A    between atoms: C_22  and  C_29
REMARK                            x       y       z     vdW  Elec       q    Type
REMARK                         _______ _______ _______ _____ _____    ______ ____
ROOT
ATOM      1  C   UNL     1      34.585 -18.418 -21.340  0.00  0.00    +0.012 C 
ATOM      2  C   UNL     1      35.912 -18.804 -21.157  0.00  0.00    -0.017 C 
ATOM      3  C   UNL     1      33.556 -19.158 -20.756  0.00  0.00    +0.004 C 
ATOM      4  C   UNL     1      36.212 -19.931 -20.391  0.00  0.00    +0.033 C 
ATOM      5  C   UNL     1      35.184 -20.671 -19.808  0.00  0.00    +0.147 C 
ATOM      6  C   UNL     1      33.856 -20.285 -19.989  0.00  0.00    +0.038 C 
ATOM      7  C   UNL     1      37.039 -18.034 -21.768  0.00  0.00    +0.031 C 
ENDROOT
BRANCH   1  12
ATOM      8  O   UNL     1      33.448 -16.411 -25.547  0.00  0.00    -0.246 OA
ATOM      9  O   UNL     1      33.709 -13.726 -21.851  0.00  0.00    -0.267 OA
ATOM     10  N   UNL     1      34.002 -17.407 -23.507  0.00  0.00    -0.280 N 
ATOM     11  N   UNL     1      33.584 -15.094 -23.688  0.00  0.00    -0.275 N 
ATOM     12  C   UNL     1      34.236 -17.244 -22.137  0.00  0.00    +0.064 A 
ATOM     13  C   UNL     1      34.154 -16.040 -21.527  0.00  0.00    +0.050 A 
ATOM     14  C   UNL     1      33.665 -16.323 -24.336  0.00  0.00    +0.331 A 
ATOM     15  C   UNL     1      33.798 -14.846 -22.349  0.00  0.00    +0.258 A 
ATOM     16  C   UNL     1      34.108 -18.739 -24.107  0.00  0.00    +0.135 C 
ATOM     17  C   UNL     1      34.387 -15.762 -20.067  0.00  0.00    +0.038 C 
ATOM     18  H   UNL     1      33.348 -14.318 -24.247  0.00  0.00    +0.173 HD
ENDBRANCH   1  12
BRANCH   5  19
ATOM     19  O   UNL     1      35.476 -21.770 -19.060  0.00  0.00    -0.436 OA
BRANCH  19  21
ATOM     20  N   UNL     1      33.393 -22.472 -18.301  0.00  0.00    -0.210 NA
ATOM     21  C   UNL     1      34.645 -22.063 -17.992  0.00  0.00    +0.234 C 
ATOM     22  C   UNL     1      35.118 -21.926 -16.697  0.00  0.00    +0.125 C 
ATOM     23  C   UNL     1      34.251 -22.228 -15.652  0.00  0.00    +0.010 C 
ATOM     24  C   UNL     1      32.957 -22.652 -15.930  0.00  0.00    +0.021 C 
ATOM     25  C   UNL     1      32.581 -22.758 -17.259  0.00  0.00    +0.102 C 
BRANCH  22  29
ATOM     26  F   UNL     1      37.469 -22.350 -16.820  0.00  0.00    -0.166 F 
ATOM     27  F   UNL     1      36.831 -20.286 -17.011  0.00  0.00    -0.166 F 
ATOM     28  F   UNL     1      36.734 -21.276 -15.078  0.00  0.00    -0.166 F 
ATOM     29  C   UNL     1      36.507 -21.470 -16.411  0.00  0.00    +0.423 C 
ENDBRANCH  22  29
ENDBRANCH  19  21
ENDBRANCH   5  19
TORSDOF 4
ENDMDL
MODEL 4
REMARK VINA RESULT:     -11.1      1.851      3.049
REMARK  Name = 86764100
REMARK  4 active torsions:
REMARK  status: ('A' for Active; 'I' for Inactive)
REMARK    1  A    between atoms: C_1  and  C_12
REMARK    2  A    between atoms: C_5  and  O_19
REMARK    3  A    between atoms: O_19  and  C_21
REMARK    4  A    between atoms: C_22  and  C_29
REMARK                            x       y       z     vdW  Elec       q    Type
REMARK                         _______ _______ _______ _____ _____    ______ ____
ROOT
ATOM      1  C   UNL     1      34.614 -18.426 -21.378  0.00  0.00    +0.012 C 
ATOM      2  C   UNL     1      35.948 -18.789 -21.194  0.00  0.00    -0.017 C 
ATOM      3  C   UNL     1      33.599 -19.168 -20.772  0.00  0.00    +0.004 C 
ATOM      4  C   UNL     1      36.268 -19.894 -20.406  0.00  0.00    +0.033 C 
ATOM      5  C   UNL     1      35.254 -20.636 -19.801  0.00  0.00    +0.147 C 
ATOM      6  C   UNL     1      33.920 -20.274 -19.983  0.00  0.00    +0.038 C 
ATOM      7  C   UNL     1      37.061 -18.017 -21.828  0.00  0.00    +0.031 C 
ENDROOT
BRANCH   1  12
ATOM      8  O   UNL     1      33.737 -13.731 -21.838  0.00  0.00    -0.246 OA
ATOM      9  O   UNL     1      33.364 -16.392 -25.542  0.00  0.00    -0.267 OA
ATOM     10  N   UNL     1      34.169 -16.015 -21.594  0.00  0.00    -0.280 N 
ATOM     11  N   UNL     1      33.559 -15.080 -23.670  0.00  0.00    -0.275 N 
ATOM     12  C   UNL     1      34.245 -17.275 -22.198  0.00  0.00    +0.064 A 
ATOM     13  C   UNL     1      33.987 -17.464 -23.511  0.00  0.00    +0.050 A 
ATOM     14  C   UNL     1      33.819 -14.864 -22.320  0.00  0.00    +0.331 A 
ATOM     15  C   UNL     1      33.610 -16.283 -24.343  0.00  0.00    +0.258 A 
ATOM     16  C   UNL     1      34.459 -15.878 -20.165  0.00  0.00    +0.135 C 
ATOM     17  C   UNL     1      34.041 -18.773 -24.252  0.00  0.00    +0.038 C 
ATOM     18  H   UNL     1      33.312 -14.289 -24.202  0.00  0.00    +0.173 HD
ENDBRANCH   1  12
BRANCH   5  19
ATOM     19  O   UNL     1      35.566 -21.715 -19.031  0.00  0.00    -0.436 OA
BRANCH  19  21
ATOM     20  N   UNL     1      33.468 -22.463 -18.366  0.00  0.00    -0.210 NA
ATOM     21  C   UNL     1      34.701 -22.044 -18.002  0.00  0.00    +0.234 C 
ATOM     22  C   UNL     1      35.125 -21.933 -16.688  0.00  0.00    +0.125 C 
ATOM     23  C   UNL     1      34.226 -22.271 -15.682  0.00  0.00    +0.010 C 
ATOM     24  C   UNL     1      32.948 -22.706 -16.017  0.00  0.00    +0.021 C 
ATOM     25  C   UNL     1      32.622 -22.784 -17.361  0.00  0.00    +0.102 C 
BRANCH  22  29
ATOM     26  F   UNL     1      37.488 -22.301 -16.774  0.00  0.00    -0.166 F 
ATOM     27  F   UNL     1      36.809 -20.243 -16.863  0.00  0.00    -0.166 F 
ATOM     28  F   UNL     1      36.687 -21.346 -14.993  0.00  0.00    -0.166 F 
ATOM     29  C   UNL     1      36.496 -21.466 -16.340  0.00  0.00    +0.423 C 
ENDBRANCH  22  29
ENDBRANCH  19  21
ENDBRANCH   5  19
TORSDOF 4
ENDMDL
MODEL 5
REMARK VINA RESULT:     -10.5      7.313     11.670
REMARK  Name = 86764100
REMARK  4 active torsions:
REMARK  status: ('A' for Active; 'I' for Inactive)
REMARK    1  A    between atoms: C_1  and  C_12
REMARK    2  A    between atoms: C_5  and  O_19
REMARK    3  A    between atoms: O_19  and  C_21
REMARK    4  A    between atoms: C_22  and  C_29
REMARK                            x       y       z     vdW  Elec       q    Type
REMARK                         _______ _______ _______ _____ _____    ______ ____
ROOT
ATOM      1  C   UNL     1      32.316 -11.922 -22.609  0.00  0.00    +0.012 C 
ATOM      2  C   UNL     1      32.862 -10.738 -23.106  0.00  0.00    -0.017 C 
ATOM      3  C   UNL     1      31.160 -11.884 -21.830  0.00  0.00    +0.004 C 
ATOM      4  C   UNL     1      32.251  -9.516 -22.824  0.00  0.00    +0.033 C 
ATOM      5  C   UNL     1      31.094  -9.478 -22.045  0.00  0.00    +0.147 C 
ATOM      6  C   UNL     1      30.548 -10.661 -21.548  0.00  0.00    +0.038 C 
ATOM      7  C   UNL     1      34.100 -10.741 -23.944  0.00  0.00    +0.031 C 
ENDROOT
BRANCH   1  12
ATOM      8  O   UNL     1      33.408 -15.467 -25.653  0.00  0.00    -0.246 OA
ATOM      9  O   UNL     1      34.737 -15.852 -21.291  0.00  0.00    -0.267 OA
ATOM     10  N   UNL     1      32.868 -13.730 -24.186  0.00  0.00    -0.280 N 
ATOM     11  N   UNL     1      34.060 -15.634 -23.472  0.00  0.00    -0.275 N 
ATOM     12  C   UNL     1      32.932 -13.218 -22.885  0.00  0.00    +0.064 A 
ATOM     13  C   UNL     1      33.542 -13.880 -21.877  0.00  0.00    +0.050 A 
ATOM     14  C   UNL     1      33.436 -14.970 -24.524  0.00  0.00    +0.331 A 
ATOM     15  C   UNL     1      34.169 -15.203 -22.166  0.00  0.00    +0.258 A 
ATOM     16  C   UNL     1      32.190 -12.962 -25.234  0.00  0.00    +0.135 C 
ATOM     17  C   UNL     1      33.664 -13.416 -20.450  0.00  0.00    +0.038 C 
ATOM     18  H   UNL     1      34.467 -16.505 -23.683  0.00  0.00    +0.173 HD
ENDBRANCH   1  12
BRANCH   5  19
ATOM     19  O   UNL     1      30.498  -8.286 -21.770  0.00  0.00    -0.436 OA
BRANCH  19  21
ATOM     20  N   UNL     1      30.933  -6.901 -23.586  0.00  0.00    -0.210 NA
ATOM     21  C   UNL     1      31.094  -7.138 -22.265  0.00  0.00    +0.234 C 
ATOM     22  C   UNL     1      31.805  -6.312 -21.410  0.00  0.00    +0.125 C 
ATOM     23  C   UNL     1      32.391  -5.169 -21.946  0.00  0.00    +0.010 C 
ATOM     24  C   UNL     1      32.247  -4.892 -23.301  0.00  0.00    +0.021 C 
ATOM     25  C   UNL     1      31.515  -5.781 -24.071  0.00  0.00    +0.102 C 
BRANCH  22  29
ATOM     26  F   UNL     1      30.762  -6.743 -19.301  0.00  0.00    -0.166 F 
ATOM     27  F   UNL     1      32.620  -7.786 -19.711  0.00  0.00    -0.166 F 
ATOM     28  F   UNL     1      32.644  -5.654 -19.284  0.00  0.00    -0.166 F 
ATOM     29  C   UNL     1      31.953  -6.619 -19.960  0.00  0.00    +0.423 C 
ENDBRANCH  22  29
ENDBRANCH  19  21
ENDBRANCH   5  19
TORSDOF 4
ENDMDL
MODEL 6
REMARK VINA RESULT:     -10.2      7.126     11.158
REMARK  Name = 86764100
REMARK  4 active torsions:
REMARK  status: ('A' for Active; 'I' for Inactive)
REMARK    1  A    between atoms: C_1  and  C_12
REMARK    2  A    between atoms: C_5  and  O_19
REMARK    3  A    between atoms: O_19  and  C_21
REMARK    4  A    between atoms: C_22  and  C_29
REMARK                            x       y       z     vdW  Elec       q    Type
REMARK                         _______ _______ _______ _____ _____    ______ ____
ROOT
ATOM      1  C   UNL     1      33.003 -12.761 -22.832  0.00  0.00    +0.012 C 
ATOM      2  C   UNL     1      32.028 -12.313 -21.941  0.00  0.00    -0.017 C 
ATOM      3  C   UNL     1      33.533 -11.889 -23.783  0.00  0.00    +0.004 C 
ATOM      4  C   UNL     1      31.584 -10.992 -22.000  0.00  0.00    +0.033 C 
ATOM      5  C   UNL     1      32.114 -10.120 -22.951  0.00  0.00    +0.147 C 
ATOM      6  C   UNL     1      33.088 -10.568 -23.843  0.00  0.00    +0.038 C 
ATOM      7  C   UNL     1      31.439 -13.220 -20.908  0.00  0.00    +0.031 C 
ENDROOT
BRANCH   1  12
ATOM      8  O   UNL     1      33.857 -16.948 -25.016  0.00  0.00    -0.246 OA
ATOM      9  O   UNL     1      34.920 -16.544 -20.583  0.00  0.00    -0.267 OA
ATOM     10  N   UNL     1      33.434 -14.901 -23.971  0.00  0.00    -0.280 N 
ATOM     11  N   UNL     1      34.378 -16.720 -22.806  0.00  0.00    -0.275 N 
ATOM     12  C   UNL     1      33.489 -14.139 -22.798  0.00  0.00    +0.064 A 
ATOM     13  C   UNL     1      33.973 -14.632 -21.637  0.00  0.00    +0.050 A 
ATOM     14  C   UNL     1      33.882 -16.233 -24.011  0.00  0.00    +0.331 A 
ATOM     15  C   UNL     1      34.469 -16.040 -21.609  0.00  0.00    +0.258 A 
ATOM     16  C   UNL     1      32.896 -14.307 -25.196  0.00  0.00    +0.135 C 
ATOM     17  C   UNL     1      34.075 -13.896 -20.327  0.00  0.00    +0.038 C 
ATOM     18  H   UNL     1      34.700 -17.650 -22.808  0.00  0.00    +0.173 HD
ENDBRANCH   1  12
BRANCH   5  19
ATOM     19  O   UNL     1      31.680  -8.831 -23.009  0.00  0.00    -0.436 OA
BRANCH  19  21
ATOM     20  N   UNL     1      31.229  -8.275 -20.797  0.00  0.00    -0.210 NA
ATOM     21  C   UNL     1      31.937  -8.015 -21.920  0.00  0.00    +0.234 C 
ATOM     22  C   UNL     1      32.876  -7.003 -22.027  0.00  0.00    +0.125 C 
ATOM     23  C   UNL     1      33.104  -6.204 -20.911  0.00  0.00    +0.010 C 
ATOM     24  C   UNL     1      32.396  -6.441 -19.738  0.00  0.00    +0.021 C 
ATOM     25  C   UNL     1      31.479  -7.479 -19.733  0.00  0.00    +0.102 C 
BRANCH  22  29
ATOM     26  F   UNL     1      34.593  -7.694 -23.544  0.00  0.00    -0.166 F 
ATOM     27  F   UNL     1      32.841  -6.748 -24.405  0.00  0.00    -0.166 F 
ATOM     28  F   UNL     1      34.280  -5.557 -23.291  0.00  0.00    -0.166 F 
ATOM     29  C   UNL     1      33.629  -6.759 -23.289  0.00  0.00    +0.423 C 
ENDBRANCH  22  29
ENDBRANCH  19  21
ENDBRANCH   5  19
TORSDOF 4
ENDMDL
MODEL 7
REMARK VINA RESULT:     -10.2      7.383     11.870
REMARK  Name = 86764100
REMARK  4 active torsions:
REMARK  status: ('A' for Active; 'I' for Inactive)
REMARK    1  A    between atoms: C_1  and  C_12
REMARK    2  A    between atoms: C_5  and  O_19
REMARK    3  A    between atoms: O_19  and  C_21
REMARK    4  A    between atoms: C_22  and  C_29
REMARK                            x       y       z     vdW  Elec       q    Type
REMARK                         _______ _______ _______ _____ _____    ______ ____
ROOT
ATOM      1  C   UNL     1      32.280 -11.843 -22.658  0.00  0.00    +0.012 C 
ATOM      2  C   UNL     1      32.849 -10.654 -23.115  0.00  0.00    -0.017 C 
ATOM      3  C   UNL     1      31.106 -11.810 -21.906  0.00  0.00    +0.004 C 
ATOM      4  C   UNL     1      32.244  -9.432 -22.819  0.00  0.00    +0.033 C 
ATOM      5  C   UNL     1      31.070  -9.400 -22.067  0.00  0.00    +0.147 C 
ATOM      6  C   UNL     1      30.500 -10.588 -21.611  0.00  0.00    +0.038 C 
ATOM      7  C   UNL     1      34.107 -10.651 -23.923  0.00  0.00    +0.031 C 
ENDROOT
BRANCH   1  12
ATOM      8  O   UNL     1      34.659 -15.758 -21.230  0.00  0.00    -0.246 OA
ATOM      9  O   UNL     1      33.463 -15.419 -25.634  0.00  0.00    -0.267 OA
ATOM     10  N   UNL     1      33.500 -13.844 -21.905  0.00  0.00    -0.280 N 
ATOM     11  N   UNL     1      34.050 -15.565 -23.420  0.00  0.00    -0.275 N 
ATOM     12  C   UNL     1      32.890 -13.139 -22.949  0.00  0.00    +0.064 A 
ATOM     13  C   UNL     1      32.846 -13.612 -24.214  0.00  0.00    +0.050 A 
ATOM     14  C   UNL     1      34.107 -15.095 -22.112  0.00  0.00    +0.331 A 
ATOM     15  C   UNL     1      33.471 -14.937 -24.503  0.00  0.00    +0.258 A 
ATOM     16  C   UNL     1      33.514 -13.274 -20.557  0.00  0.00    +0.135 C 
ATOM     17  C   UNL     1      32.216 -12.933 -25.400  0.00  0.00    +0.038 C 
ATOM     18  H   UNL     1      34.467 -16.440 -23.591  0.00  0.00    +0.173 HD
ENDBRANCH   1  12
BRANCH   5  19
ATOM     19  O   UNL     1      30.479  -8.208 -21.779  0.00  0.00    -0.436 OA
BRANCH  19  21
ATOM     20  N   UNL     1      30.899  -6.812 -23.590  0.00  0.00    -0.210 NA
ATOM     21  C   UNL     1      31.073  -7.059 -22.272  0.00  0.00    +0.234 C 
ATOM     22  C   UNL     1      31.796  -6.241 -21.419  0.00  0.00    +0.125 C 
ATOM     23  C   UNL     1      32.379  -5.096 -21.953  0.00  0.00    +0.010 C 
ATOM     24  C   UNL     1      32.222  -4.809 -23.304  0.00  0.00    +0.021 C 
ATOM     25  C   UNL     1      31.479  -5.690 -24.073  0.00  0.00    +0.102 C 
BRANCH  22  29
ATOM     26  F   UNL     1      30.774  -6.718 -19.309  0.00  0.00    -0.166 F 
ATOM     27  F   UNL     1      32.654  -7.711 -19.738  0.00  0.00    -0.166 F 
ATOM     28  F   UNL     1      32.628  -5.583 -19.290  0.00  0.00    -0.166 F 
ATOM     29  C   UNL     1      31.958  -6.558 -19.973  0.00  0.00    +0.423 C 
ENDBRANCH  22  29
ENDBRANCH  19  21
ENDBRANCH   5  19
TORSDOF 4
ENDMDL
MODEL 8
REMARK VINA RESULT:      -9.9      6.862     10.506
REMARK  Name = 86764100
REMARK  4 active torsions:
REMARK  status: ('A' for Active; 'I' for Inactive)
REMARK    1  A    between atoms: C_1  and  C_12
REMARK    2  A    between atoms: C_5  and  O_19
REMARK    3  A    between atoms: O_19  and  C_21
REMARK    4  A    between atoms: C_22  and  C_29
REMARK                            x       y       z     vdW  Elec       q    Type
REMARK                         _______ _______ _______ _____ _____    ______ ____
ROOT
ATOM      1  C   UNL     1      31.585  -8.559 -22.434  0.00  0.00    +0.012 C 
ATOM      2  C   UNL     1      32.680  -9.299 -22.880  0.00  0.00    -0.017 C 
ATOM      3  C   UNL     1      30.487  -9.210 -21.871  0.00  0.00    +0.004 C 
ATOM      4  C   UNL     1      32.678 -10.689 -22.764  0.00  0.00    +0.033 C 
ATOM      5  C   UNL     1      31.579 -11.339 -22.201  0.00  0.00    +0.147 C 
ATOM      6  C   UNL     1      30.484 -10.600 -21.755  0.00  0.00    +0.038 C 
ATOM      7  C   UNL     1      33.874  -8.634 -23.488  0.00  0.00    +0.031 C 
ENDROOT
BRANCH   1  12
ATOM      8  O   UNL     1      32.190  -4.211 -20.498  0.00  0.00    -0.246 OA
ATOM      9  O   UNL     1      30.846  -4.486 -24.863  0.00  0.00    -0.267 OA
ATOM     10  N   UNL     1      31.902  -6.337 -21.423  0.00  0.00    -0.280 N 
ATOM     11  N   UNL     1      31.521  -4.376 -22.673  0.00  0.00    -0.275 N 
ATOM     12  C   UNL     1      31.555  -7.102 -22.543  0.00  0.00    +0.064 A 
ATOM     13  C   UNL     1      31.194  -6.542 -23.718  0.00  0.00    +0.050 A 
ATOM     14  C   UNL     1      31.894  -4.932 -21.454  0.00  0.00    +0.331 A 
ATOM     15  C   UNL     1      31.166  -5.053 -23.821  0.00  0.00    +0.258 A 
ATOM     16  C   UNL     1      32.283  -7.008 -20.178  0.00  0.00    +0.135 C 
ATOM     17  C   UNL     1      30.806  -7.274 -24.974  0.00  0.00    +0.038 C 
ATOM     18  H   UNL     1      31.509  -3.392 -22.721  0.00  0.00    +0.173 HD
ENDBRANCH   1  12
BRANCH   5  19
ATOM     19  O   UNL     1      31.577 -12.696 -22.087  0.00  0.00    -0.436 OA
BRANCH  19  21
ATOM     20  N   UNL     1      32.302 -13.322 -24.206  0.00  0.00    -0.210 NA
ATOM     21  C   UNL     1      32.471 -13.409 -22.867  0.00  0.00    +0.234 C 
ATOM     22  C   UNL     1      33.467 -14.155 -22.259  0.00  0.00    +0.125 C 
ATOM     23  C   UNL     1      34.346 -14.859 -23.076  0.00  0.00    +0.010 C 
ATOM     24  C   UNL     1      34.203 -14.794 -24.458  0.00  0.00    +0.021 C 
ATOM     25  C   UNL     1      33.175 -14.018 -24.968  0.00  0.00    +0.102 C 
BRANCH  22  29
ATOM     26  F   UNL     1      32.420 -14.176 -20.108  0.00  0.00    -0.166 F 
ATOM     27  F   UNL     1      34.228 -15.353 -20.333  0.00  0.00    -0.166 F 
ATOM     28  F   UNL     1      34.347 -13.183 -20.274  0.00  0.00    -0.166 F 
ATOM     29  C   UNL     1      33.611 -14.218 -20.777  0.00  0.00    +0.423 C 
ENDBRANCH  22  29
ENDBRANCH  19  21
ENDBRANCH   5  19
TORSDOF 4
ENDMDL
MODEL 9
REMARK VINA RESULT:      -9.8      7.056     10.350
REMARK  Name = 86764100
REMARK  4 active torsions:
REMARK  status: ('A' for Active; 'I' for Inactive)
REMARK    1  A    between atoms: C_1  and  C_12
REMARK    2  A    between atoms: C_5  and  O_19
REMARK    3  A    between atoms: O_19  and  C_21
REMARK    4  A    between atoms: C_22  and  C_29
REMARK                            x       y       z     vdW  Elec       q    Type
REMARK                         _______ _______ _______ _____ _____    ______ ____
ROOT
ATOM      1  C   UNL     1      31.972  -8.560 -22.681  0.00  0.00    +0.012 C 
ATOM      2  C   UNL     1      33.228  -8.780 -23.247  0.00  0.00    -0.017 C 
ATOM      3  C   UNL     1      31.095  -9.628 -22.492  0.00  0.00    +0.004 C 
ATOM      4  C   UNL     1      33.606 -10.068 -23.624  0.00  0.00    +0.033 C 
ATOM      5  C   UNL     1      32.729 -11.137 -23.435  0.00  0.00    +0.147 C 
ATOM      6  C   UNL     1      31.474 -10.917 -22.870  0.00  0.00    +0.038 C 
ATOM      7  C   UNL     1      34.193  -7.659 -23.464  0.00  0.00    +0.031 C 
ENDROOT
BRANCH   1  12
ATOM      8  O   UNL     1      30.049  -4.291 -23.730  0.00  0.00    -0.246 OA
ATOM      9  O   UNL     1      31.387  -5.081 -19.426  0.00  0.00    -0.267 OA
ATOM     10  N   UNL     1      30.982  -6.376 -23.239  0.00  0.00    -0.280 N 
ATOM     11  N   UNL     1      30.723  -4.711 -21.591  0.00  0.00    -0.275 N 
ATOM     12  C   UNL     1      31.544  -7.223 -22.276  0.00  0.00    +0.064 A 
ATOM     13  C   UNL     1      31.705  -6.847 -20.988  0.00  0.00    +0.050 A 
ATOM     14  C   UNL     1      30.550  -5.077 -22.922  0.00  0.00    +0.331 A 
ATOM     15  C   UNL     1      31.266  -5.479 -20.582  0.00  0.00    +0.258 A 
ATOM     16  C   UNL     1      30.836  -6.845 -24.619  0.00  0.00    +0.135 C 
ATOM     17  C   UNL     1      32.296  -7.680 -19.883  0.00  0.00    +0.038 C 
ATOM     18  H   UNL     1      30.428  -3.805 -21.343  0.00  0.00    +0.173 HD
ENDBRANCH   1  12
BRANCH   5  19
ATOM     19  O   UNL     1      33.099 -12.394 -23.804  0.00  0.00    -0.436 OA
BRANCH  19  21
ATOM     20  N   UNL     1      33.502 -12.783 -21.547  0.00  0.00    -0.210 NA
ATOM     21  C   UNL     1      33.434 -13.287 -22.800  0.00  0.00    +0.234 C 
ATOM     22  C   UNL     1      33.677 -14.614 -23.115  0.00  0.00    +0.125 C 
ATOM     23  C   UNL     1      34.013 -15.479 -22.079  0.00  0.00    +0.010 C 
ATOM     24  C   UNL     1      34.092 -14.997 -20.777  0.00  0.00    +0.021 C 
ATOM     25  C   UNL     1      33.829 -13.653 -20.566  0.00  0.00    +0.102 C 
BRANCH  22  29
ATOM     26  F   UNL     1      32.759 -16.195 -24.658  0.00  0.00    -0.166 F 
ATOM     27  F   UNL     1      33.127 -14.192 -25.405  0.00  0.00    -0.166 F 
ATOM     28  F   UNL     1      34.798 -15.524 -25.005  0.00  0.00    -0.166 F 
ATOM     29  C   UNL     1      33.590 -15.119 -24.514  0.00  0.00    +0.423 C 
ENDBRANCH  22  29
ENDBRANCH  19  21
ENDBRANCH   5  19
TORSDOF 4
ENDMDL
