MODEL 1
REMARK VINA RESULT:     -11.7      0.000      0.000
REMARK  Name = 5328969
REMARK  5 active torsions:
REMARK  status: ('A' for Active; 'I' for Inactive)
REMARK    1  A    between atoms: N_1  and  C_14
REMARK    2  A    between atoms: C_7  and  N_21
REMARK    3  A    between atoms: C_22  and  C_25
REMARK    4  A    between atoms: C_24  and  C_26
REMARK    5  A    between atoms: C_26  and  N_27
REMARK                            x       y       z     vdW  Elec       q    Type
REMARK                         _______ _______ _______ _____ _____    ______ ____
ROOT
ATOM      1  N   UNL     1      32.373 -22.757 -14.714  0.00  0.00    -0.301 N 
ATOM      2  N   UNL     1      35.835 -23.930 -12.771  0.00  0.00    -0.248 NA
ATOM      3  N   UNL     1      33.432 -23.810 -12.895  0.00  0.00    -0.233 NA
ATOM      4  C   UNL     1      34.797 -22.848 -14.643  0.00  0.00    +0.117 C 
ATOM      5  C   UNL     1      35.936 -23.271 -13.939  0.00  0.00    +0.067 C 
ATOM      6  C   UNL     1      33.568 -23.152 -14.062  0.00  0.00    +0.115 C 
ATOM      7  C   UNL     1      36.173 -21.886 -16.389  0.00  0.00    +0.047 C 
ATOM      8  C   UNL     1      34.914 -22.159 -15.862  0.00  0.00    +0.001 C 
ATOM      9  C   UNL     1      37.184 -22.984 -14.489  0.00  0.00    +0.016 C 
ATOM     10  C   UNL     1      37.309 -22.299 -15.701  0.00  0.00    +0.016 C 
ATOM     11  C   UNL     1      34.589 -24.163 -12.313  0.00  0.00    +0.251 C 
ATOM     12  H   UNL     1      32.467 -21.937 -15.251  0.00  0.00    +0.153 HD
ENDROOT
BRANCH   1  14
ATOM     13 BR   UNL     1      27.421 -22.405 -16.509  0.00  0.00    -0.049 Br
ATOM     14  C   UNL     1      31.084 -23.309 -14.742  0.00  0.00    +0.050 C 
ATOM     15  C   UNL     1      30.069 -22.693 -15.481  0.00  0.00    +0.021 C 
ATOM     16  C   UNL     1      30.805 -24.481 -14.032  0.00  0.00    +0.015 C 
ATOM     17  C   UNL     1      28.787 -23.243 -15.510  0.00  0.00    +0.036 C 
ATOM     18  C   UNL     1      29.523 -25.032 -14.061  0.00  0.00    +0.002 C 
ATOM     19  C   UNL     1      28.515 -24.412 -14.798  0.00  0.00    +0.007 C 
ENDBRANCH   1  14
BRANCH   7  21
ATOM     20  O   UNL     1      34.532 -22.066 -18.897  0.00  0.00    -0.270 OA
ATOM     21  N   UNL     1      36.296 -21.204 -17.599  0.00  0.00    -0.281 N 
ATOM     22  C   UNL     1      35.498 -21.327 -18.745  0.00  0.00    +0.249 C 
ATOM     23  H   UNL     1      37.036 -20.556 -17.656  0.00  0.00    +0.155 HD
BRANCH  22  25
ATOM     24  C   UNL     1      35.078 -19.671 -20.518  0.00  0.00    -0.044 C 
ATOM     25  C   UNL     1      35.958 -20.418 -19.838  0.00  0.00    +0.051 C 
BRANCH  24  26
ATOM     26  C   UNL     1      35.474 -18.733 -21.619  0.00  0.00    -0.050 C 
BRANCH  26  27
ATOM     27  N   UNL     1      34.334 -17.963 -22.104  0.00  0.00    +0.387 N 
ATOM     28  C   UNL     1      33.792 -18.560 -23.326  0.00  0.00    -0.100 C 
ATOM     29  C   UNL     1      34.717 -16.572 -22.344  0.00  0.00    -0.100 C 
ATOM     30  H   UNL     1      33.608 -17.980 -21.387  0.00  0.00    -0.079 HD
ENDBRANCH  26  27
ENDBRANCH  24  26
ENDBRANCH  22  25
ENDBRANCH   7  21
TORSDOF 5
ENDMDL
MODEL 2
REMARK VINA RESULT:     -11.6      3.082      5.327
REMARK  Name = 5328969
REMARK  5 active torsions:
REMARK  status: ('A' for Active; 'I' for Inactive)
REMARK    1  A    between atoms: N_1  and  C_14
REMARK    2  A    between atoms: C_7  and  N_21
REMARK    3  A    between atoms: C_22  and  C_25
REMARK    4  A    between atoms: C_24  and  C_26
REMARK    5  A    between atoms: C_26  and  N_27
REMARK                            x       y       z     vdW  Elec       q    Type
REMARK                         _______ _______ _______ _____ _____    ______ ____
ROOT
ATOM      1  N   UNL     1      33.911 -23.992 -14.222  0.00  0.00    -0.301 N 
ATOM      2  N   UNL     1      29.828 -24.196 -13.575  0.00  0.00    -0.248 NA
ATOM      3  N   UNL     1      32.089 -24.714 -12.921  0.00  0.00    -0.233 NA
ATOM      4  C   UNL     1      31.657 -23.440 -14.930  0.00  0.00    +0.117 C 
ATOM      5  C   UNL     1      30.283 -23.542 -14.658  0.00  0.00    +0.067 C 
ATOM      6  C   UNL     1      32.510 -24.052 -14.015  0.00  0.00    +0.115 C 
ATOM      7  C   UNL     1      31.215 -22.164 -16.941  0.00  0.00    +0.047 C 
ATOM      8  C   UNL     1      32.121 -22.754 -16.066  0.00  0.00    +0.001 C 
ATOM      9  C   UNL     1      29.398 -22.942 -15.551  0.00  0.00    +0.016 C 
ATOM     10  C   UNL     1      29.851 -22.258 -16.683  0.00  0.00    +0.016 C 
ATOM     11  C   UNL     1      30.756 -24.746 -12.766  0.00  0.00    +0.251 C 
ATOM     12  H   UNL     1      34.171 -23.943 -15.171  0.00  0.00    +0.153 HD
ENDROOT
BRANCH   1  14
ATOM     13 BR   UNL     1      39.010 -25.112 -13.432  0.00  0.00    -0.049 Br
ATOM     14  C   UNL     1      35.000 -23.986 -13.337  0.00  0.00    +0.050 C 
ATOM     15  C   UNL     1      36.247 -24.467 -13.749  0.00  0.00    +0.021 C 
ATOM     16  C   UNL     1      34.845 -23.500 -12.035  0.00  0.00    +0.015 C 
ATOM     17  C   UNL     1      37.328 -24.461 -12.868  0.00  0.00    +0.036 C 
ATOM     18  C   UNL     1      35.927 -23.493 -11.154  0.00  0.00    +0.002 C 
ATOM     19  C   UNL     1      37.168 -23.975 -11.570  0.00  0.00    +0.007 C 
ENDBRANCH   1  14
BRANCH   7  21
ATOM     20  O   UNL     1      33.772 -22.449 -18.487  0.00  0.00    -0.270 OA
ATOM     21  N   UNL     1      31.669 -21.480 -18.068  0.00  0.00    -0.281 N 
ATOM     22  C   UNL     1      32.879 -21.654 -18.756  0.00  0.00    +0.249 C 
ATOM     23  H   UNL     1      31.065 -20.790 -18.427  0.00  0.00    +0.155 HD
BRANCH  22  25
ATOM     24  C   UNL     1      34.131 -20.060 -20.151  0.00  0.00    -0.044 C 
ATOM     25  C   UNL     1      32.991 -20.725 -19.919  0.00  0.00    +0.051 C 
BRANCH  24  26
ATOM     26  C   UNL     1      34.312 -19.120 -21.306  0.00  0.00    -0.050 C 
BRANCH  26  27
ATOM     27  N   UNL     1      35.206 -18.019 -20.964  0.00  0.00    +0.387 N 
ATOM     28  C   UNL     1      34.741 -16.771 -21.572  0.00  0.00    -0.100 C 
ATOM     29  C   UNL     1      36.574 -18.314 -21.393  0.00  0.00    -0.100 C 
ATOM     30  H   UNL     1      35.203 -17.905 -19.950  0.00  0.00    -0.079 HD
ENDBRANCH  26  27
ENDBRANCH  24  26
ENDBRANCH  22  25
ENDBRANCH   7  21
TORSDOF 5
ENDMDL
MODEL 3
REMARK VINA RESULT:     -10.5      2.741      4.991
REMARK  Name = 5328969
REMARK  5 active torsions:
REMARK  status: ('A' for Active; 'I' for Inactive)
REMARK    1  A    between atoms: N_1  and  C_14
REMARK    2  A    between atoms: C_7  and  N_21
REMARK    3  A    between atoms: C_22  and  C_25
REMARK    4  A    between atoms: C_24  and  C_26
REMARK    5  A    between atoms: C_26  and  N_27
REMARK                            x       y       z     vdW  Elec       q    Type
REMARK                         _______ _______ _______ _____ _____    ______ ____
ROOT
ATOM      1  N   UNL     1      35.090 -23.903 -15.088  0.00  0.00    -0.301 N 
ATOM      2  N   UNL     1      30.989 -23.361 -15.237  0.00  0.00    -0.248 NA
ATOM      3  N   UNL     1      32.954 -24.259 -14.169  0.00  0.00    -0.233 NA
ATOM      4  C   UNL     1      33.149 -22.974 -16.207  0.00  0.00    +0.117 C 
ATOM      5  C   UNL     1      31.753 -22.823 -16.205  0.00  0.00    +0.067 C 
ATOM      6  C   UNL     1      33.688 -23.707 -15.154  0.00  0.00    +0.115 C 
ATOM      7  C   UNL     1      33.334 -21.685 -18.250  0.00  0.00    +0.047 C 
ATOM      8  C   UNL     1      33.936 -22.407 -17.224  0.00  0.00    +0.001 C 
ATOM      9  C   UNL     1      31.176 -22.095 -17.244  0.00  0.00    +0.016 C 
ATOM     10  C   UNL     1      31.952 -21.529 -18.260  0.00  0.00    +0.016 C 
ATOM     11  C   UNL     1      31.632 -24.049 -14.273  0.00  0.00    +0.251 C 
ATOM     12  H   UNL     1      35.530 -23.922 -15.968  0.00  0.00    +0.153 HD
ENDROOT
BRANCH   1  14
ATOM     13 BR   UNL     1      35.835 -23.659  -9.866  0.00  0.00    -0.049 Br
ATOM     14  C   UNL     1      35.973 -24.072 -14.010  0.00  0.00    +0.050 C 
ATOM     15  C   UNL     1      35.544 -23.825 -12.702  0.00  0.00    +0.021 C 
ATOM     16  C   UNL     1      37.288 -24.489 -14.237  0.00  0.00    +0.015 C 
ATOM     17  C   UNL     1      36.421 -23.995 -11.631  0.00  0.00    +0.036 C 
ATOM     18  C   UNL     1      38.165 -24.659 -13.166  0.00  0.00    +0.002 C 
ATOM     19  C   UNL     1      37.733 -24.410 -11.863  0.00  0.00    +0.007 C 
ENDBRANCH   1  14
BRANCH   7  21
ATOM     20  O   UNL     1      36.162 -20.678 -18.197  0.00  0.00    -0.270 OA
ATOM     21  N   UNL     1      34.110 -21.119 -19.261  0.00  0.00    -0.281 N 
ATOM     22  C   UNL     1      35.434 -20.663 -19.183  0.00  0.00    +0.249 C 
ATOM     23  H   UNL     1      33.674 -21.028 -20.140  0.00  0.00    +0.155 HD
BRANCH  22  25
ATOM     24  C   UNL     1      35.752 -18.826 -20.789  0.00  0.00    -0.044 C 
ATOM     25  C   UNL     1      35.910 -20.122 -20.491  0.00  0.00    +0.051 C 
BRANCH  24  26
ATOM     26  C   UNL     1      36.215 -18.218 -22.079  0.00  0.00    -0.050 C 
BRANCH  26  27
ATOM     27  N   UNL     1      35.291 -17.192 -22.551  0.00  0.00    +0.387 N 
ATOM     28  C   UNL     1      34.697 -16.476 -21.420  0.00  0.00    -0.100 C 
ATOM     29  C   UNL     1      34.244 -17.786 -23.383  0.00  0.00    -0.100 C 
ATOM     30  H   UNL     1      35.814 -16.525 -23.118  0.00  0.00    -0.079 HD
ENDBRANCH  26  27
ENDBRANCH  24  26
ENDBRANCH  22  25
ENDBRANCH   7  21
TORSDOF 5
ENDMDL
MODEL 4
REMARK VINA RESULT:     -10.5      1.496      2.078
REMARK  Name = 5328969
REMARK  5 active torsions:
REMARK  status: ('A' for Active; 'I' for Inactive)
REMARK    1  A    between atoms: N_1  and  C_14
REMARK    2  A    between atoms: C_7  and  N_21
REMARK    3  A    between atoms: C_22  and  C_25
REMARK    4  A    between atoms: C_24  and  C_26
REMARK    5  A    between atoms: C_26  and  N_27
REMARK                            x       y       z     vdW  Elec       q    Type
REMARK                         _______ _______ _______ _____ _____    ______ ____
ROOT
ATOM      1  N   UNL     1      31.978 -22.340 -15.803  0.00  0.00    -0.301 N 
ATOM      2  N   UNL     1      35.920 -23.042 -14.752  0.00  0.00    -0.248 NA
ATOM      3  N   UNL     1      33.562 -23.159 -14.268  0.00  0.00    -0.233 NA
ATOM      4  C   UNL     1      34.338 -22.195 -16.345  0.00  0.00    +0.117 C 
ATOM      5  C   UNL     1      35.655 -22.458 -15.935  0.00  0.00    +0.067 C 
ATOM      6  C   UNL     1      33.333 -22.574 -15.459  0.00  0.00    +0.115 C 
ATOM      7  C   UNL     1      35.125 -21.231 -18.423  0.00  0.00    +0.047 C 
ATOM      8  C   UNL     1      34.074 -21.585 -17.583  0.00  0.00    +0.001 C 
ATOM      9  C   UNL     1      36.689 -22.093 -16.795  0.00  0.00    +0.016 C 
ATOM     10  C   UNL     1      36.434 -21.485 -18.028  0.00  0.00    +0.016 C 
ATOM     11  C   UNL     1      34.859 -23.360 -13.984  0.00  0.00    +0.251 C 
ATOM     12  H   UNL     1      31.845 -21.555 -16.381  0.00  0.00    +0.153 HD
ENDROOT
BRANCH   1  14
ATOM     13 BR   UNL     1      26.701 -22.235 -15.662  0.00  0.00    -0.049 Br
ATOM     14  C   UNL     1      30.790 -23.013 -15.480  0.00  0.00    +0.050 C 
ATOM     15  C   UNL     1      29.551 -22.400 -15.693  0.00  0.00    +0.021 C 
ATOM     16  C   UNL     1      30.836 -24.304 -14.943  0.00  0.00    +0.015 C 
ATOM     17  C   UNL     1      28.371 -23.070 -15.372  0.00  0.00    +0.036 C 
ATOM     18  C   UNL     1      29.656 -24.974 -14.622  0.00  0.00    +0.002 C 
ATOM     19  C   UNL     1      28.423 -24.357 -14.836  0.00  0.00    +0.007 C 
ENDBRANCH   1  14
BRANCH   7  21
ATOM     20  O   UNL     1      36.521 -18.956 -19.797  0.00  0.00    -0.270 OA
ATOM     21  N   UNL     1      34.870 -20.626 -19.653  0.00  0.00    -0.281 N 
ATOM     22  C   UNL     1      35.557 -19.561 -20.252  0.00  0.00    +0.249 C 
ATOM     23  H   UNL     1      34.113 -20.993 -20.166  0.00  0.00    +0.155 HD
BRANCH  22  25
ATOM     24  C   UNL     1      35.013 -17.939 -22.022  0.00  0.00    -0.044 C 
ATOM     25  C   UNL     1      34.973 -19.203 -21.579  0.00  0.00    +0.051 C 
BRANCH  24  26
ATOM     26  C   UNL     1      34.453 -17.515 -23.347  0.00  0.00    -0.050 C 
BRANCH  26  27
ATOM     27  N   UNL     1      34.626 -16.084 -23.569  0.00  0.00    +0.387 N 
ATOM     28  C   UNL     1      34.377 -15.338 -22.333  0.00  0.00    -0.100 C 
ATOM     29  C   UNL     1      33.737 -15.616 -24.633  0.00  0.00    -0.100 C 
ATOM     30  H   UNL     1      35.591 -15.918 -23.857  0.00  0.00    -0.079 HD
ENDBRANCH  26  27
ENDBRANCH  24  26
ENDBRANCH  22  25
ENDBRANCH   7  21
TORSDOF 5
ENDMDL
MODEL 5
REMARK VINA RESULT:     -10.3      9.726     16.293
REMARK  Name = 5328969
REMARK  5 active torsions:
REMARK  status: ('A' for Active; 'I' for Inactive)
REMARK    1  A    between atoms: N_1  and  C_14
REMARK    2  A    between atoms: C_7  and  N_21
REMARK    3  A    between atoms: C_22  and  C_25
REMARK    4  A    between atoms: C_24  and  C_26
REMARK    5  A    between atoms: C_26  and  N_27
REMARK                            x       y       z     vdW  Elec       q    Type
REMARK                         _______ _______ _______ _____ _____    ______ ____
ROOT
ATOM      1  N   UNL     1      33.274  -7.118 -23.985  0.00  0.00    -0.301 N 
ATOM      2  N   UNL     1      31.044  -7.066 -20.497  0.00  0.00    -0.248 NA
ATOM      3  N   UNL     1      32.218  -5.916 -22.260  0.00  0.00    -0.233 NA
ATOM      4  C   UNL     1      32.106  -8.330 -22.237  0.00  0.00    +0.117 C 
ATOM      5  C   UNL     1      31.352  -8.250 -21.055  0.00  0.00    +0.067 C 
ATOM      6  C   UNL     1      32.509  -7.118 -22.791  0.00  0.00    +0.115 C 
ATOM      7  C   UNL     1      31.988 -10.750 -22.206  0.00  0.00    +0.047 C 
ATOM      8  C   UNL     1      32.423  -9.574 -22.810  0.00  0.00    +0.001 C 
ATOM      9  C   UNL     1      30.931  -9.443 -20.470  0.00  0.00    +0.016 C 
ATOM     10  C   UNL     1      31.242 -10.684 -21.035  0.00  0.00    +0.016 C 
ATOM     11  C   UNL     1      31.494  -5.963 -21.130  0.00  0.00    +0.251 C 
ATOM     12  H   UNL     1      33.844  -7.914 -24.091  0.00  0.00    +0.153 HD
ENDROOT
BRANCH   1  14
ATOM     13 BR   UNL     1      36.333  -3.800 -26.725  0.00  0.00    -0.049 Br
ATOM     14  C   UNL     1      33.374  -6.204 -25.045  0.00  0.00    +0.050 C 
ATOM     15  C   UNL     1      34.589  -5.567 -25.313  0.00  0.00    +0.021 C 
ATOM     16  C   UNL     1      32.259  -5.926 -25.841  0.00  0.00    +0.015 C 
ATOM     17  C   UNL     1      34.688  -4.659 -26.368  0.00  0.00    +0.036 C 
ATOM     18  C   UNL     1      32.358  -5.018 -26.895  0.00  0.00    +0.002 C 
ATOM     19  C   UNL     1      33.572  -4.384 -27.158  0.00  0.00    +0.007 C 
ENDBRANCH   1  14
BRANCH   7  21
ATOM     20  O   UNL     1      33.860 -12.901 -21.266  0.00  0.00    -0.270 OA
ATOM     21  N   UNL     1      32.298 -11.987 -22.771  0.00  0.00    -0.281 N 
ATOM     22  C   UNL     1      33.184 -12.960 -22.287  0.00  0.00    +0.249 C 
ATOM     23  H   UNL     1      31.836 -12.204 -23.613  0.00  0.00    +0.155 HD
BRANCH  22  25
ATOM     24  C   UNL     1      34.180 -15.089 -23.017  0.00  0.00    -0.044 C 
ATOM     25  C   UNL     1      33.237 -14.153 -23.185  0.00  0.00    +0.051 C 
BRANCH  24  26
ATOM     26  C   UNL     1      34.283 -16.314 -23.877  0.00  0.00    -0.050 C 
BRANCH  26  27
ATOM     27  N   UNL     1      34.838 -17.442 -23.137  0.00  0.00    +0.387 N 
ATOM     28  C   UNL     1      33.954 -18.606 -23.235  0.00  0.00    -0.100 C 
ATOM     29  C   UNL     1      35.053 -17.084 -21.735  0.00  0.00    -0.100 C 
ATOM     30  H   UNL     1      35.739 -17.685 -23.550  0.00  0.00    -0.079 HD
ENDBRANCH  26  27
ENDBRANCH  24  26
ENDBRANCH  22  25
ENDBRANCH   7  21
TORSDOF 5
ENDMDL
MODEL 6
REMARK VINA RESULT:      -9.9      6.553     11.012
REMARK  Name = 5328969
REMARK  5 active torsions:
REMARK  status: ('A' for Active; 'I' for Inactive)
REMARK    1  A    between atoms: N_1  and  C_14
REMARK    2  A    between atoms: C_7  and  N_21
REMARK    3  A    between atoms: C_22  and  C_25
REMARK    4  A    between atoms: C_24  and  C_26
REMARK    5  A    between atoms: C_26  and  N_27
REMARK                            x       y       z     vdW  Elec       q    Type
REMARK                         _______ _______ _______ _____ _____    ______ ____
ROOT
ATOM      1  N   UNL     1      34.783 -16.885 -21.746  0.00  0.00    -0.301 N 
ATOM      2  N   UNL     1      33.510 -16.024 -25.590  0.00  0.00    -0.248 NA
ATOM      3  N   UNL     1      34.547 -17.510 -24.002  0.00  0.00    -0.233 NA
ATOM      4  C   UNL     1      33.730 -15.347 -23.299  0.00  0.00    +0.117 C 
ATOM      5  C   UNL     1      33.319 -15.111 -24.621  0.00  0.00    +0.067 C 
ATOM      6  C   UNL     1      34.340 -16.574 -23.056  0.00  0.00    +0.115 C 
ATOM      7  C   UNL     1      32.907 -13.177 -22.604  0.00  0.00    +0.047 C 
ATOM      8  C   UNL     1      33.525 -14.385 -22.295  0.00  0.00    +0.001 C 
ATOM      9  C   UNL     1      32.703 -13.893 -24.903  0.00  0.00    +0.016 C 
ATOM     10  C   UNL     1      32.496 -12.931 -23.909  0.00  0.00    +0.016 C 
ATOM     11  C   UNL     1      34.114 -17.173 -25.227  0.00  0.00    +0.251 C 
ATOM     12  H   UNL     1      35.051 -16.097 -21.221  0.00  0.00    +0.153 HD
ENDROOT
BRANCH   1  14
ATOM     13 BR   UNL     1      32.361 -21.029 -19.546  0.00  0.00    -0.049 Br
ATOM     14  C   UNL     1      34.910 -18.098 -21.053  0.00  0.00    +0.050 C 
ATOM     15  C   UNL     1      33.773 -18.834 -20.704  0.00  0.00    +0.021 C 
ATOM     16  C   UNL     1      36.176 -18.581 -20.707  0.00  0.00    +0.015 C 
ATOM     17  C   UNL     1      33.901 -20.041 -20.016  0.00  0.00    +0.036 C 
ATOM     18  C   UNL     1      36.304 -19.788 -20.019  0.00  0.00    +0.002 C 
ATOM     19  C   UNL     1      35.167 -20.517 -19.672  0.00  0.00    +0.007 C 
ENDBRANCH   1  14
BRANCH   7  21
ATOM     20  O   UNL     1      31.327 -13.329 -20.055  0.00  0.00    -0.270 OA
ATOM     21  N   UNL     1      32.700 -12.219 -21.612  0.00  0.00    -0.281 N 
ATOM     22  C   UNL     1      31.949 -12.343 -20.434  0.00  0.00    +0.249 C 
ATOM     23  H   UNL     1      33.135 -11.347 -21.756  0.00  0.00    +0.155 HD
BRANCH  22  25
ATOM     24  C   UNL     1      31.397  -9.969 -20.093  0.00  0.00    -0.044 C 
ATOM     25  C   UNL     1      31.973 -11.086 -19.629  0.00  0.00    +0.051 C 
BRANCH  24  26
ATOM     26  C   UNL     1      31.378  -8.677 -19.332  0.00  0.00    -0.050 C 
BRANCH  26  27
ATOM     27  N   UNL     1      31.346  -7.527 -20.229  0.00  0.00    +0.387 N 
ATOM     28  C   UNL     1      31.302  -7.965 -21.625  0.00  0.00    -0.100 C 
ATOM     29  C   UNL     1      32.507  -6.665 -20.002  0.00  0.00    -0.100 C 
ATOM     30  H   UNL     1      30.502  -6.989 -20.032  0.00  0.00    -0.079 HD
ENDBRANCH  26  27
ENDBRANCH  24  26
ENDBRANCH  22  25
ENDBRANCH   7  21
TORSDOF 5
ENDMDL
MODEL 7
REMARK VINA RESULT:      -9.8     11.043     15.457
REMARK  Name = 5328969
REMARK  5 active torsions:
REMARK  status: ('A' for Active; 'I' for Inactive)
REMARK    1  A    between atoms: N_1  and  C_14
REMARK    2  A    between atoms: C_7  and  N_21
REMARK    3  A    between atoms: C_22  and  C_25
REMARK    4  A    between atoms: C_24  and  C_26
REMARK    5  A    between atoms: C_26  and  N_27
REMARK                            x       y       z     vdW  Elec       q    Type
REMARK                         _______ _______ _______ _____ _____    ______ ____
ROOT
ATOM      1  N   UNL     1      31.947 -11.243 -22.145  0.00  0.00    -0.301 N 
ATOM      2  N   UNL     1      31.228  -8.367 -19.255  0.00  0.00    -0.248 NA
ATOM      3  N   UNL     1      31.578 -10.664 -19.894  0.00  0.00    -0.233 NA
ATOM      4  C   UNL     1      31.602  -8.913 -21.561  0.00  0.00    +0.117 C 
ATOM      5  C   UNL     1      31.357  -7.983 -20.538  0.00  0.00    +0.067 C 
ATOM      6  C   UNL     1      31.702 -10.246 -21.168  0.00  0.00    +0.115 C 
ATOM      7  C   UNL     1      31.625  -7.152 -23.224  0.00  0.00    +0.047 C 
ATOM      8  C   UNL     1      31.735  -8.501 -22.898  0.00  0.00    +0.001 C 
ATOM      9  C   UNL     1      31.251  -6.640 -20.893  0.00  0.00    +0.016 C 
ATOM     10  C   UNL     1      31.382  -6.221 -22.220  0.00  0.00    +0.016 C 
ATOM     11  C   UNL     1      31.345  -9.686 -19.004  0.00  0.00    +0.251 C 
ATOM     12  H   UNL     1      31.586 -11.025 -23.034  0.00  0.00    +0.153 HD
ENDROOT
BRANCH   1  14
ATOM     13 BR   UNL     1      33.637 -15.507 -24.761  0.00  0.00    -0.049 Br
ATOM     14  C   UNL     1      32.607 -12.480 -22.089  0.00  0.00    +0.050 C 
ATOM     15  C   UNL     1      32.767 -13.247 -23.248  0.00  0.00    +0.021 C 
ATOM     16  C   UNL     1      33.111 -12.954 -20.874  0.00  0.00    +0.015 C 
ATOM     17  C   UNL     1      33.425 -14.476 -23.192  0.00  0.00    +0.036 C 
ATOM     18  C   UNL     1      33.768 -14.184 -20.818  0.00  0.00    +0.002 C 
ATOM     19  C   UNL     1      33.924 -14.945 -21.976  0.00  0.00    +0.007 C 
ENDBRANCH   1  14
BRANCH   7  21
ATOM     20  O   UNL     1      33.718  -5.435 -24.521  0.00  0.00    -0.270 OA
ATOM     21  N   UNL     1      31.757  -6.736 -24.548  0.00  0.00    -0.281 N 
ATOM     22  C   UNL     1      32.760  -5.930 -25.105  0.00  0.00    +0.249 C 
ATOM     23  H   UNL     1      31.060  -7.047 -25.171  0.00  0.00    +0.155 HD
BRANCH  22  25
ATOM     24  C   UNL     1      33.577  -5.413 -27.368  0.00  0.00    -0.044 C 
ATOM     25  C   UNL     1      32.546  -5.711 -26.566  0.00  0.00    +0.051 C 
BRANCH  24  26
ATOM     26  C   UNL     1      33.432  -5.191 -28.845  0.00  0.00    -0.050 C 
BRANCH  26  27
ATOM     27  N   UNL     1      34.709  -4.855 -29.464  0.00  0.00    +0.387 N 
ATOM     28  C   UNL     1      35.806  -5.039 -28.513  0.00  0.00    -0.100 C 
ATOM     29  C   UNL     1      34.694  -3.480 -29.963  0.00  0.00    -0.100 C 
ATOM     30  H   UNL     1      34.857  -5.484 -30.254  0.00  0.00    -0.079 HD
ENDBRANCH  26  27
ENDBRANCH  24  26
ENDBRANCH  22  25
ENDBRANCH   7  21
TORSDOF 5
ENDMDL
MODEL 8
REMARK VINA RESULT:      -9.3      5.595      9.882
REMARK  Name = 5328969
REMARK  5 active torsions:
REMARK  status: ('A' for Active; 'I' for Inactive)
REMARK    1  A    between atoms: N_1  and  C_14
REMARK    2  A    between atoms: C_7  and  N_21
REMARK    3  A    between atoms: C_22  and  C_25
REMARK    4  A    between atoms: C_24  and  C_26
REMARK    5  A    between atoms: C_26  and  N_27
REMARK                            x       y       z     vdW  Elec       q    Type
REMARK                         _______ _______ _______ _____ _____    ______ ____
ROOT
ATOM      1  N   UNL     1      34.505 -18.359 -21.036  0.00  0.00    -0.301 N 
ATOM      2  N   UNL     1      33.995 -17.753 -25.099  0.00  0.00    -0.248 NA
ATOM      3  N   UNL     1      34.482 -19.199 -23.234  0.00  0.00    -0.233 NA
ATOM      4  C   UNL     1      34.007 -16.856 -22.874  0.00  0.00    +0.117 C 
ATOM      5  C   UNL     1      33.846 -16.711 -24.261  0.00  0.00    +0.067 C 
ATOM      6  C   UNL     1      34.326 -18.135 -22.424  0.00  0.00    +0.115 C 
ATOM      7  C   UNL     1      33.530 -14.507 -22.523  0.00  0.00    +0.047 C 
ATOM      8  C   UNL     1      33.850 -15.760 -22.009  0.00  0.00    +0.001 C 
ATOM      9  C   UNL     1      33.527 -15.446 -24.750  0.00  0.00    +0.016 C 
ATOM     10  C   UNL     1      33.368 -14.350 -23.895  0.00  0.00    +0.016 C 
ATOM     11  C   UNL     1      34.305 -18.939 -24.539  0.00  0.00    +0.251 C 
ATOM     12  H   UNL     1      34.842 -17.574 -20.547  0.00  0.00    +0.153 HD
ENDROOT
BRANCH   1  14
ATOM     13 BR   UNL     1      36.473 -21.688 -17.441  0.00  0.00    -0.049 Br
ATOM     14  C   UNL     1      34.293 -19.484 -20.224  0.00  0.00    +0.050 C 
ATOM     15  C   UNL     1      35.309 -19.948 -19.383  0.00  0.00    +0.021 C 
ATOM     16  C   UNL     1      33.063 -20.149 -20.251  0.00  0.00    +0.015 C 
ATOM     17  C   UNL     1      35.096 -21.066 -18.575  0.00  0.00    +0.036 C 
ATOM     18  C   UNL     1      32.850 -21.266 -19.443  0.00  0.00    +0.002 C 
ATOM     19  C   UNL     1      33.867 -21.726 -18.607  0.00  0.00    +0.007 C 
ENDBRANCH   1  14
BRANCH   7  21
ATOM     20  O   UNL     1      31.531 -14.027 -20.335  0.00  0.00    -0.270 OA
ATOM     21  N   UNL     1      33.370 -13.416 -21.670  0.00  0.00    -0.281 N 
ATOM     22  C   UNL     1      32.415 -13.242 -20.658  0.00  0.00    +0.249 C 
ATOM     23  H   UNL     1      34.008 -12.676 -21.792  0.00  0.00    +0.155 HD
BRANCH  22  25
ATOM     24  C   UNL     1      31.585 -11.030 -19.968  0.00  0.00    -0.044 C 
ATOM     25  C   UNL     1      32.578 -11.929 -19.965  0.00  0.00    +0.051 C 
BRANCH  24  26
ATOM     26  C   UNL     1      31.681  -9.698 -19.285  0.00  0.00    -0.050 C 
BRANCH  26  27
ATOM     27  N   UNL     1      31.227  -8.617 -20.152  0.00  0.00    +0.387 N 
ATOM     28  C   UNL     1      31.219  -9.048 -21.551  0.00  0.00    -0.100 C 
ATOM     29  C   UNL     1      32.076  -7.436 -19.989  0.00  0.00    -0.100 C 
ATOM     30  H   UNL     1      30.274  -8.369 -19.884  0.00  0.00    -0.079 HD
ENDBRANCH  26  27
ENDBRANCH  24  26
ENDBRANCH  22  25
ENDBRANCH   7  21
TORSDOF 5
ENDMDL
MODEL 9
REMARK VINA RESULT:      -9.3     11.856     15.969
REMARK  Name = 5328969
REMARK  5 active torsions:
REMARK  status: ('A' for Active; 'I' for Inactive)
REMARK    1  A    between atoms: N_1  and  C_14
REMARK    2  A    between atoms: C_7  and  N_21
REMARK    3  A    between atoms: C_22  and  C_25
REMARK    4  A    between atoms: C_24  and  C_26
REMARK    5  A    between atoms: C_26  and  N_27
REMARK                            x       y       z     vdW  Elec       q    Type
REMARK                         _______ _______ _______ _____ _____    ______ ____
ROOT
ATOM      1  N   UNL     1      31.814 -10.334 -22.499  0.00  0.00    -0.301 N 
ATOM      2  N   UNL     1      31.303  -8.318 -18.920  0.00  0.00    -0.248 NA
ATOM      3  N   UNL     1      31.433 -10.370 -20.177  0.00  0.00    -0.233 NA
ATOM      4  C   UNL     1      31.694  -8.237 -21.285  0.00  0.00    +0.117 C 
ATOM      5  C   UNL     1      31.514  -7.608 -20.043  0.00  0.00    +0.067 C 
ATOM      6  C   UNL     1      31.642  -9.629 -21.282  0.00  0.00    +0.115 C 
ATOM      7  C   UNL     1      31.955  -6.096 -22.387  0.00  0.00    +0.047 C 
ATOM      8  C   UNL     1      31.913  -7.485 -22.452  0.00  0.00    +0.001 C 
ATOM      9  C   UNL     1      31.560  -6.216 -20.006  0.00  0.00    +0.016 C 
ATOM     10  C   UNL     1      31.778  -5.460 -21.162  0.00  0.00    +0.016 C 
ATOM     11  C   UNL     1      31.274  -9.660 -19.049  0.00  0.00    +0.251 C 
ATOM     12  H   UNL     1      31.507  -9.839 -23.292  0.00  0.00    +0.153 HD
ENDROOT
BRANCH   1  14
ATOM     13 BR   UNL     1      33.868 -14.835 -20.651  0.00  0.00    -0.049 Br
ATOM     14  C   UNL     1      32.340 -11.602 -22.791  0.00  0.00    +0.050 C 
ATOM     15  C   UNL     1      32.768 -12.443 -21.759  0.00  0.00    +0.021 C 
ATOM     16  C   UNL     1      32.437 -12.034 -24.117  0.00  0.00    +0.015 C 
ATOM     17  C   UNL     1      33.289 -13.704 -22.051  0.00  0.00    +0.036 C 
ATOM     18  C   UNL     1      32.959 -13.295 -24.409  0.00  0.00    +0.002 C 
ATOM     19  C   UNL     1      33.386 -14.129 -23.376  0.00  0.00    +0.007 C 
ENDBRANCH   1  14
BRANCH   7  21
ATOM     20  O   UNL     1      30.139  -4.200 -23.844  0.00  0.00    -0.270 OA
ATOM     21  N   UNL     1      32.174  -5.343 -23.540  0.00  0.00    -0.281 N 
ATOM     22  C   UNL     1      31.286  -4.468 -24.183  0.00  0.00    +0.249 C 
ATOM     23  H   UNL     1      33.062  -5.438 -23.956  0.00  0.00    +0.155 HD
BRANCH  22  25
ATOM     24  C   UNL     1      33.233  -3.781 -25.524  0.00  0.00    -0.044 C 
ATOM     25  C   UNL     1      31.901  -3.851 -25.396  0.00  0.00    +0.051 C 
BRANCH  24  26
ATOM     26  C   UNL     1      33.913  -3.183 -26.719  0.00  0.00    -0.050 C 
BRANCH  26  27
ATOM     27  N   UNL     1      34.587  -4.200 -27.517  0.00  0.00    +0.387 N 
ATOM     28  C   UNL     1      33.658  -4.800 -28.477  0.00  0.00    -0.100 C 
ATOM     29  C   UNL     1      35.164  -5.233 -26.656  0.00  0.00    -0.100 C 
ATOM     30  H   UNL     1      35.343  -3.753 -28.036  0.00  0.00    -0.079 HD
ENDBRANCH  26  27
ENDBRANCH  24  26
ENDBRANCH  22  25
ENDBRANCH   7  21
TORSDOF 5
ENDMDL
