MODEL 1
REMARK VINA RESULT:     -12.2      0.000      0.000
REMARK  Name = 5003498
REMARK  4 active torsions:
REMARK  status: ('A' for Active; 'I' for Inactive)
REMARK    1  A    between atoms: C_2  and  C_11
REMARK    2  A    between atoms: C_4  and  C_17
REMARK    3  A    between atoms: C_6  and  C_24
REMARK    4  A    between atoms: C_24  and  O_25
REMARK                            x       y       z     vdW  Elec       q    Type
REMARK                         _______ _______ _______ _____ _____    ______ ____
ROOT
ATOM      1  N   UNL     1      30.993 -22.448 -17.124  0.00  0.00    -0.353 N 
ATOM      2  C   UNL     1      32.714 -23.018 -15.843  0.00  0.00    +0.017 A 
ATOM      3  C   UNL     1      31.520 -23.460 -15.207  0.00  0.00    +0.017 A 
ATOM      4  C   UNL     1      32.357 -22.399 -17.019  0.00  0.00    +0.057 A 
ATOM      5  C   UNL     1      30.455 -23.090 -16.031  0.00  0.00    +0.063 A 
ATOM      6  C   UNL     1      29.121 -23.369 -15.713  0.00  0.00    +0.091 C 
ATOM      7  C   UNL     1      31.242 -24.142 -14.005  0.00  0.00    +0.001 C 
ATOM      8  C   UNL     1      28.870 -24.046 -14.517  0.00  0.00    +0.008 C 
ATOM      9  C   UNL     1      29.913 -24.427 -13.674  0.00  0.00    +0.000 C 
ATOM     10  H   UNL     1      30.471 -22.077 -17.872  0.00  0.00    +0.166 HD
ENDROOT
BRANCH   2  11
ATOM     11  C   UNL     1      34.076 -23.153 -15.404  0.00  0.00    +0.001 C 
ATOM     12  C   UNL     1      34.658 -24.417 -15.322  0.00  0.00    +0.000 C 
ATOM     13  C   UNL     1      34.811 -22.020 -15.059  0.00  0.00    +0.000 C 
ATOM     14  C   UNL     1      35.979 -24.548 -14.895  0.00  0.00    +0.000 C 
ATOM     15  C   UNL     1      36.133 -22.151 -14.633  0.00  0.00    +0.000 C 
ATOM     16  C   UNL     1      36.717 -23.416 -14.550  0.00  0.00    +0.000 C 
ENDBRANCH   2  11
BRANCH   4  17
ATOM     17  C   UNL     1      33.162 -21.773 -18.045  0.00  0.00    +0.016 C 
ATOM     18  C   UNL     1      32.554 -20.974 -19.012  0.00  0.00    +0.001 C 
ATOM     19  C   UNL     1      34.540 -21.972 -18.065  0.00  0.00    +0.001 C 
ATOM     20  C   UNL     1      33.329 -20.371 -20.002  0.00  0.00    +0.000 C 
ATOM     21  C   UNL     1      35.315 -21.370 -19.055  0.00  0.00    +0.000 C 
ATOM     22  C   UNL     1      34.710 -20.570 -20.024  0.00  0.00    +0.000 C 
ENDBRANCH   4  17
BRANCH   6  24
ATOM     23  O   UNL     1      27.239 -23.748 -17.140  0.00  0.00    -0.245 OA
ATOM     24  C   UNL     1      28.028 -22.975 -16.583  0.00  0.00    +0.339 C 
BRANCH  24  25
ATOM     25  O   UNL     1      27.942 -21.624 -16.737  0.00  0.00    -0.477 OA
ATOM     26  H   UNL     1      27.737 -21.261 -17.577  0.00  0.00    +0.295 HD
ENDBRANCH  24  25
ENDBRANCH   6  24
TORSDOF 4
ENDMDL
MODEL 2
REMARK VINA RESULT:     -11.9      1.034      1.352
REMARK  Name = 5003498
REMARK  4 active torsions:
REMARK  status: ('A' for Active; 'I' for Inactive)
REMARK    1  A    between atoms: C_2  and  C_11
REMARK    2  A    between atoms: C_4  and  C_17
REMARK    3  A    between atoms: C_6  and  C_24
REMARK    4  A    between atoms: C_24  and  O_25
REMARK                            x       y       z     vdW  Elec       q    Type
REMARK                         _______ _______ _______ _____ _____    ______ ____
ROOT
ATOM      1  N   UNL     1      31.741 -22.708 -16.477  0.00  0.00    -0.353 N 
ATOM      2  C   UNL     1      33.296 -23.464 -15.086  0.00  0.00    +0.017 A 
ATOM      3  C   UNL     1      32.020 -23.813 -14.560  0.00  0.00    +0.017 A 
ATOM      4  C   UNL     1      33.091 -22.785 -16.265  0.00  0.00    +0.057 A 
ATOM      5  C   UNL     1      31.061 -23.327 -15.452  0.00  0.00    +0.063 A 
ATOM      6  C   UNL     1      29.687 -23.493 -15.248  0.00  0.00    +0.091 C 
ATOM      7  C   UNL     1      31.587 -24.498 -13.407  0.00  0.00    +0.001 C 
ATOM      8  C   UNL     1      29.282 -24.176 -14.098  0.00  0.00    +0.008 C 
ATOM      9  C   UNL     1      30.216 -24.671 -13.190  0.00  0.00    +0.000 C 
ATOM     10  H   UNL     1      31.315 -22.273 -17.252  0.00  0.00    +0.166 HD
ENDROOT
BRANCH   2  11
ATOM     11  C   UNL     1      34.600 -23.732 -14.546  0.00  0.00    +0.001 C 
ATOM     12  C   UNL     1      35.277 -24.896 -14.908  0.00  0.00    +0.000 C 
ATOM     13  C   UNL     1      35.186 -22.830 -13.660  0.00  0.00    +0.000 C 
ATOM     14  C   UNL     1      36.543 -25.157 -14.384  0.00  0.00    +0.000 C 
ATOM     15  C   UNL     1      36.453 -23.090 -13.136  0.00  0.00    +0.000 C 
ATOM     16  C   UNL     1      37.131 -24.255 -13.498  0.00  0.00    +0.000 C 
ENDBRANCH   2  11
BRANCH   4  17
ATOM     17  C   UNL     1      34.028 -22.208 -17.204  0.00  0.00    +0.016 C 
ATOM     18  C   UNL     1      33.642 -21.995 -18.526  0.00  0.00    +0.001 C 
ATOM     19  C   UNL     1      35.312 -21.869 -16.784  0.00  0.00    +0.001 C 
ATOM     20  C   UNL     1      34.545 -21.440 -19.432  0.00  0.00    +0.000 C 
ATOM     21  C   UNL     1      36.215 -21.314 -17.690  0.00  0.00    +0.000 C 
ATOM     22  C   UNL     1      35.832 -21.100 -19.014  0.00  0.00    +0.000 C 
ENDBRANCH   4  17
BRANCH   6  24
ATOM     23  O   UNL     1      28.824 -21.945 -16.855  0.00  0.00    -0.245 OA
ATOM     24  C   UNL     1      28.707 -22.980 -16.188  0.00  0.00    +0.339 C 
BRANCH  24  25
ATOM     25  O   UNL     1      27.602 -23.772 -16.277  0.00  0.00    -0.477 OA
ATOM     26  H   UNL     1      27.426 -24.406 -15.609  0.00  0.00    +0.295 HD
ENDBRANCH  24  25
ENDBRANCH   6  24
TORSDOF 4
ENDMDL
MODEL 3
REMARK VINA RESULT:     -10.7      4.182      6.369
REMARK  Name = 5003498
REMARK  4 active torsions:
REMARK  status: ('A' for Active; 'I' for Inactive)
REMARK    1  A    between atoms: C_2  and  C_11
REMARK    2  A    between atoms: C_4  and  C_17
REMARK    3  A    between atoms: C_6  and  C_24
REMARK    4  A    between atoms: C_24  and  O_25
REMARK                            x       y       z     vdW  Elec       q    Type
REMARK                         _______ _______ _______ _____ _____    ______ ____
ROOT
ATOM      1  N   UNL     1      36.770 -23.529 -15.498  0.00  0.00    -0.353 N 
ATOM      2  C   UNL     1      34.825 -23.659 -14.437  0.00  0.00    +0.017 A 
ATOM      3  C   UNL     1      35.822 -24.252 -13.613  0.00  0.00    +0.017 A 
ATOM      4  C   UNL     1      35.438 -23.224 -15.589  0.00  0.00    +0.057 A 
ATOM      5  C   UNL     1      37.034 -24.157 -14.302  0.00  0.00    +0.063 A 
ATOM      6  C   UNL     1      38.238 -24.644 -13.782  0.00  0.00    +0.091 C 
ATOM      7  C   UNL     1      35.810 -24.862 -12.343  0.00  0.00    +0.001 C 
ATOM      8  C   UNL     1      38.202 -25.245 -12.521  0.00  0.00    +0.008 C 
ATOM      9  C   UNL     1      37.008 -25.354 -11.810  0.00  0.00    +0.000 C 
ATOM     10  H   UNL     1      37.443 -23.327 -16.188  0.00  0.00    +0.166 HD
ENDROOT
BRANCH   2  11
ATOM     11  C   UNL     1      33.418 -23.505 -14.186  0.00  0.00    +0.001 C 
ATOM     12  C   UNL     1      32.635 -24.623 -13.902  0.00  0.00    +0.000 C 
ATOM     13  C   UNL     1      32.839 -22.238 -14.227  0.00  0.00    +0.000 C 
ATOM     14  C   UNL     1      31.270 -24.473 -13.659  0.00  0.00    +0.000 C 
ATOM     15  C   UNL     1      31.473 -22.088 -13.983  0.00  0.00    +0.000 C 
ATOM     16  C   UNL     1      30.689 -23.207 -13.699  0.00  0.00    +0.000 C 
ENDBRANCH   2  11
BRANCH   4  17
ATOM     17  C   UNL     1      34.905 -22.556 -16.756  0.00  0.00    +0.016 C 
ATOM     18  C   UNL     1      33.575 -22.756 -17.121  0.00  0.00    +0.001 C 
ATOM     19  C   UNL     1      35.721 -21.717 -17.510  0.00  0.00    +0.001 C 
ATOM     20  C   UNL     1      33.059 -22.113 -18.246  0.00  0.00    +0.000 C 
ATOM     21  C   UNL     1      35.205 -21.074 -18.636  0.00  0.00    +0.000 C 
ATOM     22  C   UNL     1      33.875 -21.273 -19.004  0.00  0.00    +0.000 C 
ENDBRANCH   4  17
BRANCH   6  24
ATOM     23  O   UNL     1      40.492 -23.925 -14.134  0.00  0.00    -0.245 OA
ATOM     24  C   UNL     1      39.487 -24.536 -14.515  0.00  0.00    +0.339 C 
BRANCH  24  25
ATOM     25  O   UNL     1      39.453 -25.195 -15.706  0.00  0.00    -0.477 OA
ATOM     26  H   UNL     1      40.200 -25.686 -15.990  0.00  0.00    +0.295 HD
ENDBRANCH  24  25
ENDBRANCH   6  24
TORSDOF 4
ENDMDL
MODEL 4
REMARK VINA RESULT:     -10.6      2.072      5.342
REMARK  Name = 5003498
REMARK  4 active torsions:
REMARK  status: ('A' for Active; 'I' for Inactive)
REMARK    1  A    between atoms: C_2  and  C_11
REMARK    2  A    between atoms: C_4  and  C_17
REMARK    3  A    between atoms: C_6  and  C_24
REMARK    4  A    between atoms: C_24  and  O_25
REMARK                            x       y       z     vdW  Elec       q    Type
REMARK                         _______ _______ _______ _____ _____    ______ ____
ROOT
ATOM      1  N   UNL     1      32.645 -22.263 -17.275  0.00  0.00    -0.353 N 
ATOM      2  C   UNL     1      34.302 -22.808 -15.903  0.00  0.00    +0.017 A 
ATOM      3  C   UNL     1      34.856 -22.118 -17.017  0.00  0.00    +0.017 A 
ATOM      4  C   UNL     1      32.941 -22.882 -16.090  0.00  0.00    +0.057 A 
ATOM      5  C   UNL     1      33.795 -21.786 -17.863  0.00  0.00    +0.063 A 
ATOM      6  C   UNL     1      33.975 -21.095 -19.066  0.00  0.00    +0.091 C 
ATOM      7  C   UNL     1      36.162 -21.741 -17.389  0.00  0.00    +0.001 C 
ATOM      8  C   UNL     1      35.279 -20.732 -19.414  0.00  0.00    +0.008 C 
ATOM      9  C   UNL     1      36.358 -21.049 -18.590  0.00  0.00    +0.000 C 
ATOM     10  H   UNL     1      31.740 -22.171 -17.652  0.00  0.00    +0.166 HD
ENDROOT
BRANCH   2  11
ATOM     11  C   UNL     1      34.972 -23.358 -14.756  0.00  0.00    +0.001 C 
ATOM     12  C   UNL     1      35.132 -22.585 -13.607  0.00  0.00    +0.000 C 
ATOM     13  C   UNL     1      35.462 -24.662 -14.796  0.00  0.00    +0.000 C 
ATOM     14  C   UNL     1      35.782 -23.118 -12.495  0.00  0.00    +0.000 C 
ATOM     15  C   UNL     1      36.112 -25.196 -13.682  0.00  0.00    +0.000 C 
ATOM     16  C   UNL     1      36.273 -24.422 -12.532  0.00  0.00    +0.000 C 
ENDBRANCH   2  11
BRANCH   4  17
ATOM     17  C   UNL     1      31.901 -23.469 -15.275  0.00  0.00    +0.016 C 
ATOM     18  C   UNL     1      30.574 -23.412 -15.698  0.00  0.00    +0.001 C 
ATOM     19  C   UNL     1      32.228 -24.089 -14.071  0.00  0.00    +0.001 C 
ATOM     20  C   UNL     1      29.570 -23.977 -14.912  0.00  0.00    +0.000 C 
ATOM     21  C   UNL     1      31.224 -24.653 -13.286  0.00  0.00    +0.000 C 
ATOM     22  C   UNL     1      29.895 -24.598 -13.705  0.00  0.00    +0.000 C 
ENDBRANCH   4  17
BRANCH   6  24
ATOM     23  O   UNL     1      31.747 -21.302 -19.912  0.00  0.00    -0.245 OA
ATOM     24  C   UNL     1      32.859 -20.761 -19.932  0.00  0.00    +0.339 C 
BRANCH  24  25
ATOM     25  O   UNL     1      33.153 -19.754 -20.802  0.00  0.00    -0.477 OA
ATOM     26  H   UNL     1      32.673 -19.673 -21.603  0.00  0.00    +0.295 HD
ENDBRANCH  24  25
ENDBRANCH   6  24
TORSDOF 4
ENDMDL
MODEL 5
REMARK VINA RESULT:      -9.8     13.626     16.662
REMARK  Name = 5003498
REMARK  4 active torsions:
REMARK  status: ('A' for Active; 'I' for Inactive)
REMARK    1  A    between atoms: C_2  and  C_11
REMARK    2  A    between atoms: C_4  and  C_17
REMARK    3  A    between atoms: C_6  and  C_24
REMARK    4  A    between atoms: C_24  and  O_25
REMARK                            x       y       z     vdW  Elec       q    Type
REMARK                         _______ _______ _______ _____ _____    ______ ____
ROOT
ATOM      1  N   UNL     1      32.784  -9.143 -23.743  0.00  0.00    -0.353 N 
ATOM      2  C   UNL     1      31.723  -7.803 -22.327  0.00  0.00    +0.017 A 
ATOM      3  C   UNL     1      31.613  -9.137 -21.845  0.00  0.00    +0.017 A 
ATOM      4  C   UNL     1      32.448  -7.839 -23.496  0.00  0.00    +0.057 A 
ATOM      5  C   UNL     1      32.288  -9.959 -22.751  0.00  0.00    +0.063 A 
ATOM      6  C   UNL     1      32.383 -11.345 -22.589  0.00  0.00    +0.091 C 
ATOM      7  C   UNL     1      31.003  -9.728 -20.719  0.00  0.00    +0.001 C 
ATOM      8  C   UNL     1      31.770 -11.908 -21.466  0.00  0.00    +0.008 C 
ATOM      9  C   UNL     1      31.090 -11.114 -20.544  0.00  0.00    +0.000 C 
ATOM     10  H   UNL     1      33.306  -9.453 -24.518  0.00  0.00    +0.166 HD
ENDROOT
BRANCH   2  11
ATOM     11  C   UNL     1      31.201  -6.591 -21.758  0.00  0.00    +0.001 C 
ATOM     12  C   UNL     1      30.200  -5.885 -22.423  0.00  0.00    +0.000 C 
ATOM     13  C   UNL     1      31.698  -6.122 -20.543  0.00  0.00    +0.000 C 
ATOM     14  C   UNL     1      29.694  -4.708 -21.872  0.00  0.00    +0.000 C 
ATOM     15  C   UNL     1      31.192  -4.945 -19.991  0.00  0.00    +0.000 C 
ATOM     16  C   UNL     1      30.190  -4.237 -20.657  0.00  0.00    +0.000 C 
ENDBRANCH   2  11
BRANCH   4  17
ATOM     17  C   UNL     1      32.853  -6.781 -24.394  0.00  0.00    +0.016 C 
ATOM     18  C   UNL     1      34.012  -6.053 -24.129  0.00  0.00    +0.001 C 
ATOM     19  C   UNL     1      32.085  -6.492 -25.519  0.00  0.00    +0.001 C 
ATOM     20  C   UNL     1      34.403  -5.031 -24.995  0.00  0.00    +0.000 C 
ATOM     21  C   UNL     1      32.476  -5.471 -26.384  0.00  0.00    +0.000 C 
ATOM     22  C   UNL     1      33.635  -4.740 -26.122  0.00  0.00    +0.000 C 
ENDBRANCH   4  17
BRANCH   6  24
ATOM     23  O   UNL     1      32.824 -12.276 -24.747  0.00  0.00    -0.245 OA
ATOM     24  C   UNL     1      33.089 -12.181 -23.543  0.00  0.00    +0.339 C 
BRANCH  24  25
ATOM     25  O   UNL     1      34.112 -12.877 -22.974  0.00  0.00    -0.477 OA
ATOM     26  H   UNL     1      34.868 -12.422 -22.657  0.00  0.00    +0.295 HD
ENDBRANCH  24  25
ENDBRANCH   6  24
TORSDOF 4
ENDMDL
MODEL 6
REMARK VINA RESULT:      -9.3     13.454     16.479
REMARK  Name = 5003498
REMARK  4 active torsions:
REMARK  status: ('A' for Active; 'I' for Inactive)
REMARK    1  A    between atoms: C_2  and  C_11
REMARK    2  A    between atoms: C_4  and  C_17
REMARK    3  A    between atoms: C_6  and  C_24
REMARK    4  A    between atoms: C_24  and  O_25
REMARK                            x       y       z     vdW  Elec       q    Type
REMARK                         _______ _______ _______ _____ _____    ______ ____
ROOT
ATOM      1  N   UNL     1      32.621  -9.335 -23.721  0.00  0.00    -0.353 N 
ATOM      2  C   UNL     1      31.716  -7.947 -22.244  0.00  0.00    +0.017 A 
ATOM      3  C   UNL     1      31.628  -9.269 -21.724  0.00  0.00    +0.017 A 
ATOM      4  C   UNL     1      32.331  -8.020 -23.473  0.00  0.00    +0.057 A 
ATOM      5  C   UNL     1      32.204 -10.121 -22.670  0.00  0.00    +0.063 A 
ATOM      6  C   UNL     1      32.289 -11.505 -22.486  0.00  0.00    +0.091 C 
ATOM      7  C   UNL     1      31.114  -9.825 -20.535  0.00  0.00    +0.001 C 
ATOM      8  C   UNL     1      31.773 -12.033 -21.300  0.00  0.00    +0.008 C 
ATOM      9  C   UNL     1      31.193 -11.208 -20.338  0.00  0.00    +0.000 C 
ATOM     10  H   UNL     1      33.064  -9.671 -24.533  0.00  0.00    +0.166 HD
ENDROOT
BRANCH   2  11
ATOM     11  C   UNL     1      31.270  -6.713 -21.657  0.00  0.00    +0.001 C 
ATOM     12  C   UNL     1      31.727  -6.337 -20.395  0.00  0.00    +0.000 C 
ATOM     13  C   UNL     1      30.379  -5.896 -22.350  0.00  0.00    +0.000 C 
ATOM     14  C   UNL     1      31.293  -5.141 -19.825  0.00  0.00    +0.000 C 
ATOM     15  C   UNL     1      29.945  -4.698 -21.781  0.00  0.00    +0.000 C 
ATOM     16  C   UNL     1      30.402  -4.321 -20.517  0.00  0.00    +0.000 C 
ENDBRANCH   2  11
BRANCH   4  17
ATOM     17  C   UNL     1      32.670  -6.989 -24.427  0.00  0.00    +0.016 C 
ATOM     18  C   UNL     1      33.864  -6.282 -24.290  0.00  0.00    +0.001 C 
ATOM     19  C   UNL     1      31.804  -6.704 -25.480  0.00  0.00    +0.001 C 
ATOM     20  C   UNL     1      34.192  -5.286 -25.209  0.00  0.00    +0.000 C 
ATOM     21  C   UNL     1      32.132  -5.708 -26.399  0.00  0.00    +0.000 C 
ATOM     22  C   UNL     1      33.325  -4.999 -26.264  0.00  0.00    +0.000 C 
ENDBRANCH   4  17
BRANCH   6  24
ATOM     23  O   UNL     1      33.166 -12.051 -24.644  0.00  0.00    -0.245 OA
ATOM     24  C   UNL     1      32.891 -12.374 -23.483  0.00  0.00    +0.339 C 
BRANCH  24  25
ATOM     25  O   UNL     1      33.138 -13.625 -23.006  0.00  0.00    -0.477 OA
ATOM     26  H   UNL     1      33.700 -13.741 -22.265  0.00  0.00    +0.295 HD
ENDBRANCH  24  25
ENDBRANCH   6  24
TORSDOF 4
ENDMDL
MODEL 7
REMARK VINA RESULT:      -9.3      3.079      6.153
REMARK  Name = 5003498
REMARK  4 active torsions:
REMARK  status: ('A' for Active; 'I' for Inactive)
REMARK    1  A    between atoms: C_2  and  C_11
REMARK    2  A    between atoms: C_4  and  C_17
REMARK    3  A    between atoms: C_6  and  C_24
REMARK    4  A    between atoms: C_24  and  O_25
REMARK                            x       y       z     vdW  Elec       q    Type
REMARK                         _______ _______ _______ _____ _____    ______ ____
ROOT
ATOM      1  N   UNL     1      34.893 -22.463 -16.528  0.00  0.00    -0.353 N 
ATOM      2  C   UNL     1      32.855 -22.887 -15.760  0.00  0.00    +0.017 A 
ATOM      3  C   UNL     1      32.729 -22.199 -16.999  0.00  0.00    +0.017 A 
ATOM      4  C   UNL     1      34.197 -23.034 -15.497  0.00  0.00    +0.057 A 
ATOM      5  C   UNL     1      34.022 -21.945 -17.461  0.00  0.00    +0.063 A 
ATOM      6  C   UNL     1      34.277 -21.278 -18.663  0.00  0.00    +0.091 C 
ATOM      7  C   UNL     1      31.635 -21.768 -17.776  0.00  0.00    +0.001 C 
ATOM      8  C   UNL     1      33.177 -20.859 -19.417  0.00  0.00    +0.008 C 
ATOM      9  C   UNL     1      31.875 -21.099 -18.981  0.00  0.00    +0.000 C 
ATOM     10  H   UNL     1      35.875 -22.427 -16.594  0.00  0.00    +0.166 HD
ENDROOT
BRANCH   2  11
ATOM     11  C   UNL     1      31.822 -23.371 -14.885  0.00  0.00    +0.001 C 
ATOM     12  C   UNL     1      31.520 -22.678 -13.714  0.00  0.00    +0.000 C 
ATOM     13  C   UNL     1      31.124 -24.534 -15.209  0.00  0.00    +0.000 C 
ATOM     14  C   UNL     1      30.518 -23.148 -12.865  0.00  0.00    +0.000 C 
ATOM     15  C   UNL     1      30.121 -25.004 -14.360  0.00  0.00    +0.000 C 
ATOM     16  C   UNL     1      29.819 -24.310 -13.187  0.00  0.00    +0.000 C 
ENDBRANCH   2  11
BRANCH   4  17
ATOM     17  C   UNL     1      34.885 -23.652 -14.385  0.00  0.00    +0.016 C 
ATOM     18  C   UNL     1      35.474 -24.905 -14.544  0.00  0.00    +0.001 C 
ATOM     19  C   UNL     1      34.956 -22.994 -13.159  0.00  0.00    +0.001 C 
ATOM     20  C   UNL     1      36.136 -25.503 -13.472  0.00  0.00    +0.000 C 
ATOM     21  C   UNL     1      35.618 -23.592 -12.087  0.00  0.00    +0.000 C 
ATOM     22  C   UNL     1      36.208 -24.846 -12.243  0.00  0.00    +0.000 C 
ENDBRANCH   4  17
BRANCH   6  24
ATOM     23  O   UNL     1      36.047 -21.219 -20.272  0.00  0.00    -0.245 OA
ATOM     24  C   UNL     1      35.630 -21.022 -19.125  0.00  0.00    +0.339 C 
BRANCH  24  25
ATOM     25  O   UNL     1      36.433 -20.524 -18.143  0.00  0.00    -0.477 OA
ATOM     26  H   UNL     1      37.144 -21.039 -17.814  0.00  0.00    +0.295 HD
ENDBRANCH  24  25
ENDBRANCH   6  24
TORSDOF 4
ENDMDL
