MODEL 1
REMARK VINA RESULT:     -13.4      0.000      0.000
REMARK  Name = 9826451
REMARK  9 active torsions:
REMARK  status: ('A' for Active; 'I' for Inactive)
REMARK    1  A    between atoms: C_1  and  N_2
REMARK    2  A    between atoms: C_1  and  C_19
REMARK    3  A    between atoms: C_8  and  O_10
REMARK    4  A    between atoms: O_10  and  C_11
REMARK    5  A    between atoms: C_14  and  O_17
REMARK    6  A    between atoms: C_19  and  O_20
REMARK    7  A    between atoms: O_20  and  C_24
REMARK    8  A    between atoms: C_21  and  C_27
REMARK    9  A    between atoms: C_27  and  C_32
REMARK                            x       y       z     vdW  Elec       q    Type
REMARK                         _______ _______ _______ _____ _____    ______ ____
ROOT
ATOM      1  C   UNL     1      35.648 -21.656 -17.378  0.00  0.00    +0.139 C 
ENDROOT
BRANCH   1   2
ATOM      2  N   UNL     1      34.481 -22.257 -16.777  0.00  0.00    -0.291 N 
ATOM      3  C   UNL     1      33.273 -22.405 -17.590  0.00  0.00    +0.113 C 
ATOM      4  N   UNL     1      35.610 -22.537 -14.714  0.00  0.00    -0.233 NA
ATOM      5  N   UNL     1      34.455 -23.525 -12.846  0.00  0.00    -0.214 NA
ATOM      6  C   UNL     1      34.484 -22.684 -15.443  0.00  0.00    +0.115 C 
ATOM      7  C   UNL     1      33.319 -23.235 -14.949  0.00  0.00    +0.146 C 
ATOM      8  C   UNL     1      33.364 -23.642 -13.630  0.00  0.00    +0.210 C 
ATOM      9  C   UNL     1      35.527 -22.972 -13.443  0.00  0.00    +0.254 C 
BRANCH   8  10
ATOM     10  O   UNL     1      32.247 -24.200 -13.066  0.00  0.00    -0.440 OA
BRANCH  10  11
ATOM     11  C   UNL     1      31.034 -23.946 -13.674  0.00  0.00    +0.147 C 
ATOM     12  C   UNL     1      30.206 -25.004 -14.050  0.00  0.00    +0.041 C 
ATOM     13  C   UNL     1      30.636 -22.630 -13.912  0.00  0.00    +0.041 C 
ATOM     14  C   UNL     1      28.583 -23.431 -14.902  0.00  0.00    +0.139 C 
ATOM     15  C   UNL     1      28.981 -24.746 -14.664  0.00  0.00    +0.040 C 
ATOM     16  C   UNL     1      29.411 -22.373 -14.525  0.00  0.00    +0.040 C 
BRANCH  14  17
ATOM     17  O   UNL     1      27.387 -23.179 -15.501  0.00  0.00    -0.471 OA
ATOM     18  C   UNL     1      27.417 -22.489 -16.749  0.00  0.00    +0.252 C 
ENDBRANCH  14  17
ENDBRANCH  10  11
ENDBRANCH   8  10
ENDBRANCH   1   2
BRANCH   1  19
ATOM     19  C   UNL     1      35.396 -21.391 -18.853  0.00  0.00    +0.227 C 
BRANCH  19  20
ATOM     20  O   UNL     1      36.081 -20.203 -19.245  0.00  0.00    -0.474 OA
BRANCH  20  24
ATOM     21  C   UNL     1      34.547 -18.115 -22.487  0.00  0.00    -0.021 C 
ATOM     22  C   UNL     1      33.729 -18.988 -21.770  0.00  0.00    -0.001 C 
ATOM     23  C   UNL     1      35.880 -17.943 -22.115  0.00  0.00    -0.001 C 
ATOM     24  C   UNL     1      35.578 -19.519 -20.308  0.00  0.00    +0.139 C 
ATOM     25  C   UNL     1      34.244 -19.690 -20.681  0.00  0.00    +0.037 C 
ATOM     26  C   UNL     1      36.395 -18.646 -21.026  0.00  0.00    +0.037 C 
BRANCH  21  27
ATOM     27  C   UNL     1      33.989 -17.357 -23.664  0.00  0.00    +0.047 C 
BRANCH  27  32
ATOM     28  S   UNL     1      34.183 -15.215 -21.942  0.00  0.00    -0.048 S 
ATOM     29  O   UNL     1      33.299 -15.262 -25.699  0.00  0.00    -0.274 OA
ATOM     30  O   UNL     1      32.620 -13.121 -21.664  0.00  0.00    -0.263 OA
ATOM     31  N   UNL     1      32.846 -14.052 -23.780  0.00  0.00    -0.246 N 
ATOM     32  C   UNL     1      34.368 -15.887 -23.623  0.00  0.00    +0.137 C 
ATOM     33  C   UNL     1      33.458 -15.056 -24.500  0.00  0.00    +0.239 C 
ATOM     34  C   UNL     1      33.083 -13.946 -22.436  0.00  0.00    +0.279 C 
ATOM     35  H   UNL     1      32.242 -13.416 -24.230  0.00  0.00    +0.158 HD
ENDBRANCH  27  32
ENDBRANCH  21  27
ENDBRANCH  20  24
ENDBRANCH  19  20
ENDBRANCH   1  19
TORSDOF 9
ENDMDL
MODEL 2
REMARK VINA RESULT:     -13.0      4.117     11.631
REMARK  Name = 9826451
REMARK  9 active torsions:
REMARK  status: ('A' for Active; 'I' for Inactive)
REMARK    1  A    between atoms: C_1  and  N_2
REMARK    2  A    between atoms: C_1  and  C_19
REMARK    3  A    between atoms: C_8  and  O_10
REMARK    4  A    between atoms: O_10  and  C_11
REMARK    5  A    between atoms: C_14  and  O_17
REMARK    6  A    between atoms: C_19  and  O_20
REMARK    7  A    between atoms: O_20  and  C_24
REMARK    8  A    between atoms: C_21  and  C_27
REMARK    9  A    between atoms: C_27  and  C_32
REMARK                            x       y       z     vdW  Elec       q    Type
REMARK                         _______ _______ _______ _____ _____    ______ ____
ROOT
ATOM      1  C   UNL     1      34.536 -19.882 -21.442  0.00  0.00    +0.139 C 
ENDROOT
BRANCH   1   2
ATOM      2  N   UNL     1      34.827 -18.475 -21.584  0.00  0.00    -0.291 N 
ATOM      3  C   UNL     1      35.651 -17.825 -20.563  0.00  0.00    +0.113 C 
ATOM      4  N   UNL     1      33.574 -18.354 -23.590  0.00  0.00    -0.233 NA
ATOM      5  N   UNL     1      33.377 -16.252 -24.749  0.00  0.00    -0.214 NA
ATOM      6  C   UNL     1      34.330 -17.731 -22.662  0.00  0.00    +0.115 C 
ATOM      7  C   UNL     1      34.649 -16.389 -22.709  0.00  0.00    +0.146 C 
ATOM      8  C   UNL     1      34.139 -15.692 -23.787  0.00  0.00    +0.210 C 
ATOM      9  C   UNL     1      33.137 -17.567 -24.590  0.00  0.00    +0.254 C 
BRANCH   8  10
ATOM     10  O   UNL     1      34.411 -14.355 -23.906  0.00  0.00    -0.440 OA
BRANCH  10  11
ATOM     11  C   UNL     1      33.589 -13.477 -23.227  0.00  0.00    +0.147 C 
ATOM     12  C   UNL     1      33.162 -12.301 -23.843  0.00  0.00    +0.041 C 
ATOM     13  C   UNL     1      33.185 -13.768 -21.923  0.00  0.00    +0.041 C 
ATOM     14  C   UNL     1      31.928 -11.706 -21.854  0.00  0.00    +0.139 C 
ATOM     15  C   UNL     1      32.332 -11.416 -23.157  0.00  0.00    +0.040 C 
ATOM     16  C   UNL     1      32.354 -12.883 -21.237  0.00  0.00    +0.040 C 
BRANCH  14  17
ATOM     17  O   UNL     1      31.116 -10.843 -21.184  0.00  0.00    -0.471 OA
ATOM     18  C   UNL     1      30.829  -9.597 -21.818  0.00  0.00    +0.252 C 
ENDBRANCH  14  17
ENDBRANCH  10  11
ENDBRANCH   8  10
ENDBRANCH   1   2
BRANCH   1  19
ATOM     19  C   UNL     1      33.644 -20.110 -20.234  0.00  0.00    +0.227 C 
BRANCH  19  20
ATOM     20  O   UNL     1      33.757 -21.467 -19.810  0.00  0.00    -0.474 OA
BRANCH  20  24
ATOM     21  C   UNL     1      35.665 -22.165 -16.191  0.00  0.00    -0.021 C 
ATOM     22  C   UNL     1      36.348 -21.530 -17.228  0.00  0.00    -0.001 C 
ATOM     23  C   UNL     1      34.341 -22.565 -16.370  0.00  0.00    -0.001 C 
ATOM     24  C   UNL     1      34.383 -21.696 -18.623  0.00  0.00    +0.139 C 
ATOM     25  C   UNL     1      35.708 -21.296 -18.445  0.00  0.00    +0.037 C 
ATOM     26  C   UNL     1      33.701 -22.332 -17.586  0.00  0.00    +0.037 C 
BRANCH  21  27
ATOM     27  C   UNL     1      36.359 -22.418 -14.877  0.00  0.00    +0.047 C 
BRANCH  27  32
ATOM     28  S   UNL     1      35.518 -24.507 -13.290  0.00  0.00    -0.048 S 
ATOM     29  O   UNL     1      38.994 -23.852 -14.833  0.00  0.00    -0.274 OA
ATOM     30  O   UNL     1      36.708 -25.674 -11.258  0.00  0.00    -0.263 OA
ATOM     31  N   UNL     1      38.031 -24.830 -12.971  0.00  0.00    -0.246 N 
ATOM     32  C   UNL     1      36.587 -23.899 -14.632  0.00  0.00    +0.137 C 
ATOM     33  C   UNL     1      38.005 -24.174 -14.184  0.00  0.00    +0.239 C 
ATOM     34  C   UNL     1      36.853 -25.107 -12.330  0.00  0.00    +0.279 C 
ATOM     35  H   UNL     1      38.890 -25.095 -12.569  0.00  0.00    +0.158 HD
ENDBRANCH  27  32
ENDBRANCH  21  27
ENDBRANCH  20  24
ENDBRANCH  19  20
ENDBRANCH   1  19
TORSDOF 9
ENDMDL
MODEL 3
REMARK VINA RESULT:     -13.0      3.596     11.695
REMARK  Name = 9826451
REMARK  9 active torsions:
REMARK  status: ('A' for Active; 'I' for Inactive)
REMARK    1  A    between atoms: C_1  and  N_2
REMARK    2  A    between atoms: C_1  and  C_19
REMARK    3  A    between atoms: C_8  and  O_10
REMARK    4  A    between atoms: O_10  and  C_11
REMARK    5  A    between atoms: C_14  and  O_17
REMARK    6  A    between atoms: C_19  and  O_20
REMARK    7  A    between atoms: O_20  and  C_24
REMARK    8  A    between atoms: C_21  and  C_27
REMARK    9  A    between atoms: C_27  and  C_32
REMARK                            x       y       z     vdW  Elec       q    Type
REMARK                         _______ _______ _______ _____ _____    ______ ____
ROOT
ATOM      1  C   UNL     1      35.318 -17.119 -22.295  0.00  0.00    +0.139 C 
ENDROOT
BRANCH   1   2
ATOM      2  N   UNL     1      34.460 -16.169 -22.963  0.00  0.00    -0.291 N 
ATOM      3  C   UNL     1      34.158 -16.376 -24.380  0.00  0.00    +0.113 C 
ATOM      4  N   UNL     1      34.224 -14.895 -20.980  0.00  0.00    -0.233 NA
ATOM      5  N   UNL     1      32.882 -12.895 -21.000  0.00  0.00    -0.214 NA
ATOM      6  C   UNL     1      33.931 -15.062 -22.287  0.00  0.00    +0.115 C 
ATOM      7  C   UNL     1      33.131 -14.199 -23.008  0.00  0.00    +0.146 C 
ATOM      8  C   UNL     1      32.629 -13.122 -22.306  0.00  0.00    +0.210 C 
ATOM      9  C   UNL     1      33.675 -13.807 -20.408  0.00  0.00    +0.254 C 
BRANCH   8  10
ATOM     10  O   UNL     1      31.826 -12.219 -22.952  0.00  0.00    -0.440 OA
BRANCH  10  11
ATOM     11  C   UNL     1      31.701 -10.965 -22.390  0.00  0.00    +0.147 C 
ATOM     12  C   UNL     1      32.338  -9.871 -22.975  0.00  0.00    +0.041 C 
ATOM     13  C   UNL     1      30.937 -10.791 -21.235  0.00  0.00    +0.041 C 
ATOM     14  C   UNL     1      31.448  -8.430 -21.253  0.00  0.00    +0.139 C 
ATOM     15  C   UNL     1      32.212  -8.604 -22.407  0.00  0.00    +0.040 C 
ATOM     16  C   UNL     1      30.810  -9.524 -20.668  0.00  0.00    +0.040 C 
BRANCH  14  17
ATOM     17  O   UNL     1      31.324  -7.193 -20.699  0.00  0.00    -0.471 OA
ATOM     18  C   UNL     1      32.497  -6.614 -20.130  0.00  0.00    +0.252 C 
ENDBRANCH  14  17
ENDBRANCH  10  11
ENDBRANCH   8  10
ENDBRANCH   1   2
BRANCH   1  19
ATOM     19  C   UNL     1      34.485 -18.233 -21.683  0.00  0.00    +0.227 C 
BRANCH  19  20
ATOM     20  O   UNL     1      35.335 -19.114 -20.952  0.00  0.00    -0.474 OA
BRANCH  20  24
ATOM     21  C   UNL     1      33.495 -21.933 -18.524  0.00  0.00    -0.021 C 
ATOM     22  C   UNL     1      34.881 -21.777 -18.484  0.00  0.00    -0.001 C 
ATOM     23  C   UNL     1      32.728 -21.142 -19.380  0.00  0.00    -0.001 C 
ATOM     24  C   UNL     1      34.732 -20.039 -20.156  0.00  0.00    +0.139 C 
ATOM     25  C   UNL     1      35.500 -20.830 -19.300  0.00  0.00    +0.037 C 
ATOM     26  C   UNL     1      33.347 -20.196 -20.196  0.00  0.00    +0.037 C 
BRANCH  21  27
ATOM     27  C   UNL     1      32.828 -22.956 -17.641  0.00  0.00    +0.047 C 
BRANCH  27  32
ATOM     28  S   UNL     1      33.185 -23.195 -14.921  0.00  0.00    -0.048 S 
ATOM     29  O   UNL     1      30.040 -22.139 -16.891  0.00  0.00    -0.274 OA
ATOM     30  O   UNL     1      31.613 -24.241 -13.093  0.00  0.00    -0.263 OA
ATOM     31  N   UNL     1      30.631 -23.212 -14.929  0.00  0.00    -0.246 N 
ATOM     32  C   UNL     1      32.377 -22.359 -16.320  0.00  0.00    +0.137 C 
ATOM     33  C   UNL     1      30.891 -22.543 -16.107  0.00  0.00    +0.239 C 
ATOM     34  C   UNL     1      31.676 -23.639 -14.153  0.00  0.00    +0.279 C 
ATOM     35  H   UNL     1      29.703 -23.381 -14.650  0.00  0.00    +0.158 HD
ENDBRANCH  27  32
ENDBRANCH  21  27
ENDBRANCH  20  24
ENDBRANCH  19  20
ENDBRANCH   1  19
TORSDOF 9
ENDMDL
MODEL 4
REMARK VINA RESULT:     -13.0      3.777     11.275
REMARK  Name = 9826451
REMARK  9 active torsions:
REMARK  status: ('A' for Active; 'I' for Inactive)
REMARK    1  A    between atoms: C_1  and  N_2
REMARK    2  A    between atoms: C_1  and  C_19
REMARK    3  A    between atoms: C_8  and  O_10
REMARK    4  A    between atoms: O_10  and  C_11
REMARK    5  A    between atoms: C_14  and  O_17
REMARK    6  A    between atoms: C_19  and  O_20
REMARK    7  A    between atoms: O_20  and  C_24
REMARK    8  A    between atoms: C_21  and  C_27
REMARK    9  A    between atoms: C_27  and  C_32
REMARK                            x       y       z     vdW  Elec       q    Type
REMARK                         _______ _______ _______ _____ _____    ______ ____
ROOT
ATOM      1  C   UNL     1      34.347 -21.258 -18.797  0.00  0.00    +0.139 C 
ENDROOT
BRANCH   1   2
ATOM      2  N   UNL     1      33.839 -20.444 -19.875  0.00  0.00    -0.291 N 
ATOM      3  C   UNL     1      32.418 -20.538 -20.214  0.00  0.00    +0.113 C 
ATOM      4  N   UNL     1      35.982 -19.515 -20.267  0.00  0.00    -0.233 NA
ATOM      5  N   UNL     1      36.279 -17.902 -22.030  0.00  0.00    -0.214 NA
ATOM      6  C   UNL     1      34.676 -19.585 -20.599  0.00  0.00    +0.115 C 
ATOM      7  C   UNL     1      34.106 -18.854 -21.621  0.00  0.00    +0.146 C 
ATOM      8  C   UNL     1      34.965 -18.020 -22.310  0.00  0.00    +0.210 C 
ATOM      9  C   UNL     1      36.715 -18.667 -21.012  0.00  0.00    +0.254 C 
BRANCH   8  10
ATOM     10  O   UNL     1      34.475 -17.260 -23.339  0.00  0.00    -0.440 OA
BRANCH  10  11
ATOM     11  C   UNL     1      34.092 -15.966 -23.046  0.00  0.00    +0.147 C 
ATOM     12  C   UNL     1      33.559 -15.152 -24.045  0.00  0.00    +0.041 C 
ATOM     13  C   UNL     1      34.237 -15.473 -21.748  0.00  0.00    +0.041 C 
ATOM     14  C   UNL     1      33.317 -13.353 -22.452  0.00  0.00    +0.139 C 
ATOM     15  C   UNL     1      33.172 -13.846 -23.748  0.00  0.00    +0.040 C 
ATOM     16  C   UNL     1      33.849 -14.168 -21.451  0.00  0.00    +0.040 C 
BRANCH  14  17
ATOM     17  O   UNL     1      32.938 -12.078 -22.161  0.00  0.00    -0.471 OA
ATOM     18  C   UNL     1      31.612 -11.891 -21.668  0.00  0.00    +0.252 C 
ENDBRANCH  14  17
ENDBRANCH  10  11
ENDBRANCH   8  10
ENDBRANCH   1   2
BRANCH   1  19
ATOM     19  C   UNL     1      33.194 -21.872 -18.021  0.00  0.00    +0.227 C 
BRANCH  19  20
ATOM     20  O   UNL     1      33.627 -23.086 -17.409  0.00  0.00    -0.474 OA
BRANCH  20  24
ATOM     21  C   UNL     1      35.625 -22.771 -13.784  0.00  0.00    -0.021 C 
ATOM     22  C   UNL     1      34.396 -23.426 -13.848  0.00  0.00    -0.001 C 
ATOM     23  C   UNL     1      36.183 -22.221 -14.939  0.00  0.00    -0.001 C 
ATOM     24  C   UNL     1      34.282 -22.982 -16.220  0.00  0.00    +0.139 C 
ATOM     25  C   UNL     1      33.724 -23.532 -15.066  0.00  0.00    +0.037 C 
ATOM     26  C   UNL     1      35.511 -22.326 -16.156  0.00  0.00    +0.037 C 
BRANCH  21  27
ATOM     27  C   UNL     1      36.350 -22.656 -12.468  0.00  0.00    +0.047 C 
BRANCH  27  32
ATOM     28  S   UNL     1      38.107 -24.384 -13.700  0.00  0.00    -0.048 S 
ATOM     29  O   UNL     1      35.637 -25.055 -10.811  0.00  0.00    -0.274 OA
ATOM     30  O   UNL     1      37.766 -26.869 -14.485  0.00  0.00    -0.263 OA
ATOM     31  N   UNL     1      36.616 -26.143 -12.602  0.00  0.00    -0.246 N 
ATOM     32  C   UNL     1      37.223 -23.868 -12.195  0.00  0.00    +0.137 C 
ATOM     33  C   UNL     1      36.397 -25.062 -11.774  0.00  0.00    +0.239 C 
ATOM     34  C   UNL     1      37.471 -26.014 -13.665  0.00  0.00    +0.279 C 
ATOM     35  H   UNL     1      36.161 -26.999 -12.431  0.00  0.00    +0.158 HD
ENDBRANCH  27  32
ENDBRANCH  21  27
ENDBRANCH  20  24
ENDBRANCH  19  20
ENDBRANCH   1  19
TORSDOF 9
ENDMDL
MODEL 5
REMARK VINA RESULT:     -12.7      3.509     11.749
REMARK  Name = 9826451
REMARK  9 active torsions:
REMARK  status: ('A' for Active; 'I' for Inactive)
REMARK    1  A    between atoms: C_1  and  N_2
REMARK    2  A    between atoms: C_1  and  C_19
REMARK    3  A    between atoms: C_8  and  O_10
REMARK    4  A    between atoms: O_10  and  C_11
REMARK    5  A    between atoms: C_14  and  O_17
REMARK    6  A    between atoms: C_19  and  O_20
REMARK    7  A    between atoms: O_20  and  C_24
REMARK    8  A    between atoms: C_21  and  C_27
REMARK    9  A    between atoms: C_27  and  C_32
REMARK                            x       y       z     vdW  Elec       q    Type
REMARK                         _______ _______ _______ _____ _____    ______ ____
ROOT
ATOM      1  C   UNL     1      35.098 -17.394 -22.090  0.00  0.00    +0.139 C 
ENDROOT
BRANCH   1   2
ATOM      2  N   UNL     1      34.400 -16.398 -22.869  0.00  0.00    -0.291 N 
ATOM      3  C   UNL     1      34.153 -16.666 -24.286  0.00  0.00    +0.113 C 
ATOM      4  N   UNL     1      34.213 -14.970 -20.989  0.00  0.00    -0.233 NA
ATOM      5  N   UNL     1      33.127 -12.831 -21.219  0.00  0.00    -0.214 NA
ATOM      6  C   UNL     1      33.973 -15.192 -22.298  0.00  0.00    +0.115 C 
ATOM      7  C   UNL     1      33.325 -14.293 -23.121  0.00  0.00    +0.146 C 
ATOM      8  C   UNL     1      32.921 -13.118 -22.521  0.00  0.00    +0.210 C 
ATOM      9  C   UNL     1      33.770 -13.787 -20.522  0.00  0.00    +0.254 C 
BRANCH   8  10
ATOM     10  O   UNL     1      32.270 -12.174 -23.271  0.00  0.00    -0.440 OA
BRANCH  10  11
ATOM     11  C   UNL     1      31.982 -10.968 -22.663  0.00  0.00    +0.147 C 
ATOM     12  C   UNL     1      32.585  -9.796 -23.117  0.00  0.00    +0.041 C 
ATOM     13  C   UNL     1      31.086 -10.923 -21.594  0.00  0.00    +0.041 C 
ATOM     14  C   UNL     1      31.398  -8.533 -21.435  0.00  0.00    +0.139 C 
ATOM     15  C   UNL     1      32.294  -8.578 -22.503  0.00  0.00    +0.040 C 
ATOM     16  C   UNL     1      30.793  -9.706 -20.981  0.00  0.00    +0.040 C 
BRANCH  14  17
ATOM     17  O   UNL     1      31.112  -7.345 -20.836  0.00  0.00    -0.471 OA
ATOM     18  C   UNL     1      32.102  -6.802 -19.963  0.00  0.00    +0.252 C 
ENDBRANCH  14  17
ENDBRANCH  10  11
ENDBRANCH   8  10
ENDBRANCH   1   2
BRANCH   1  19
ATOM     19  C   UNL     1      34.568 -18.779 -22.421  0.00  0.00    +0.227 C 
BRANCH  19  20
ATOM     20  O   UNL     1      33.448 -19.070 -21.587  0.00  0.00    -0.474 OA
BRANCH  20  24
ATOM     21  C   UNL     1      34.060 -21.719 -18.451  0.00  0.00    -0.021 C 
ATOM     22  C   UNL     1      35.151 -21.197 -19.146  0.00  0.00    -0.001 C 
ATOM     23  C   UNL     1      32.763 -21.352 -18.811  0.00  0.00    -0.001 C 
ATOM     24  C   UNL     1      33.649 -19.939 -20.559  0.00  0.00    +0.139 C 
ATOM     25  C   UNL     1      34.946 -20.307 -20.200  0.00  0.00    +0.037 C 
ATOM     26  C   UNL     1      32.558 -20.462 -19.864  0.00  0.00    +0.037 C 
BRANCH  21  27
ATOM     27  C   UNL     1      34.283 -22.681 -17.313  0.00  0.00    +0.047 C 
BRANCH  27  32
ATOM     28  S   UNL     1      36.589 -22.041 -15.947  0.00  0.00    -0.048 S 
ATOM     29  O   UNL     1      33.067 -22.819 -14.573  0.00  0.00    -0.274 OA
ATOM     30  O   UNL     1      37.605 -23.085 -13.759  0.00  0.00    -0.263 OA
ATOM     31  N   UNL     1      35.293 -23.029 -13.980  0.00  0.00    -0.246 N 
ATOM     32  C   UNL     1      34.774 -21.975 -16.061  0.00  0.00    +0.137 C 
ATOM     33  C   UNL     1      34.258 -22.647 -14.808  0.00  0.00    +0.239 C 
ATOM     34  C   UNL     1      36.586 -22.806 -14.373  0.00  0.00    +0.279 C 
ATOM     35  H   UNL     1      35.103 -23.458 -13.115  0.00  0.00    +0.158 HD
ENDBRANCH  27  32
ENDBRANCH  21  27
ENDBRANCH  20  24
ENDBRANCH  19  20
ENDBRANCH   1  19
TORSDOF 9
ENDMDL
MODEL 6
REMARK VINA RESULT:     -12.7      2.240      3.601
REMARK  Name = 9826451
REMARK  9 active torsions:
REMARK  status: ('A' for Active; 'I' for Inactive)
REMARK    1  A    between atoms: C_1  and  N_2
REMARK    2  A    between atoms: C_1  and  C_19
REMARK    3  A    between atoms: C_8  and  O_10
REMARK    4  A    between atoms: O_10  and  C_11
REMARK    5  A    between atoms: C_14  and  O_17
REMARK    6  A    between atoms: C_19  and  O_20
REMARK    7  A    between atoms: O_20  and  C_24
REMARK    8  A    between atoms: C_21  and  C_27
REMARK    9  A    between atoms: C_27  and  C_32
REMARK                            x       y       z     vdW  Elec       q    Type
REMARK                         _______ _______ _______ _____ _____    ______ ____
ROOT
ATOM      1  C   UNL     1      34.877 -19.843 -20.458  0.00  0.00    +0.139 C 
ENDROOT
BRANCH   1   2
ATOM      2  N   UNL     1      34.126 -20.704 -19.576  0.00  0.00    -0.291 N 
ATOM      3  C   UNL     1      32.719 -20.965 -19.885  0.00  0.00    +0.113 C 
ATOM      4  N   UNL     1      36.010 -21.017 -18.176  0.00  0.00    -0.233 NA
ATOM      5  N   UNL     1      35.821 -22.401 -16.213  0.00  0.00    -0.214 NA
ATOM      6  C   UNL     1      34.712 -21.274 -18.438  0.00  0.00    +0.115 C 
ATOM      7  C   UNL     1      33.914 -22.073 -17.645  0.00  0.00    +0.146 C 
ATOM      8  C   UNL     1      34.529 -22.616 -16.534  0.00  0.00    +0.210 C 
ATOM      9  C   UNL     1      36.493 -21.604 -17.065  0.00  0.00    +0.254 C 
BRANCH   8  10
ATOM     10  O   UNL     1      33.804 -23.421 -15.696  0.00  0.00    -0.440 OA
BRANCH  10  11
ATOM     11  C   UNL     1      32.495 -23.061 -15.445  0.00  0.00    +0.147 C 
ATOM     12  C   UNL     1      32.112 -22.672 -14.161  0.00  0.00    +0.041 C 
ATOM     13  C   UNL     1      31.555 -23.084 -16.476  0.00  0.00    +0.041 C 
ATOM     14  C   UNL     1      29.851 -22.332 -14.938  0.00  0.00    +0.139 C 
ATOM     15  C   UNL     1      30.790 -22.308 -13.908  0.00  0.00    +0.040 C 
ATOM     16  C   UNL     1      30.234 -22.719 -16.223  0.00  0.00    +0.040 C 
BRANCH  14  17
ATOM     17  O   UNL     1      28.560 -21.975 -14.692  0.00  0.00    -0.471 OA
ATOM     18  C   UNL     1      27.656 -22.003 -15.795  0.00  0.00    +0.252 C 
ENDBRANCH  14  17
ENDBRANCH  10  11
ENDBRANCH   8  10
ENDBRANCH   1   2
BRANCH   1  19
ATOM     19  C   UNL     1      34.005 -19.399 -21.620  0.00  0.00    +0.227 C 
BRANCH  19  20
ATOM     20  O   UNL     1      34.763 -18.561 -22.490  0.00  0.00    -0.474 OA
BRANCH  20  24
ATOM     21  C   UNL     1      34.083 -14.474 -22.242  0.00  0.00    -0.021 C 
ATOM     22  C   UNL     1      34.161 -15.093 -23.489  0.00  0.00    -0.001 C 
ATOM     23  C   UNL     1      34.234 -15.228 -21.078  0.00  0.00    -0.001 C 
ATOM     24  C   UNL     1      34.541 -17.220 -22.409  0.00  0.00    +0.139 C 
ATOM     25  C   UNL     1      34.390 -16.466 -23.573  0.00  0.00    +0.037 C 
ATOM     26  C   UNL     1      34.464 -16.600 -21.162  0.00  0.00    +0.037 C 
BRANCH  21  27
ATOM     27  C   UNL     1      33.836 -12.990 -22.152  0.00  0.00    +0.047 C 
BRANCH  27  32
ATOM     28  S   UNL     1      32.245 -11.009 -23.216  0.00  0.00    -0.048 S 
ATOM     29  O   UNL     1      31.504 -13.450 -20.320  0.00  0.00    -0.274 OA
ATOM     30  O   UNL     1      30.734  -9.225 -22.016  0.00  0.00    -0.263 OA
ATOM     31  N   UNL     1      30.990 -11.304 -21.012  0.00  0.00    -0.246 N 
ATOM     32  C   UNL     1      32.383 -12.640 -22.421  0.00  0.00    +0.137 C 
ATOM     33  C   UNL     1      31.592 -12.538 -21.136  0.00  0.00    +0.239 C 
ATOM     34  C   UNL     1      31.191 -10.357 -21.981  0.00  0.00    +0.279 C 
ATOM     35  H   UNL     1      30.421 -11.105 -20.233  0.00  0.00    +0.158 HD
ENDBRANCH  27  32
ENDBRANCH  21  27
ENDBRANCH  20  24
ENDBRANCH  19  20
ENDBRANCH   1  19
TORSDOF 9
ENDMDL
MODEL 7
REMARK VINA RESULT:     -12.5      2.611      5.050
REMARK  Name = 9826451
REMARK  9 active torsions:
REMARK  status: ('A' for Active; 'I' for Inactive)
REMARK    1  A    between atoms: C_1  and  N_2
REMARK    2  A    between atoms: C_1  and  C_19
REMARK    3  A    between atoms: C_8  and  O_10
REMARK    4  A    between atoms: O_10  and  C_11
REMARK    5  A    between atoms: C_14  and  O_17
REMARK    6  A    between atoms: C_19  and  O_20
REMARK    7  A    between atoms: O_20  and  C_24
REMARK    8  A    between atoms: C_21  and  C_27
REMARK    9  A    between atoms: C_27  and  C_32
REMARK                            x       y       z     vdW  Elec       q    Type
REMARK                         _______ _______ _______ _____ _____    ______ ____
ROOT
ATOM      1  C   UNL     1      33.900 -21.341 -19.213  0.00  0.00    +0.139 C 
ENDROOT
BRANCH   1   2
ATOM      2  N   UNL     1      34.508 -21.772 -17.976  0.00  0.00    -0.291 N 
ATOM      3  C   UNL     1      35.950 -21.593 -17.806  0.00  0.00    +0.113 C 
ATOM      4  N   UNL     1      32.421 -22.516 -17.139  0.00  0.00    -0.233 NA
ATOM      5  N   UNL     1      32.302 -23.516 -14.950  0.00  0.00    -0.214 NA
ATOM      6  C   UNL     1      33.749 -22.363 -16.957  0.00  0.00    +0.115 C 
ATOM      7  C   UNL     1      34.416 -22.756 -15.814  0.00  0.00    +0.146 C 
ATOM      8  C   UNL     1      33.633 -23.333 -14.834  0.00  0.00    +0.210 C 
ATOM      9  C   UNL     1      31.769 -23.092 -16.111  0.00  0.00    +0.254 C 
BRANCH   8  10
ATOM     10  O   UNL     1      34.221 -23.750 -13.669  0.00  0.00    -0.440 OA
BRANCH  10  11
ATOM     11  C   UNL     1      35.442 -24.388 -13.768  0.00  0.00    +0.147 C 
ATOM     12  C   UNL     1      36.514 -23.968 -12.981  0.00  0.00    +0.041 C 
ATOM     13  C   UNL     1      35.603 -25.453 -14.655  0.00  0.00    +0.041 C 
ATOM     14  C   UNL     1      37.907 -25.677 -13.967  0.00  0.00    +0.139 C 
ATOM     15  C   UNL     1      37.747 -24.613 -13.080  0.00  0.00    +0.040 C 
ATOM     16  C   UNL     1      36.835 -26.098 -14.753  0.00  0.00    +0.040 C 
BRANCH  14  17
ATOM     17  O   UNL     1      39.110 -26.307 -14.063  0.00  0.00    -0.471 OA
ATOM     18  C   UNL     1      40.208 -25.541 -14.557  0.00  0.00    +0.252 C 
ENDBRANCH  14  17
ENDBRANCH  10  11
ENDBRANCH   8  10
ENDBRANCH   1   2
BRANCH   1  19
ATOM     19  C   UNL     1      34.831 -20.391 -19.946  0.00  0.00    +0.227 C 
BRANCH  19  20
ATOM     20  O   UNL     1      34.373 -20.217 -21.286  0.00  0.00    -0.474 OA
BRANCH  20  24
ATOM     21  C   UNL     1      34.450 -16.365 -22.829  0.00  0.00    -0.021 C 
ATOM     22  C   UNL     1      34.895 -16.604 -21.529  0.00  0.00    -0.001 C 
ATOM     23  C   UNL     1      33.979 -17.420 -23.610  0.00  0.00    -0.001 C 
ATOM     24  C   UNL     1      34.398 -18.954 -21.791  0.00  0.00    +0.139 C 
ATOM     25  C   UNL     1      34.870 -17.898 -21.010  0.00  0.00    +0.037 C 
ATOM     26  C   UNL     1      33.952 -18.714 -23.091  0.00  0.00    +0.037 C 
BRANCH  21  27
ATOM     27  C   UNL     1      34.478 -14.966 -23.389  0.00  0.00    +0.047 C 
BRANCH  27  32
ATOM     28  S   UNL     1      32.762 -12.998 -24.263  0.00  0.00    -0.048 S 
ATOM     29  O   UNL     1      33.993 -13.757 -20.685  0.00  0.00    -0.274 OA
ATOM     30  O   UNL     1      32.629 -10.455 -23.611  0.00  0.00    -0.263 OA
ATOM     31  N   UNL     1      33.326 -11.970 -21.995  0.00  0.00    -0.246 N 
ATOM     32  C   UNL     1      33.268 -14.157 -22.956  0.00  0.00    +0.137 C 
ATOM     33  C   UNL     1      33.577 -13.304 -21.746  0.00  0.00    +0.239 C 
ATOM     34  C   UNL     1      32.891 -11.587 -23.235  0.00  0.00    +0.279 C 
ATOM     35  H   UNL     1      33.460 -11.300 -21.286  0.00  0.00    +0.158 HD
ENDBRANCH  27  32
ENDBRANCH  21  27
ENDBRANCH  20  24
ENDBRANCH  19  20
ENDBRANCH   1  19
TORSDOF 9
ENDMDL
MODEL 8
REMARK VINA RESULT:     -12.4      3.107      4.930
REMARK  Name = 9826451
REMARK  9 active torsions:
REMARK  status: ('A' for Active; 'I' for Inactive)
REMARK    1  A    between atoms: C_1  and  N_2
REMARK    2  A    between atoms: C_1  and  C_19
REMARK    3  A    between atoms: C_8  and  O_10
REMARK    4  A    between atoms: O_10  and  C_11
REMARK    5  A    between atoms: C_14  and  O_17
REMARK    6  A    between atoms: C_19  and  O_20
REMARK    7  A    between atoms: O_20  and  C_24
REMARK    8  A    between atoms: C_21  and  C_27
REMARK    9  A    between atoms: C_27  and  C_32
REMARK                            x       y       z     vdW  Elec       q    Type
REMARK                         _______ _______ _______ _____ _____    ______ ____
ROOT
ATOM      1  C   UNL     1      34.812 -19.692 -20.610  0.00  0.00    +0.139 C 
ENDROOT
BRANCH   1   2
ATOM      2  N   UNL     1      34.076 -20.612 -19.775  0.00  0.00    -0.291 N 
ATOM      3  C   UNL     1      32.685 -20.911 -20.120  0.00  0.00    +0.113 C 
ATOM      4  N   UNL     1      35.946 -20.913 -18.353  0.00  0.00    -0.233 NA
ATOM      5  N   UNL     1      35.773 -22.377 -16.448  0.00  0.00    -0.214 NA
ATOM      6  C   UNL     1      34.662 -21.205 -18.649  0.00  0.00    +0.115 C 
ATOM      7  C   UNL     1      33.880 -22.061 -17.902  0.00  0.00    +0.146 C 
ATOM      8  C   UNL     1      34.494 -22.624 -16.801  0.00  0.00    +0.210 C 
ATOM      9  C   UNL     1      36.430 -21.524 -17.256  0.00  0.00    +0.254 C 
BRANCH   8  10
ATOM     10  O   UNL     1      33.784 -23.486 -16.008  0.00  0.00    -0.440 OA
BRANCH  10  11
ATOM     11  C   UNL     1      34.321 -23.805 -14.777  0.00  0.00    +0.147 C 
ATOM     12  C   UNL     1      35.466 -24.598 -14.698  0.00  0.00    +0.041 C 
ATOM     13  C   UNL     1      33.719 -23.333 -13.609  0.00  0.00    +0.041 C 
ATOM     14  C   UNL     1      35.407 -24.447 -12.289  0.00  0.00    +0.139 C 
ATOM     15  C   UNL     1      36.009 -24.919 -13.455  0.00  0.00    +0.040 C 
ATOM     16  C   UNL     1      34.262 -23.653 -12.366  0.00  0.00    +0.040 C 
BRANCH  14  17
ATOM     17  O   UNL     1      35.937 -24.760 -11.074  0.00  0.00    -0.471 OA
ATOM     18  C   UNL     1      35.621 -23.894  -9.985  0.00  0.00    +0.252 C 
ENDBRANCH  14  17
ENDBRANCH  10  11
ENDBRANCH   8  10
ENDBRANCH   1   2
BRANCH   1  19
ATOM     19  C   UNL     1      33.964 -19.279 -21.802  0.00  0.00    +0.227 C 
BRANCH  19  20
ATOM     20  O   UNL     1      34.728 -18.430 -22.656  0.00  0.00    -0.474 OA
BRANCH  20  24
ATOM     21  C   UNL     1      34.062 -14.346 -22.350  0.00  0.00    -0.021 C 
ATOM     22  C   UNL     1      34.109 -14.952 -23.605  0.00  0.00    -0.001 C 
ATOM     23  C   UNL     1      34.239 -15.112 -21.197  0.00  0.00    -0.001 C 
ATOM     24  C   UNL     1      34.510 -17.091 -22.556  0.00  0.00    +0.139 C 
ATOM     25  C   UNL     1      34.333 -16.324 -23.708  0.00  0.00    +0.037 C 
ATOM     26  C   UNL     1      34.464 -16.484 -21.301  0.00  0.00    +0.037 C 
BRANCH  21  27
ATOM     27  C   UNL     1      33.820 -12.862 -22.239  0.00  0.00    +0.047 C 
BRANCH  27  32
ATOM     28  S   UNL     1      32.166 -10.911 -23.262  0.00  0.00    -0.048 S 
ATOM     29  O   UNL     1      31.619 -13.240 -20.234  0.00  0.00    -0.274 OA
ATOM     30  O   UNL     1      30.750  -9.074 -22.026  0.00  0.00    -0.263 OA
ATOM     31  N   UNL     1      31.067 -11.116 -20.966  0.00  0.00    -0.246 N 
ATOM     32  C   UNL     1      32.353 -12.512 -22.418  0.00  0.00    +0.137 C 
ATOM     33  C   UNL     1      31.654 -12.359 -21.086  0.00  0.00    +0.239 C 
ATOM     34  C   UNL     1      31.204 -10.207 -21.981  0.00  0.00    +0.279 C 
ATOM     35  H   UNL     1      30.555 -10.886 -20.157  0.00  0.00    +0.158 HD
ENDBRANCH  27  32
ENDBRANCH  21  27
ENDBRANCH  20  24
ENDBRANCH  19  20
ENDBRANCH   1  19
TORSDOF 9
ENDMDL
MODEL 9
REMARK VINA RESULT:     -12.4      5.420      9.892
REMARK  Name = 9826451
REMARK  9 active torsions:
REMARK  status: ('A' for Active; 'I' for Inactive)
REMARK    1  A    between atoms: C_1  and  N_2
REMARK    2  A    between atoms: C_1  and  C_19
REMARK    3  A    between atoms: C_8  and  O_10
REMARK    4  A    between atoms: O_10  and  C_11
REMARK    5  A    between atoms: C_14  and  O_17
REMARK    6  A    between atoms: C_19  and  O_20
REMARK    7  A    between atoms: O_20  and  C_24
REMARK    8  A    between atoms: C_21  and  C_27
REMARK    9  A    between atoms: C_27  and  C_32
REMARK                            x       y       z     vdW  Elec       q    Type
REMARK                         _______ _______ _______ _____ _____    ______ ____
ROOT
ATOM      1  C   UNL     1      33.062 -14.000 -23.927  0.00  0.00    +0.139 C 
ENDROOT
BRANCH   1   2
ATOM      2  N   UNL     1      33.704 -14.791 -22.904  0.00  0.00    -0.291 N 
ATOM      3  C   UNL     1      34.117 -14.130 -21.665  0.00  0.00    +0.113 C 
ATOM      4  N   UNL     1      33.552 -16.745 -24.234  0.00  0.00    -0.233 NA
ATOM      5  N   UNL     1      34.427 -18.828 -23.397  0.00  0.00    -0.214 NA
ATOM      6  C   UNL     1      33.944 -16.160 -23.083  0.00  0.00    +0.115 C 
ATOM      7  C   UNL     1      34.575 -16.834 -22.057  0.00  0.00    +0.146 C 
ATOM      8  C   UNL     1      34.792 -18.180 -22.272  0.00  0.00    +0.210 C 
ATOM      9  C   UNL     1      33.821 -18.061 -24.323  0.00  0.00    +0.254 C 
BRANCH   8  10
ATOM     10  O   UNL     1      35.413 -18.920 -21.300  0.00  0.00    -0.440 OA
BRANCH  10  11
ATOM     11  C   UNL     1      34.623 -19.760 -20.540  0.00  0.00    +0.147 C 
ATOM     12  C   UNL     1      35.212 -20.746 -19.750  0.00  0.00    +0.041 C 
ATOM     13  C   UNL     1      33.235 -19.621 -20.564  0.00  0.00    +0.041 C 
ATOM     14  C   UNL     1      33.027 -21.456 -19.006  0.00  0.00    +0.139 C 
ATOM     15  C   UNL     1      34.414 -21.595 -18.983  0.00  0.00    +0.040 C 
ATOM     16  C   UNL     1      32.437 -20.469 -19.796  0.00  0.00    +0.040 C 
BRANCH  14  17
ATOM     17  O   UNL     1      32.247 -22.283 -18.257  0.00  0.00    -0.471 OA
ATOM     18  C   UNL     1      32.769 -22.704 -16.998  0.00  0.00    +0.252 C 
ENDBRANCH  14  17
ENDBRANCH  10  11
ENDBRANCH   8  10
ENDBRANCH   1   2
BRANCH   1  19
ATOM     19  C   UNL     1      33.223 -12.521 -23.619  0.00  0.00    +0.227 C 
BRANCH  19  20
ATOM     20  O   UNL     1      32.098 -12.068 -22.867  0.00  0.00    -0.474 OA
BRANCH  20  24
ATOM     21  C   UNL     1      31.880  -8.005 -22.049  0.00  0.00    -0.021 C 
ATOM     22  C   UNL     1      32.813  -8.481 -22.970  0.00  0.00    -0.001 C 
ATOM     23  C   UNL     1      31.021  -8.894 -21.403  0.00  0.00    -0.001 C 
ATOM     24  C   UNL     1      32.027 -10.735 -22.599  0.00  0.00    +0.139 C 
ATOM     25  C   UNL     1      32.887  -9.847 -23.245  0.00  0.00    +0.037 C 
ATOM     26  C   UNL     1      31.095 -10.258 -21.677  0.00  0.00    +0.037 C 
BRANCH  21  27
ATOM     27  C   UNL     1      31.801  -6.529 -21.753  0.00  0.00    +0.047 C 
BRANCH  27  32
ATOM     28  S   UNL     1      30.872  -5.470 -24.120  0.00  0.00    -0.048 S 
ATOM     29  O   UNL     1      29.995  -4.492 -20.491  0.00  0.00    -0.274 OA
ATOM     30  O   UNL     1      30.495  -2.965 -24.820  0.00  0.00    -0.263 OA
ATOM     31  N   UNL     1      30.181  -3.543 -22.592  0.00  0.00    -0.246 N 
ATOM     32  C   UNL     1      30.572  -5.891 -22.375  0.00  0.00    +0.137 C 
ATOM     33  C   UNL     1      30.220  -4.588 -21.693  0.00  0.00    +0.239 C 
ATOM     34  C   UNL     1      30.482  -3.777 -23.908  0.00  0.00    +0.279 C 
ATOM     35  H   UNL     1      29.940  -2.637 -22.291  0.00  0.00    +0.158 HD
ENDBRANCH  27  32
ENDBRANCH  21  27
ENDBRANCH  20  24
ENDBRANCH  19  20
ENDBRANCH   1  19
TORSDOF 9
ENDMDL
