MODEL 1
REMARK VINA RESULT:     -11.8      0.000      0.000
REMARK  Name = 5329103
REMARK  7 active torsions:
REMARK  status: ('A' for Active; 'I' for Inactive)
REMARK    1  A    between atoms: C_2  and  C_24
REMARK    2  A    between atoms: C_4  and  C_13
REMARK    3  A    between atoms: N_23  and  C_26
REMARK    4  A    between atoms: C_26  and  C_27
REMARK    5  A    between atoms: C_27  and  N_28
REMARK    6  A    between atoms: N_28  and  C_30
REMARK    7  A    between atoms: N_28  and  C_32
REMARK                            x       y       z     vdW  Elec       q    Type
REMARK                         _______ _______ _______ _____ _____    ______ ____
ROOT
ATOM      1  N   UNL     1      33.831 -12.774 -22.241  0.00  0.00    -0.357 N 
ATOM      2  C   UNL     1      33.423 -14.433 -23.660  0.00  0.00    +0.062 A 
ATOM      3  C   UNL     1      33.215 -13.204 -24.330  0.00  0.00    -0.001 A 
ATOM      4  C   UNL     1      33.474 -12.224 -23.429  0.00  0.00    +0.053 A 
ATOM      5  C   UNL     1      33.803 -14.139 -22.369  0.00  0.00    +0.038 A 
ATOM      6  C   UNL     1      32.797 -13.034 -25.739  0.00  0.00    +0.033 C 
ATOM      7  C   UNL     1      34.147 -15.015 -21.231  0.00  0.00    +0.050 C 
ATOM      8  H   UNL     1      34.069 -12.278 -21.425  0.00  0.00    +0.166 HD
ENDROOT
BRANCH   4  13
ATOM      9 CL   UNL     1      33.650  -4.950 -23.991  0.00  0.00    -0.082 Cl
ATOM     10  O   UNL     1      31.145 -11.751 -21.886  0.00  0.00    -0.270 OA
ATOM     11  N   UNL     1      30.666  -9.445 -21.703  0.00  0.00    -0.280 N 
ATOM     12  C   UNL     1      32.518 -10.025 -22.916  0.00  0.00    +0.056 C 
ATOM     13  C   UNL     1      33.445 -10.792 -23.495  0.00  0.00    +0.021 C 
ATOM     14  C   UNL     1      32.405  -8.570 -22.928  0.00  0.00    +0.019 C 
ATOM     15  C   UNL     1      31.264  -8.272 -22.178  0.00  0.00    +0.051 C 
ATOM     16  C   UNL     1      31.377 -10.578 -22.113  0.00  0.00    +0.250 C 
ATOM     17  C   UNL     1      33.158  -7.562 -23.499  0.00  0.00    +0.013 C 
ATOM     18  C   UNL     1      30.836  -6.976 -21.968  0.00  0.00    +0.016 C 
ATOM     19  C   UNL     1      32.743  -6.241 -23.299  0.00  0.00    +0.058 C 
ATOM     20  C   UNL     1      31.592  -5.951 -22.541  0.00  0.00    +0.013 C 
ATOM     21  H   UNL     1      29.851  -9.468 -21.152  0.00  0.00    +0.155 HD
ENDBRANCH   4  13
BRANCH   2  24
ATOM     22  O   UNL     1      32.736 -15.999 -25.282  0.00  0.00    -0.270 OA
ATOM     23  N   UNL     1      33.813 -16.808 -23.410  0.00  0.00    -0.303 N 
ATOM     24  C   UNL     1      33.279 -15.763 -24.183  0.00  0.00    +0.247 C 
ATOM     25  H   UNL     1      34.235 -16.584 -22.549  0.00  0.00    +0.150 HD
BRANCH  23  26
ATOM     26  C   UNL     1      33.774 -18.195 -23.815  0.00  0.00    +0.067 C 
BRANCH  26  27
ATOM     27  C   UNL     1      34.632 -19.059 -22.902  0.00  0.00    -0.056 C 
BRANCH  27  28
ATOM     28  N   UNL     1      34.454 -18.658 -21.512  0.00  0.00    +0.388 N 
ATOM     29  H   UNL     1      33.914 -17.793 -21.498  0.00  0.00    -0.080 HD
BRANCH  28  30
ATOM     30  C   UNL     1      35.749 -18.410 -20.876  0.00  0.00    -0.077 C 
ATOM     31  C   UNL     1      36.845 -18.230 -21.913  0.00  0.00    -0.025 C 
ENDBRANCH  28  30
BRANCH  28  32
ATOM     32  C   UNL     1      33.713 -19.681 -20.771  0.00  0.00    -0.077 C 
ATOM     33  C   UNL     1      34.640 -20.501 -19.891  0.00  0.00    -0.025 C 
ENDBRANCH  28  32
ENDBRANCH  27  28
ENDBRANCH  26  27
ENDBRANCH  23  26
ENDBRANCH   2  24
TORSDOF 7
ENDMDL
MODEL 2
REMARK VINA RESULT:     -11.3      4.421     10.441
REMARK  Name = 5329103
REMARK  7 active torsions:
REMARK  status: ('A' for Active; 'I' for Inactive)
REMARK    1  A    between atoms: C_2  and  C_24
REMARK    2  A    between atoms: C_4  and  C_13
REMARK    3  A    between atoms: N_23  and  C_26
REMARK    4  A    between atoms: C_26  and  C_27
REMARK    5  A    between atoms: C_27  and  N_28
REMARK    6  A    between atoms: N_28  and  C_30
REMARK    7  A    between atoms: N_28  and  C_32
REMARK                            x       y       z     vdW  Elec       q    Type
REMARK                         _______ _______ _______ _____ _____    ______ ____
ROOT
ATOM      1  N   UNL     1      34.441 -19.780 -22.603  0.00  0.00    -0.357 N 
ATOM      2  C   UNL     1      34.236 -17.621 -23.082  0.00  0.00    +0.062 A 
ATOM      3  C   UNL     1      34.569 -17.750 -21.712  0.00  0.00    -0.001 A 
ATOM      4  C   UNL     1      34.683 -19.079 -21.467  0.00  0.00    +0.053 A 
ATOM      5  C   UNL     1      34.162 -18.892 -23.609  0.00  0.00    +0.038 A 
ATOM      6  C   UNL     1      34.754 -16.644 -20.748  0.00  0.00    +0.033 C 
ATOM      7  C   UNL     1      33.856 -19.363 -24.974  0.00  0.00    +0.050 C 
ATOM      8  H   UNL     1      34.462 -20.760 -22.691  0.00  0.00    +0.166 HD
ENDROOT
BRANCH   4  13
ATOM      9 CL   UNL     1      36.657 -22.835 -15.528  0.00  0.00    -0.082 Cl
ATOM     10  O   UNL     1      32.098 -20.079 -20.875  0.00  0.00    -0.270 OA
ATOM     11  N   UNL     1      32.105 -21.443 -18.946  0.00  0.00    -0.280 N 
ATOM     12  C   UNL     1      34.110 -20.541 -19.584  0.00  0.00    +0.056 C 
ATOM     13  C   UNL     1      34.997 -19.840 -20.292  0.00  0.00    +0.021 C 
ATOM     14  C   UNL     1      34.333 -21.341 -18.384  0.00  0.00    +0.019 C 
ATOM     15  C   UNL     1      33.084 -21.865 -18.038  0.00  0.00    +0.051 C 
ATOM     16  C   UNL     1      32.652 -20.620 -19.936  0.00  0.00    +0.250 C 
ATOM     17  C   UNL     1      35.452 -21.626 -17.624  0.00  0.00    +0.013 C 
ATOM     18  C   UNL     1      32.903 -22.682 -16.940  0.00  0.00    +0.016 C 
ATOM     19  C   UNL     1      35.291 -22.452 -16.507  0.00  0.00    +0.058 C 
ATOM     20  C   UNL     1      34.028 -22.975 -16.168  0.00  0.00    +0.013 C 
ATOM     21  H   UNL     1      31.154 -21.694 -18.893  0.00  0.00    +0.155 HD
ENDBRANCH   4  13
BRANCH   2  24
ATOM     22  O   UNL     1      33.932 -16.397 -25.074  0.00  0.00    -0.270 OA
ATOM     23  N   UNL     1      33.835 -15.235 -23.084  0.00  0.00    -0.303 N 
ATOM     24  C   UNL     1      34.007 -16.415 -23.828  0.00  0.00    +0.247 C 
ATOM     25  H   UNL     1      33.901 -15.288 -22.103  0.00  0.00    +0.150 HD
BRANCH  23  26
ATOM     26  C   UNL     1      33.568 -13.949 -23.686  0.00  0.00    +0.067 C 
BRANCH  26  27
ATOM     27  C   UNL     1      33.532 -12.847 -22.638  0.00  0.00    -0.056 C 
BRANCH  27  28
ATOM     28  N   UNL     1      32.280 -12.105 -22.728  0.00  0.00    +0.388 N 
ATOM     29  H   UNL     1      31.662 -12.602 -23.368  0.00  0.00    -0.080 HD
BRANCH  28  30
ATOM     30  C   UNL     1      32.516 -10.760 -23.259  0.00  0.00    -0.077 C 
ATOM     31  C   UNL     1      31.685  -9.725 -22.520  0.00  0.00    -0.025 C 
ENDBRANCH  28  30
BRANCH  28  32
ATOM     32  C   UNL     1      31.630 -12.026 -21.418  0.00  0.00    -0.077 C 
ATOM     33  C   UNL     1      32.085 -13.156 -20.511  0.00  0.00    -0.025 C 
ENDBRANCH  28  32
ENDBRANCH  27  28
ENDBRANCH  26  27
ENDBRANCH  23  26
ENDBRANCH   2  24
TORSDOF 7
ENDMDL
MODEL 3
REMARK VINA RESULT:     -10.7      1.644      2.383
REMARK  Name = 5329103
REMARK  7 active torsions:
REMARK  status: ('A' for Active; 'I' for Inactive)
REMARK    1  A    between atoms: C_2  and  C_24
REMARK    2  A    between atoms: C_4  and  C_13
REMARK    3  A    between atoms: N_23  and  C_26
REMARK    4  A    between atoms: C_26  and  C_27
REMARK    5  A    between atoms: C_27  and  N_28
REMARK    6  A    between atoms: N_28  and  C_30
REMARK    7  A    between atoms: N_28  and  C_32
REMARK                            x       y       z     vdW  Elec       q    Type
REMARK                         _______ _______ _______ _____ _____    ______ ____
ROOT
ATOM      1  N   UNL     1      33.460 -13.826 -24.070  0.00  0.00    -0.357 N 
ATOM      2  C   UNL     1      34.149 -14.958 -22.289  0.00  0.00    +0.062 A 
ATOM      3  C   UNL     1      34.038 -13.591 -21.939  0.00  0.00    -0.001 A 
ATOM      4  C   UNL     1      33.616 -12.941 -23.053  0.00  0.00    +0.053 A 
ATOM      5  C   UNL     1      33.786 -15.076 -23.612  0.00  0.00    +0.038 A 
ATOM      6  C   UNL     1      34.327 -12.998 -20.616  0.00  0.00    +0.033 C 
ATOM      7  C   UNL     1      33.712 -16.252 -24.501  0.00  0.00    +0.050 C 
ATOM      8  H   UNL     1      33.162 -13.607 -24.983  0.00  0.00    +0.166 HD
ENDROOT
BRANCH   4  13
ATOM      9 CL   UNL     1      32.428  -5.942 -24.746  0.00  0.00    -0.082 Cl
ATOM     10  O   UNL     1      31.275 -12.649 -21.483  0.00  0.00    -0.270 OA
ATOM     11  N   UNL     1      30.382 -10.467 -21.635  0.00  0.00    -0.280 N 
ATOM     12  C   UNL     1      32.281 -10.896 -22.839  0.00  0.00    +0.056 C 
ATOM     13  C   UNL     1      33.320 -11.568 -23.339  0.00  0.00    +0.021 C 
ATOM     14  C   UNL     1      31.900  -9.506 -23.070  0.00  0.00    +0.019 C 
ATOM     15  C   UNL     1      30.741  -9.299 -22.317  0.00  0.00    +0.051 C 
ATOM     16  C   UNL     1      31.280 -11.506 -21.901  0.00  0.00    +0.250 C 
ATOM     17  C   UNL     1      32.440  -8.485 -23.829  0.00  0.00    +0.013 C 
ATOM     18  C   UNL     1      30.085  -8.084 -22.289  0.00  0.00    +0.016 C 
ATOM     19  C   UNL     1      31.792  -7.246 -23.815  0.00  0.00    +0.058 C 
ATOM     20  C   UNL     1      30.625  -7.047 -23.052  0.00  0.00    +0.013 C 
ATOM     21  H   UNL     1      29.597 -10.547 -21.045  0.00  0.00    +0.155 HD
ENDBRANCH   4  13
BRANCH   2  24
ATOM     22  O   UNL     1      34.214 -16.157 -20.260  0.00  0.00    -0.270 OA
ATOM     23  N   UNL     1      35.351 -17.045 -22.060  0.00  0.00    -0.303 N 
ATOM     24  C   UNL     1      34.558 -16.054 -21.456  0.00  0.00    +0.247 C 
ATOM     25  H   UNL     1      35.602 -16.931 -23.005  0.00  0.00    +0.150 HD
BRANCH  23  26
ATOM     26  C   UNL     1      35.817 -18.223 -21.363  0.00  0.00    +0.067 C 
BRANCH  26  27
ATOM     27  C   UNL     1      34.848 -19.384 -21.536  0.00  0.00    -0.056 C 
BRANCH  27  28
ATOM     28  N   UNL     1      34.340 -19.815 -20.239  0.00  0.00    +0.388 N 
ATOM     29  H   UNL     1      34.568 -19.095 -19.554  0.00  0.00    -0.080 HD
BRANCH  28  30
ATOM     30  C   UNL     1      34.975 -21.068 -19.827  0.00  0.00    -0.077 C 
ATOM     31  C   UNL     1      36.025 -20.826 -18.756  0.00  0.00    -0.025 C 
ENDBRANCH  28  30
BRANCH  28  32
ATOM     32  C   UNL     1      32.885 -19.973 -20.281  0.00  0.00    -0.077 C 
ATOM     33  C   UNL     1      32.404 -20.918 -19.194  0.00  0.00    -0.025 C 
ENDBRANCH  28  32
ENDBRANCH  27  28
ENDBRANCH  26  27
ENDBRANCH  23  26
ENDBRANCH   2  24
TORSDOF 7
ENDMDL
MODEL 4
REMARK VINA RESULT:     -10.6      3.829      6.869
REMARK  Name = 5329103
REMARK  7 active torsions:
REMARK  status: ('A' for Active; 'I' for Inactive)
REMARK    1  A    between atoms: C_2  and  C_24
REMARK    2  A    between atoms: C_4  and  C_13
REMARK    3  A    between atoms: N_23  and  C_26
REMARK    4  A    between atoms: C_26  and  C_27
REMARK    5  A    between atoms: C_27  and  N_28
REMARK    6  A    between atoms: N_28  and  C_30
REMARK    7  A    between atoms: N_28  and  C_32
REMARK                            x       y       z     vdW  Elec       q    Type
REMARK                         _______ _______ _______ _____ _____    ______ ____
ROOT
ATOM      1  N   UNL     1      33.190 -18.923 -21.282  0.00  0.00    -0.357 N 
ATOM      2  C   UNL     1      35.001 -19.852 -20.393  0.00  0.00    +0.062 A 
ATOM      3  C   UNL     1      35.407 -18.798 -21.247  0.00  0.00    -0.001 A 
ATOM      4  C   UNL     1      34.273 -18.263 -21.765  0.00  0.00    +0.053 A 
ATOM      5  C   UNL     1      33.626 -19.908 -20.433  0.00  0.00    +0.038 A 
ATOM      6  C   UNL     1      36.798 -18.373 -21.515  0.00  0.00    +0.033 C 
ATOM      7  C   UNL     1      32.667 -20.799 -19.750  0.00  0.00    +0.050 C 
ATOM      8  H   UNL     1      32.251 -18.728 -21.502  0.00  0.00    +0.166 HD
ENDROOT
BRANCH   4  13
ATOM      9 CL   UNL     1      32.960 -13.052 -26.703  0.00  0.00    -0.082 Cl
ATOM     10  O   UNL     1      34.337 -16.098 -19.936  0.00  0.00    -0.270 OA
ATOM     11  N   UNL     1      33.956 -14.029 -21.011  0.00  0.00    -0.280 N 
ATOM     12  C   UNL     1      33.942 -15.900 -22.330  0.00  0.00    +0.056 C 
ATOM     13  C   UNL     1      34.019 -17.186 -22.678  0.00  0.00    +0.021 C 
ATOM     14  C   UNL     1      33.690 -14.742 -23.182  0.00  0.00    +0.019 C 
ATOM     15  C   UNL     1      33.708 -13.634 -22.331  0.00  0.00    +0.051 C 
ATOM     16  C   UNL     1      34.114 -15.416 -20.919  0.00  0.00    +0.250 C 
ATOM     17  C   UNL     1      33.460 -14.588 -24.536  0.00  0.00    +0.013 C 
ATOM     18  C   UNL     1      33.504 -12.347 -22.789  0.00  0.00    +0.016 C 
ATOM     19  C   UNL     1      33.250 -13.293 -25.021  0.00  0.00    +0.058 C 
ATOM     20  C   UNL     1      33.272 -12.183 -24.156  0.00  0.00    +0.013 C 
ATOM     21  H   UNL     1      34.012 -13.411 -20.247  0.00  0.00    +0.155 HD
ENDBRANCH   4  13
BRANCH   2  24
ATOM     22  O   UNL     1      36.473 -21.672 -20.112  0.00  0.00    -0.270 OA
ATOM     23  N   UNL     1      35.918 -20.451 -18.236  0.00  0.00    -0.303 N 
ATOM     24  C   UNL     1      35.830 -20.726 -19.611  0.00  0.00    +0.247 C 
ATOM     25  H   UNL     1      35.397 -19.697 -17.876  0.00  0.00    +0.150 HD
BRANCH  23  26
ATOM     26  C   UNL     1      36.732 -21.220 -17.323  0.00  0.00    +0.067 C 
BRANCH  26  27
ATOM     27  C   UNL     1      36.032 -21.409 -15.986  0.00  0.00    -0.056 C 
BRANCH  27  28
ATOM     28  N   UNL     1      35.638 -22.803 -15.814  0.00  0.00    +0.388 N 
ATOM     29  H   UNL     1      35.764 -23.280 -16.706  0.00  0.00    -0.080 HD
BRANCH  28  30
ATOM     30  C   UNL     1      34.227 -22.897 -15.431  0.00  0.00    -0.077 C 
ATOM     31  C   UNL     1      33.320 -22.781 -16.644  0.00  0.00    -0.025 C 
ENDBRANCH  28  30
BRANCH  28  32
ATOM     32  C   UNL     1      36.480 -23.458 -14.812  0.00  0.00    -0.077 C 
ATOM     33  C   UNL     1      36.147 -24.935 -14.696  0.00  0.00    -0.025 C 
ENDBRANCH  28  32
ENDBRANCH  27  28
ENDBRANCH  26  27
ENDBRANCH  23  26
ENDBRANCH   2  24
TORSDOF 7
ENDMDL
MODEL 5
REMARK VINA RESULT:     -10.6      3.309      9.668
REMARK  Name = 5329103
REMARK  7 active torsions:
REMARK  status: ('A' for Active; 'I' for Inactive)
REMARK    1  A    between atoms: C_2  and  C_24
REMARK    2  A    between atoms: C_4  and  C_13
REMARK    3  A    between atoms: N_23  and  C_26
REMARK    4  A    between atoms: C_26  and  C_27
REMARK    5  A    between atoms: C_27  and  N_28
REMARK    6  A    between atoms: N_28  and  C_30
REMARK    7  A    between atoms: N_28  and  C_32
REMARK                            x       y       z     vdW  Elec       q    Type
REMARK                         _______ _______ _______ _____ _____    ______ ____
ROOT
ATOM      1  N   UNL     1      34.113 -10.774 -23.230  0.00  0.00    -0.357 N 
ATOM      2  C   UNL     1      32.300  -9.578 -22.771  0.00  0.00    +0.062 A 
ATOM      3  C   UNL     1      32.117 -10.887 -22.265  0.00  0.00    -0.001 A 
ATOM      4  C   UNL     1      33.244 -11.578 -22.568  0.00  0.00    +0.053 A 
ATOM      5  C   UNL     1      33.542  -9.535 -23.363  0.00  0.00    +0.038 A 
ATOM      6  C   UNL     1      30.925 -11.391 -21.549  0.00  0.00    +0.033 C 
ATOM      7  C   UNL     1      34.258  -8.440 -24.047  0.00  0.00    +0.050 C 
ATOM      8  H   UNL     1      35.003 -11.036 -23.560  0.00  0.00    +0.166 HD
ENDROOT
BRANCH   4  13
ATOM      9 CL   UNL     1      35.507 -18.336 -20.994  0.00  0.00    -0.082 Cl
ATOM     10  O   UNL     1      32.482 -12.731 -25.043  0.00  0.00    -0.270 OA
ATOM     11  N   UNL     1      32.994 -15.036 -25.133  0.00  0.00    -0.280 N 
ATOM     12  C   UNL     1      33.537 -13.928 -23.205  0.00  0.00    +0.056 C 
ATOM     13  C   UNL     1      33.665 -12.929 -22.330  0.00  0.00    +0.021 C 
ATOM     14  C   UNL     1      33.933 -15.325 -23.054  0.00  0.00    +0.019 C 
ATOM     15  C   UNL     1      33.580 -15.952 -24.252  0.00  0.00    +0.051 C 
ATOM     16  C   UNL     1      32.927 -13.758 -24.566  0.00  0.00    +0.250 C 
ATOM     17  C   UNL     1      34.529 -16.040 -22.032  0.00  0.00    +0.013 C 
ATOM     18  C   UNL     1      33.805 -17.296 -24.477  0.00  0.00    +0.016 C 
ATOM     19  C   UNL     1      34.766 -17.403 -22.239  0.00  0.00    +0.058 C 
ATOM     20  C   UNL     1      34.407 -18.025 -23.450  0.00  0.00    +0.013 C 
ATOM     21  H   UNL     1      32.670 -15.262 -26.035  0.00  0.00    +0.155 HD
ENDBRANCH   4  13
BRANCH   2  24
ATOM     22  O   UNL     1      30.952  -8.021 -21.623  0.00  0.00    -0.270 OA
ATOM     23  N   UNL     1      31.032  -7.870 -23.923  0.00  0.00    -0.303 N 
ATOM     24  C   UNL     1      31.391  -8.468 -22.703  0.00  0.00    +0.247 C 
ATOM     25  H   UNL     1      31.398  -8.249 -24.755  0.00  0.00    +0.150 HD
BRANCH  23  26
ATOM     26  C   UNL     1      30.151  -6.727 -24.019  0.00  0.00    +0.067 C 
BRANCH  26  27
ATOM     27  C   UNL     1      30.914  -5.479 -24.437  0.00  0.00    -0.056 C 
BRANCH  27  28
ATOM     28  N   UNL     1      31.107  -4.597 -23.293  0.00  0.00    +0.388 N 
ATOM     29  H   UNL     1      31.093  -3.635 -23.628  0.00  0.00    -0.080 HD
BRANCH  28  30
ATOM     30  C   UNL     1      32.403  -4.851 -22.659  0.00  0.00    -0.077 C 
ATOM     31  C   UNL     1      33.499  -5.020 -23.698  0.00  0.00    -0.025 C 
ENDBRANCH  28  30
BRANCH  28  32
ATOM     32  C   UNL     1      30.026  -4.768 -22.321  0.00  0.00    -0.077 C 
ATOM     33  C   UNL     1      30.545  -4.665 -20.897  0.00  0.00    -0.025 C 
ENDBRANCH  28  32
ENDBRANCH  27  28
ENDBRANCH  26  27
ENDBRANCH  23  26
ENDBRANCH   2  24
TORSDOF 7
ENDMDL
MODEL 6
REMARK VINA RESULT:     -10.1      6.396     12.286
REMARK  Name = 5329103
REMARK  7 active torsions:
REMARK  status: ('A' for Active; 'I' for Inactive)
REMARK    1  A    between atoms: C_2  and  C_24
REMARK    2  A    between atoms: C_4  and  C_13
REMARK    3  A    between atoms: N_23  and  C_26
REMARK    4  A    between atoms: C_26  and  C_27
REMARK    5  A    between atoms: C_27  and  N_28
REMARK    6  A    between atoms: N_28  and  C_30
REMARK    7  A    between atoms: N_28  and  C_32
REMARK                            x       y       z     vdW  Elec       q    Type
REMARK                         _______ _______ _______ _____ _____    ______ ____
ROOT
ATOM      1  N   UNL     1      34.406 -21.986 -18.573  0.00  0.00    -0.357 N 
ATOM      2  C   UNL     1      34.155 -20.385 -20.091  0.00  0.00    +0.062 A 
ATOM      3  C   UNL     1      32.897 -20.644 -19.496  0.00  0.00    -0.001 A 
ATOM      4  C   UNL     1      33.098 -21.624 -18.580  0.00  0.00    +0.053 A 
ATOM      5  C   UNL     1      35.070 -21.229 -19.502  0.00  0.00    +0.038 A 
ATOM      6  C   UNL     1      31.620 -19.971 -19.818  0.00  0.00    +0.033 C 
ATOM      7  C   UNL     1      36.520 -21.399 -19.723  0.00  0.00    +0.050 C 
ATOM      8  H   UNL     1      34.809 -22.676 -17.998  0.00  0.00    +0.166 HD
ENDROOT
BRANCH   4  13
ATOM      9 CL   UNL     1      28.410 -25.118 -14.211  0.00  0.00    -0.082 Cl
ATOM     10  O   UNL     1      34.858 -21.841 -16.369  0.00  0.00    -0.270 OA
ATOM     11  N   UNL     1      33.842 -22.945 -14.544  0.00  0.00    -0.280 N 
ATOM     12  C   UNL     1      32.571 -22.675 -16.428  0.00  0.00    +0.056 C 
ATOM     13  C   UNL     1      32.232 -22.311 -17.666  0.00  0.00    +0.021 C 
ATOM     14  C   UNL     1      31.764 -23.372 -15.432  0.00  0.00    +0.019 C 
ATOM     15  C   UNL     1      32.584 -23.511 -14.309  0.00  0.00    +0.051 C 
ATOM     16  C   UNL     1      33.922 -22.404 -15.831  0.00  0.00    +0.250 C 
ATOM     17  C   UNL     1      30.471 -23.861 -15.427  0.00  0.00    +0.013 C 
ATOM     18  C   UNL     1      32.154 -24.132 -13.152  0.00  0.00    +0.016 C 
ATOM     19  C   UNL     1      30.015 -24.493 -14.265  0.00  0.00    +0.058 C 
ATOM     20  C   UNL     1      30.849 -24.627 -13.139  0.00  0.00    +0.013 C 
ATOM     21  H   UNL     1      34.576 -22.931 -13.888  0.00  0.00    +0.155 HD
ENDBRANCH   4  13
BRANCH   2  24
ATOM     22  O   UNL     1      34.109 -19.576 -22.304  0.00  0.00    -0.270 OA
ATOM     23  N   UNL     1      35.184 -18.288 -20.722  0.00  0.00    -0.303 N 
ATOM     24  C   UNL     1      34.469 -19.431 -21.118  0.00  0.00    +0.247 C 
ATOM     25  H   UNL     1      35.451 -18.208 -19.777  0.00  0.00    +0.150 HD
BRANCH  23  26
ATOM     26  C   UNL     1      35.549 -17.225 -21.630  0.00  0.00    +0.067 C 
BRANCH  26  27
ATOM     27  C   UNL     1      34.568 -16.065 -21.542  0.00  0.00    -0.056 C 
BRANCH  27  28
ATOM     28  N   UNL     1      34.613 -15.271 -22.763  0.00  0.00    +0.388 N 
ATOM     29  H   UNL     1      35.583 -15.009 -22.937  0.00  0.00    -0.080 HD
BRANCH  28  30
ATOM     30  C   UNL     1      33.821 -14.048 -22.613  0.00  0.00    -0.077 C 
ATOM     31  C   UNL     1      33.717 -13.636 -21.154  0.00  0.00    -0.025 C 
ENDBRANCH  28  30
BRANCH  28  32
ATOM     32  C   UNL     1      34.130 -16.050 -23.904  0.00  0.00    -0.077 C 
ATOM     33  C   UNL     1      33.385 -15.171 -24.894  0.00  0.00    -0.025 C 
ENDBRANCH  28  32
ENDBRANCH  27  28
ENDBRANCH  26  27
ENDBRANCH  23  26
ENDBRANCH   2  24
TORSDOF 7
ENDMDL
MODEL 7
REMARK VINA RESULT:      -9.6      2.010      3.537
REMARK  Name = 5329103
REMARK  7 active torsions:
REMARK  status: ('A' for Active; 'I' for Inactive)
REMARK    1  A    between atoms: C_2  and  C_24
REMARK    2  A    between atoms: C_4  and  C_13
REMARK    3  A    between atoms: N_23  and  C_26
REMARK    4  A    between atoms: C_26  and  C_27
REMARK    5  A    between atoms: C_27  and  N_28
REMARK    6  A    between atoms: N_28  and  C_30
REMARK    7  A    between atoms: N_28  and  C_32
REMARK                            x       y       z     vdW  Elec       q    Type
REMARK                         _______ _______ _______ _____ _____    ______ ____
ROOT
ATOM      1  N   UNL     1      32.017 -10.781 -23.321  0.00  0.00    -0.357 N 
ATOM      2  C   UNL     1      32.297 -12.288 -21.714  0.00  0.00    +0.062 A 
ATOM      3  C   UNL     1      31.919 -11.059 -21.120  0.00  0.00    -0.001 A 
ATOM      4  C   UNL     1      31.760 -10.174 -22.135  0.00  0.00    +0.053 A 
ATOM      5  C   UNL     1      32.350 -12.088 -23.075  0.00  0.00    +0.038 A 
ATOM      6  C   UNL     1      31.736 -10.804 -19.675  0.00  0.00    +0.033 C 
ATOM      7  C   UNL     1      32.685 -13.006 -24.182  0.00  0.00    +0.050 C 
ATOM      8  H   UNL     1      31.972 -10.356 -24.208  0.00  0.00    +0.166 HD
ENDROOT
BRANCH   4  13
ATOM      9 CL   UNL     1      29.537  -3.222 -22.207  0.00  0.00    -0.082 Cl
ATOM     10  O   UNL     1      34.067  -9.137 -23.415  0.00  0.00    -0.270 OA
ATOM     11  N   UNL     1      33.921  -6.800 -23.730  0.00  0.00    -0.280 N 
ATOM     12  C   UNL     1      32.145  -7.821 -22.708  0.00  0.00    +0.056 C 
ATOM     13  C   UNL     1      31.390  -8.789 -22.185  0.00  0.00    +0.021 C 
ATOM     14  C   UNL     1      31.855  -6.394 -22.804  0.00  0.00    +0.019 C 
ATOM     15  C   UNL     1      32.966  -5.822 -23.431  0.00  0.00    +0.051 C 
ATOM     16  C   UNL     1      33.495  -8.067 -23.317  0.00  0.00    +0.250 C 
ATOM     17  C   UNL     1      30.784  -5.612 -22.416  0.00  0.00    +0.013 C 
ATOM     18  C   UNL     1      33.051  -4.468 -23.694  0.00  0.00    +0.016 C 
ATOM     19  C   UNL     1      30.849  -4.238 -22.672  0.00  0.00    +0.058 C 
ATOM     20  C   UNL     1      31.972  -3.672 -23.305  0.00  0.00    +0.013 C 
ATOM     21  H   UNL     1      34.782  -6.619 -24.173  0.00  0.00    +0.155 HD
ENDBRANCH   4  13
BRANCH   2  24
ATOM     22  O   UNL     1      31.829 -14.031 -20.197  0.00  0.00    -0.270 OA
ATOM     23  N   UNL     1      33.747 -14.208 -21.464  0.00  0.00    -0.303 N 
ATOM     24  C   UNL     1      32.581 -13.535 -21.061  0.00  0.00    +0.247 C 
ATOM     25  H   UNL     1      34.316 -13.787 -22.149  0.00  0.00    +0.150 HD
BRANCH  23  26
ATOM     26  C   UNL     1      34.154 -15.486 -20.925  0.00  0.00    +0.067 C 
BRANCH  26  27
ATOM     27  C   UNL     1      34.650 -16.415 -22.023  0.00  0.00    -0.056 C 
BRANCH  27  28
ATOM     28  N   UNL     1      34.476 -17.806 -21.625  0.00  0.00    +0.388 N 
ATOM     29  H   UNL     1      33.690 -17.855 -20.978  0.00  0.00    -0.080 HD
BRANCH  28  30
ATOM     30  C   UNL     1      35.674 -18.301 -20.943  0.00  0.00    -0.077 C 
ATOM     31  C   UNL     1      36.900 -18.187 -21.832  0.00  0.00    -0.025 C 
ENDBRANCH  28  30
BRANCH  28  32
ATOM     32  C   UNL     1      34.174 -18.642 -22.789  0.00  0.00    -0.077 C 
ATOM     33  C   UNL     1      33.691 -17.802 -23.958  0.00  0.00    -0.025 C 
ENDBRANCH  28  32
ENDBRANCH  27  28
ENDBRANCH  26  27
ENDBRANCH  23  26
ENDBRANCH   2  24
TORSDOF 7
ENDMDL
MODEL 8
REMARK VINA RESULT:      -9.5      3.396      9.436
REMARK  Name = 5329103
REMARK  7 active torsions:
REMARK  status: ('A' for Active; 'I' for Inactive)
REMARK    1  A    between atoms: C_2  and  C_24
REMARK    2  A    between atoms: C_4  and  C_13
REMARK    3  A    between atoms: N_23  and  C_26
REMARK    4  A    between atoms: C_26  and  C_27
REMARK    5  A    between atoms: C_27  and  N_28
REMARK    6  A    between atoms: N_28  and  C_30
REMARK    7  A    between atoms: N_28  and  C_32
REMARK                            x       y       z     vdW  Elec       q    Type
REMARK                         _______ _______ _______ _____ _____    ______ ____
ROOT
ATOM      1  N   UNL     1      31.566 -12.369 -22.107  0.00  0.00    -0.357 N 
ATOM      2  C   UNL     1      32.117 -10.393 -22.957  0.00  0.00    +0.062 A 
ATOM      3  C   UNL     1      32.875 -11.393 -23.611  0.00  0.00    -0.001 A 
ATOM      4  C   UNL     1      32.507 -12.577 -23.062  0.00  0.00    +0.053 A 
ATOM      5  C   UNL     1      31.315 -11.023 -22.031  0.00  0.00    +0.038 A 
ATOM      6  C   UNL     1      33.872 -11.177 -24.683  0.00  0.00    +0.033 C 
ATOM      7  C   UNL     1      30.328 -10.489 -21.073  0.00  0.00    +0.050 C 
ATOM      8  H   UNL     1      31.135 -13.066 -21.561  0.00  0.00    +0.166 HD
ENDROOT
BRANCH   4  13
ATOM      9 CL   UNL     1      34.396 -19.457 -24.601  0.00  0.00    -0.082 Cl
ATOM     10  O   UNL     1      33.611 -13.159 -20.517  0.00  0.00    -0.270 OA
ATOM     11  N   UNL     1      34.432 -15.371 -20.401  0.00  0.00    -0.280 N 
ATOM     12  C   UNL     1      33.500 -14.715 -22.386  0.00  0.00    +0.056 C 
ATOM     13  C   UNL     1      32.905 -13.936 -23.292  0.00  0.00    +0.021 C 
ATOM     14  C   UNL     1      33.939 -16.100 -22.526  0.00  0.00    +0.019 C 
ATOM     15  C   UNL     1      34.498 -16.447 -21.293  0.00  0.00    +0.051 C 
ATOM     16  C   UNL     1      33.829 -14.257 -20.995  0.00  0.00    +0.250 C 
ATOM     17  C   UNL     1      33.897 -17.011 -23.564  0.00  0.00    +0.013 C 
ATOM     18  C   UNL     1      35.027 -17.700 -21.048  0.00  0.00    +0.016 C 
ATOM     19  C   UNL     1      34.427 -18.286 -23.337  0.00  0.00    +0.058 C 
ATOM     20  C   UNL     1      34.987 -18.626 -22.091  0.00  0.00    +0.013 C 
ATOM     21  H   UNL     1      34.768 -15.395 -19.475  0.00  0.00    +0.155 HD
ENDBRANCH   4  13
BRANCH   2  24
ATOM     22  O   UNL     1      31.119  -8.318 -23.462  0.00  0.00    -0.270 OA
ATOM     23  N   UNL     1      33.385  -8.334 -23.036  0.00  0.00    -0.303 N 
ATOM     24  C   UNL     1      32.142  -8.974 -23.181  0.00  0.00    +0.247 C 
ATOM     25  H   UNL     1      34.171  -8.884 -22.812  0.00  0.00    +0.150 HD
BRANCH  23  26
ATOM     26  C   UNL     1      33.568  -6.910 -23.198  0.00  0.00    +0.067 C 
BRANCH  26  27
ATOM     27  C   UNL     1      33.289  -6.167 -21.900  0.00  0.00    -0.056 C 
BRANCH  27  28
ATOM     28  N   UNL     1      31.878  -5.809 -21.816  0.00  0.00    +0.388 N 
ATOM     29  H   UNL     1      31.362  -6.399 -22.467  0.00  0.00    -0.080 HD
BRANCH  28  30
ATOM     30  C   UNL     1      31.677  -4.409 -22.196  0.00  0.00    -0.077 C 
ATOM     31  C   UNL     1      30.341  -3.889 -21.693  0.00  0.00    -0.025 C 
ENDBRANCH  28  30
BRANCH  28  32
ATOM     32  C   UNL     1      31.365  -6.046 -20.465  0.00  0.00    -0.077 C 
ATOM     33  C   UNL     1      31.924  -7.333 -19.884  0.00  0.00    -0.025 C 
ENDBRANCH  28  32
ENDBRANCH  27  28
ENDBRANCH  26  27
ENDBRANCH  23  26
ENDBRANCH   2  24
TORSDOF 7
ENDMDL
MODEL 9
REMARK VINA RESULT:      -9.4      3.262      9.526
REMARK  Name = 5329103
REMARK  7 active torsions:
REMARK  status: ('A' for Active; 'I' for Inactive)
REMARK    1  A    between atoms: C_2  and  C_24
REMARK    2  A    between atoms: C_4  and  C_13
REMARK    3  A    between atoms: N_23  and  C_26
REMARK    4  A    between atoms: C_26  and  C_27
REMARK    5  A    between atoms: C_27  and  N_28
REMARK    6  A    between atoms: N_28  and  C_30
REMARK    7  A    between atoms: N_28  and  C_32
REMARK                            x       y       z     vdW  Elec       q    Type
REMARK                         _______ _______ _______ _____ _____    ______ ____
ROOT
ATOM      1  N   UNL     1      31.759 -11.728 -21.328  0.00  0.00    -0.357 N 
ATOM      2  C   UNL     1      32.106  -9.957 -22.622  0.00  0.00    +0.062 A 
ATOM      3  C   UNL     1      33.083 -10.936 -22.924  0.00  0.00    -0.001 A 
ATOM      4  C   UNL     1      32.833 -11.994 -22.113  0.00  0.00    +0.053 A 
ATOM      5  C   UNL     1      31.300 -10.473 -21.632  0.00  0.00    +0.038 A 
ATOM      6  C   UNL     1      34.161 -10.816 -23.930  0.00  0.00    +0.033 C 
ATOM      7  C   UNL     1      30.130  -9.904 -20.933  0.00  0.00    +0.050 C 
ATOM      8  H   UNL     1      31.374 -12.334 -20.654  0.00  0.00    +0.166 HD
ENDROOT
BRANCH   4  13
ATOM      9 CL   UNL     1      36.132 -18.386 -20.878  0.00  0.00    -0.082 Cl
ATOM     10  O   UNL     1      32.170 -13.158 -24.611  0.00  0.00    -0.270 OA
ATOM     11  N   UNL     1      33.017 -15.355 -24.809  0.00  0.00    -0.280 N 
ATOM     12  C   UNL     1      33.453 -14.248 -22.853  0.00  0.00    +0.056 C 
ATOM     13  C   UNL     1      33.459 -13.273 -21.942  0.00  0.00    +0.021 C 
ATOM     14  C   UNL     1      34.058 -15.574 -22.769  0.00  0.00    +0.019 C 
ATOM     15  C   UNL     1      33.762 -16.203 -23.982  0.00  0.00    +0.051 C 
ATOM     16  C   UNL     1      32.779 -14.123 -24.189  0.00  0.00    +0.250 C 
ATOM     17  C   UNL     1      34.787 -16.228 -21.794  0.00  0.00    +0.013 C 
ATOM     18  C   UNL     1      34.177 -17.489 -24.268  0.00  0.00    +0.016 C 
ATOM     19  C   UNL     1      35.218 -17.531 -22.063  0.00  0.00    +0.058 C 
ATOM     20  C   UNL     1      34.916 -18.156 -23.288  0.00  0.00    +0.013 C 
ATOM     21  H   UNL     1      32.700 -15.594 -25.710  0.00  0.00    +0.155 HD
ENDBRANCH   4  13
BRANCH   2  24
ATOM     22  O   UNL     1      30.852  -8.254 -23.664  0.00  0.00    -0.270 OA
ATOM     23  N   UNL     1      33.076  -7.826 -23.229  0.00  0.00    -0.303 N 
ATOM     24  C   UNL     1      31.943  -8.658 -23.211  0.00  0.00    +0.247 C 
ATOM     25  H   UNL     1      33.919  -8.177 -22.862  0.00  0.00    +0.150 HD
BRANCH  23  26
ATOM     26  C   UNL     1      33.066  -6.481 -23.759  0.00  0.00    +0.067 C 
BRANCH  26  27
ATOM     27  C   UNL     1      32.852  -5.456 -22.655  0.00  0.00    -0.056 C 
BRANCH  27  28
ATOM     28  N   UNL     1      31.513  -5.588 -22.094  0.00  0.00    +0.388 N 
ATOM     29  H   UNL     1      31.171  -6.525 -22.308  0.00  0.00    -0.080 HD
BRANCH  28  30
ATOM     30  C   UNL     1      30.603  -4.611 -22.695  0.00  0.00    -0.077 C 
ATOM     31  C   UNL     1      30.003  -3.697 -21.640  0.00  0.00    -0.025 C 
ENDBRANCH  28  30
BRANCH  28  32
ATOM     32  C   UNL     1      31.544  -5.425 -20.639  0.00  0.00    -0.077 C 
ATOM     33  C   UNL     1      31.951  -6.716 -19.950  0.00  0.00    -0.025 C 
ENDBRANCH  28  32
ENDBRANCH  27  28
ENDBRANCH  26  27
ENDBRANCH  23  26
ENDBRANCH   2  24
TORSDOF 7
ENDMDL
