MODEL 1
REMARK VINA RESULT:      -9.6      0.000      0.000
REMARK  Name = 9907331
REMARK  3 active torsions:
REMARK  status: ('A' for Active; 'I' for Inactive)
REMARK    1  A    between atoms: N_3  and  C_19
REMARK    2  A    between atoms: CA_9  and  C_26
REMARK    3  A    between atoms: C_26  and  O_27
REMARK                            x       y       z     vdW  Elec       q    Type
REMARK                         _______ _______ _______ _____ _____    ______ ____
ROOT
ATOM      1 CL   UNL     1      34.104 -14.991 -22.290  0.00  0.00    -0.082 Cl
ATOM      2  O   UNL     1      30.417  -6.911 -22.983  0.00  0.00    -0.270 OA
ATOM      3  N   UNL     1      32.559  -6.225 -23.778  0.00  0.00    -0.255 N 
ATOM      4  N   UNL     1      30.842 -11.411 -20.674  0.00  0.00    -0.325 N 
ATOM      5  C   UNL     1      31.655  -9.507 -22.657  0.00  0.00    -0.018 C 
ATOM      6  C   UNL     1      32.233  -8.441 -23.232  0.00  0.00    +0.030 C 
ATOM      7  C   UNL     1      30.308  -9.393 -21.981  0.00  0.00    +0.057 C 
ATOM      8  C   UNL     1      33.585  -8.373 -23.851  0.00  0.00    +0.053 C 
ATOM      9  CA  UNL     1      30.295 -10.070 -20.612  0.00  0.00    +0.174 C 
ATOM     10  C   UNL     1      33.851  -6.879 -23.918  0.00  0.00    +0.103 C 
ATOM     11  C   UNL     1      32.287 -10.847 -22.574  0.00  0.00    +0.009 C 
ATOM     12  C   UNL     1      31.578  -7.106 -23.303  0.00  0.00    +0.248 C 
ATOM     13  C   UNL     1      31.844 -11.747 -21.577  0.00  0.00    +0.045 C 
ATOM     14  C   UNL     1      33.286 -11.261 -23.472  0.00  0.00    +0.002 C 
ATOM     15  C   UNL     1      32.414 -13.030 -21.513  0.00  0.00    +0.026 C 
ATOM     16  C   UNL     1      33.846 -12.536 -23.384  0.00  0.00    +0.011 C 
ATOM     17  C   UNL     1      33.410 -13.421 -22.405  0.00  0.00    +0.059 C 
ATOM     18  H   UNL     1      30.495 -12.099 -20.061  0.00  0.00    +0.147 HD
ENDROOT
BRANCH   3  19
ATOM     19  C   UNL     1      32.394  -4.826 -24.016  0.00  0.00    +0.054 C 
ATOM     20  C   UNL     1      32.915  -4.245 -25.175  0.00  0.00    +0.015 C 
ATOM     21  C   UNL     1      31.711  -4.032 -23.092  0.00  0.00    +0.015 C 
ATOM     22  C   UNL     1      32.754  -2.879 -25.408  0.00  0.00    +0.001 C 
ATOM     23  C   UNL     1      31.550  -2.666 -23.324  0.00  0.00    +0.001 C 
ATOM     24  C   UNL     1      32.071  -2.090 -24.482  0.00  0.00    +0.000 C 
ENDBRANCH   3  19
BRANCH   9  26
ATOM     25  OXT UNL     1      31.359  -8.113 -19.674  0.00  0.00    -0.248 OA
ATOM     26  C   UNL     1      31.065  -9.296 -19.586  0.00  0.00    +0.332 C 
BRANCH  26  27
ATOM     27  O   UNL     1      31.398 -10.088 -18.537  0.00  0.00    -0.479 OA
ATOM     28  H   UNL     1      31.872 -10.882 -18.684  0.00  0.00    +0.295 HD
ENDBRANCH  26  27
ENDBRANCH   9  26
TORSDOF 3
ENDMDL
MODEL 2
REMARK VINA RESULT:      -9.2      4.352      7.080
REMARK  Name = 9907331
REMARK  3 active torsions:
REMARK  status: ('A' for Active; 'I' for Inactive)
REMARK    1  A    between atoms: N_3  and  C_19
REMARK    2  A    between atoms: CA_9  and  C_26
REMARK    3  A    between atoms: C_26  and  O_27
REMARK                            x       y       z     vdW  Elec       q    Type
REMARK                         _______ _______ _______ _____ _____    ______ ____
ROOT
ATOM      1 CL   UNL     1      35.450 -20.614 -20.480  0.00  0.00    -0.082 Cl
ATOM      2  O   UNL     1      33.774 -12.381 -23.442  0.00  0.00    -0.270 OA
ATOM      3  N   UNL     1      32.463 -12.154 -21.461  0.00  0.00    -0.255 N 
ATOM      4  N   UNL     1      34.704 -17.298 -24.291  0.00  0.00    -0.325 N 
ATOM      5  C   UNL     1      34.223 -15.090 -22.526  0.00  0.00    -0.018 C 
ATOM      6  C   UNL     1      33.584 -14.135 -21.833  0.00  0.00    +0.030 C 
ATOM      7  C   UNL     1      34.654 -14.859 -23.956  0.00  0.00    +0.057 C 
ATOM      8  C   UNL     1      33.020 -14.243 -20.459  0.00  0.00    +0.053 C 
ATOM      9  CA  UNL     1      34.288 -16.033 -24.862  0.00  0.00    +0.174 C 
ATOM     10  C   UNL     1      32.071 -13.058 -20.391  0.00  0.00    +0.103 C 
ATOM     11  C   UNL     1      34.505 -16.448 -21.998  0.00  0.00    +0.009 C 
ATOM     12  C   UNL     1      33.313 -12.779 -22.385  0.00  0.00    +0.248 C 
ATOM     13  C   UNL     1      34.737 -17.499 -22.915  0.00  0.00    +0.045 C 
ATOM     14  C   UNL     1      34.580 -16.715 -20.620  0.00  0.00    +0.002 C 
ATOM     15  C   UNL     1      35.039 -18.780 -22.423  0.00  0.00    +0.026 C 
ATOM     16  C   UNL     1      34.870 -17.997 -20.153  0.00  0.00    +0.011 C 
ATOM     17  C   UNL     1      35.100 -19.030 -21.054  0.00  0.00    +0.059 C 
ATOM     18  H   UNL     1      34.968 -18.032 -24.890  0.00  0.00    +0.147 HD
ENDROOT
BRANCH   3  19
ATOM     19  C   UNL     1      31.935 -10.831 -21.561  0.00  0.00    +0.054 C 
ATOM     20  C   UNL     1      31.359 -10.219 -20.444  0.00  0.00    +0.015 C 
ATOM     21  C   UNL     1      31.991 -10.141 -22.774  0.00  0.00    +0.015 C 
ATOM     22  C   UNL     1      30.843  -8.927 -20.541  0.00  0.00    +0.001 C 
ATOM     23  C   UNL     1      31.475  -8.849 -22.872  0.00  0.00    +0.001 C 
ATOM     24  C   UNL     1      30.902  -8.242 -21.755  0.00  0.00    +0.000 C 
ENDBRANCH   3  19
BRANCH   9  26
ATOM     25  OXT UNL     1      32.155 -17.130 -25.156  0.00  0.00    -0.248 OA
ATOM     26  C   UNL     1      32.817 -16.103 -25.139  0.00  0.00    +0.332 C 
BRANCH  26  27
ATOM     27  O   UNL     1      32.313 -14.867 -25.372  0.00  0.00    -0.479 OA
ATOM     28  H   UNL     1      32.355 -14.211 -24.705  0.00  0.00    +0.295 HD
ENDBRANCH  26  27
ENDBRANCH   9  26
TORSDOF 3
ENDMDL
MODEL 3
REMARK VINA RESULT:      -8.6     12.063     15.211
REMARK  Name = 9907331
REMARK  3 active torsions:
REMARK  status: ('A' for Active; 'I' for Inactive)
REMARK    1  A    between atoms: N_3  and  C_19
REMARK    2  A    between atoms: CA_9  and  C_26
REMARK    3  A    between atoms: C_26  and  O_27
REMARK                            x       y       z     vdW  Elec       q    Type
REMARK                         _______ _______ _______ _____ _____    ______ ____
ROOT
ATOM      1 CL   UNL     1      36.897 -24.477 -10.872  0.00  0.00    -0.082 Cl
ATOM      2  O   UNL     1      34.068 -22.279 -19.029  0.00  0.00    -0.270 OA
ATOM      3  N   UNL     1      35.627 -20.481 -18.864  0.00  0.00    -0.255 N 
ATOM      4  N   UNL     1      33.224 -24.203 -14.408  0.00  0.00    -0.325 N 
ATOM      5  C   UNL     1      34.914 -22.920 -16.336  0.00  0.00    -0.018 C 
ATOM      6  C   UNL     1      35.461 -21.973 -17.114  0.00  0.00    +0.030 C 
ATOM      7  C   UNL     1      33.671 -23.662 -16.769  0.00  0.00    +0.057 C 
ATOM      8  C   UNL     1      36.621 -21.098 -16.789  0.00  0.00    +0.053 C 
ATOM      9  CA  UNL     1      32.635 -23.745 -15.650  0.00  0.00    +0.174 C 
ATOM     10  C   UNL     1      36.496 -19.980 -17.811  0.00  0.00    +0.103 C 
ATOM     11  C   UNL     1      35.420 -23.277 -14.987  0.00  0.00    +0.009 C 
ATOM     12  C   UNL     1      34.935 -21.633 -18.464  0.00  0.00    +0.248 C 
ATOM     13  C   UNL     1      34.543 -23.912 -14.078  0.00  0.00    +0.045 C 
ATOM     14  C   UNL     1      36.750 -23.036 -14.598  0.00  0.00    +0.002 C 
ATOM     15  C   UNL     1      35.024 -24.284 -12.812  0.00  0.00    +0.026 C 
ATOM     16  C   UNL     1      37.203 -23.404 -13.331  0.00  0.00    +0.011 C 
ATOM     17  C   UNL     1      36.342 -24.029 -12.438  0.00  0.00    +0.059 C 
ATOM     18  H   UNL     1      32.677 -24.733 -13.784  0.00  0.00    +0.147 HD
ENDROOT
BRANCH   3  19
ATOM     19  C   UNL     1      35.463 -19.783 -20.100  0.00  0.00    +0.054 C 
ATOM     20  C   UNL     1      34.256 -19.865 -20.798  0.00  0.00    +0.015 C 
ATOM     21  C   UNL     1      36.510 -19.015 -20.616  0.00  0.00    +0.015 C 
ATOM     22  C   UNL     1      34.096 -19.184 -22.005  0.00  0.00    +0.001 C 
ATOM     23  C   UNL     1      36.351 -18.334 -21.823  0.00  0.00    +0.001 C 
ATOM     24  C   UNL     1      35.144 -18.418 -22.517  0.00  0.00    +0.000 C 
ENDBRANCH   3  19
BRANCH   9  26
ATOM     25  OXT UNL     1      31.963 -21.838 -14.325  0.00  0.00    -0.248 OA
ATOM     26  C   UNL     1      31.964 -22.429 -15.395  0.00  0.00    +0.332 C 
BRANCH  26  27
ATOM     27  O   UNL     1      31.351 -21.977 -16.516  0.00  0.00    -0.479 OA
ATOM     28  H   UNL     1      30.547 -22.367 -16.799  0.00  0.00    +0.295 HD
ENDBRANCH  26  27
ENDBRANCH   9  26
TORSDOF 3
ENDMDL
MODEL 4
REMARK VINA RESULT:      -8.0     12.631     16.779
REMARK  Name = 9907331
REMARK  3 active torsions:
REMARK  status: ('A' for Active; 'I' for Inactive)
REMARK    1  A    between atoms: N_3  and  C_19
REMARK    2  A    between atoms: CA_9  and  C_26
REMARK    3  A    between atoms: C_26  and  O_27
REMARK                            x       y       z     vdW  Elec       q    Type
REMARK                         _______ _______ _______ _____ _____    ______ ____
ROOT
ATOM      1 CL   UNL     1      35.779 -18.221 -22.544  0.00  0.00    -0.082 Cl
ATOM      2  O   UNL     1      34.234 -23.021 -15.199  0.00  0.00    -0.270 OA
ATOM      3  N   UNL     1      36.610 -23.119 -15.008  0.00  0.00    -0.255 N 
ATOM      4  N   UNL     1      32.981 -21.577 -19.901  0.00  0.00    -0.325 N 
ATOM      5  C   UNL     1      34.747 -21.557 -17.642  0.00  0.00    -0.018 C 
ATOM      6  C   UNL     1      35.682 -21.939 -16.759  0.00  0.00    +0.030 C 
ATOM      7  C   UNL     1      33.310 -22.000 -17.497  0.00  0.00    +0.057 C 
ATOM      8  C   UNL     1      37.144 -21.663 -16.817  0.00  0.00    +0.053 C 
ATOM      9  CA  UNL     1      32.729 -22.505 -18.817  0.00  0.00    +0.174 C 
ATOM     10  C   UNL     1      37.717 -22.678 -15.842  0.00  0.00    +0.103 C 
ATOM     11  C   UNL     1      35.032 -20.740 -18.849  0.00  0.00    +0.009 C 
ATOM     12  C   UNL     1      35.371 -22.758 -15.556  0.00  0.00    +0.248 C 
ATOM     13  C   UNL     1      34.125 -20.787 -19.931  0.00  0.00    +0.045 C 
ATOM     14  C   UNL     1      36.156 -19.899 -18.935  0.00  0.00    +0.002 C 
ATOM     15  C   UNL     1      34.370 -19.990 -21.063  0.00  0.00    +0.026 C 
ATOM     16  C   UNL     1      36.386 -19.125 -20.073  0.00  0.00    +0.011 C 
ATOM     17  C   UNL     1      35.493 -19.169 -21.136  0.00  0.00    +0.059 C 
ATOM     18  H   UNL     1      32.326 -21.504 -20.633  0.00  0.00    +0.147 HD
ENDROOT
BRANCH   3  19
ATOM     19  C   UNL     1      36.818 -23.907 -13.836  0.00  0.00    +0.054 C 
ATOM     20  C   UNL     1      36.769 -25.301 -13.909  0.00  0.00    +0.015 C 
ATOM     21  C   UNL     1      37.073 -23.288 -12.609  0.00  0.00    +0.015 C 
ATOM     22  C   UNL     1      36.974 -26.071 -12.763  0.00  0.00    +0.001 C 
ATOM     23  C   UNL     1      37.276 -24.057 -11.463  0.00  0.00    +0.001 C 
ATOM     24  C   UNL     1      37.227 -25.449 -11.542  0.00  0.00    +0.000 C 
ENDBRANCH   3  19
BRANCH   9  26
ATOM     25  OXT UNL     1      33.827 -24.093 -20.270  0.00  0.00    -0.248 OA
ATOM     26  C   UNL     1      33.280 -23.843 -19.207  0.00  0.00    +0.332 C 
BRANCH  26  27
ATOM     27  O   UNL     1      33.085 -24.749 -18.217  0.00  0.00    -0.479 OA
ATOM     28  H   UNL     1      32.227 -24.881 -17.867  0.00  0.00    +0.295 HD
ENDBRANCH  26  27
ENDBRANCH   9  26
TORSDOF 3
ENDMDL
MODEL 5
REMARK VINA RESULT:      -7.8     11.923     15.924
REMARK  Name = 9907331
REMARK  3 active torsions:
REMARK  status: ('A' for Active; 'I' for Inactive)
REMARK    1  A    between atoms: N_3  and  C_19
REMARK    2  A    between atoms: CA_9  and  C_26
REMARK    3  A    between atoms: C_26  and  O_27
REMARK                            x       y       z     vdW  Elec       q    Type
REMARK                         _______ _______ _______ _____ _____    ______ ____
ROOT
ATOM      1 CL   UNL     1      34.715 -17.765 -22.827  0.00  0.00    -0.082 Cl
ATOM      2  O   UNL     1      33.460 -23.885 -16.476  0.00  0.00    -0.270 OA
ATOM      3  N   UNL     1      31.310 -22.883 -16.218  0.00  0.00    -0.255 N 
ATOM      4  N   UNL     1      36.482 -20.742 -19.073  0.00  0.00    -0.325 N 
ATOM      5  C   UNL     1      33.899 -21.825 -18.460  0.00  0.00    -0.018 C 
ATOM      6  C   UNL     1      32.737 -22.057 -17.830  0.00  0.00    +0.030 C 
ATOM      7  C   UNL     1      35.160 -22.559 -18.066  0.00  0.00    +0.057 C 
ATOM      8  C   UNL     1      31.442 -21.354 -18.040  0.00  0.00    +0.053 C 
ATOM      9  CA  UNL     1      36.352 -21.615 -17.924  0.00  0.00    +0.174 C 
ATOM     10  C   UNL     1      30.654 -21.719 -16.793  0.00  0.00    +0.103 C 
ATOM     11  C   UNL     1      34.073 -20.810 -19.529  0.00  0.00    +0.009 C 
ATOM     12  C   UNL     1      32.588 -23.081 -16.761  0.00  0.00    +0.248 C 
ATOM     13  C   UNL     1      35.371 -20.313 -19.790  0.00  0.00    +0.045 C 
ATOM     14  C   UNL     1      32.997 -20.352 -20.310  0.00  0.00    +0.002 C 
ATOM     15  C   UNL     1      35.549 -19.378 -20.824  0.00  0.00    +0.026 C 
ATOM     16  C   UNL     1      33.195 -19.415 -21.324  0.00  0.00    +0.011 C 
ATOM     17  C   UNL     1      34.470 -18.928 -21.582  0.00  0.00    +0.059 C 
ATOM     18  H   UNL     1      37.379 -20.446 -19.352  0.00  0.00    +0.147 HD
ENDROOT
BRANCH   3  19
ATOM     19  C   UNL     1      30.715 -23.636 -15.161  0.00  0.00    +0.054 C 
ATOM     20  C   UNL     1      31.282 -23.623 -13.884  0.00  0.00    +0.015 C 
ATOM     21  C   UNL     1      29.563 -24.390 -15.397  0.00  0.00    +0.015 C 
ATOM     22  C   UNL     1      30.701 -24.359 -12.851  0.00  0.00    +0.001 C 
ATOM     23  C   UNL     1      28.981 -25.126 -14.365  0.00  0.00    +0.001 C 
ATOM     24  C   UNL     1      29.551 -25.109 -13.092  0.00  0.00    +0.000 C 
ENDBRANCH   3  19
BRANCH   9  26
ATOM     25  OXT UNL     1      35.619 -21.042 -15.693  0.00  0.00    -0.248 OA
ATOM     26  C   UNL     1      36.262 -20.763 -16.694  0.00  0.00    +0.332 C 
BRANCH  26  27
ATOM     27  O   UNL     1      36.992 -19.630 -16.841  0.00  0.00    -0.479 OA
ATOM     28  H   UNL     1      37.910 -19.685 -17.018  0.00  0.00    +0.295 HD
ENDBRANCH  26  27
ENDBRANCH   9  26
TORSDOF 3
ENDMDL
MODEL 6
REMARK VINA RESULT:      -7.4      2.178      3.117
REMARK  Name = 9907331
REMARK  3 active torsions:
REMARK  status: ('A' for Active; 'I' for Inactive)
REMARK    1  A    between atoms: N_3  and  C_19
REMARK    2  A    between atoms: CA_9  and  C_26
REMARK    3  A    between atoms: C_26  and  O_27
REMARK                            x       y       z     vdW  Elec       q    Type
REMARK                         _______ _______ _______ _____ _____    ______ ____
ROOT
ATOM      1 CL   UNL     1      31.581 -12.885 -20.637  0.00  0.00    -0.082 Cl
ATOM      2  O   UNL     1      31.811  -4.546 -23.762  0.00  0.00    -0.270 OA
ATOM      3  N   UNL     1      33.753  -5.260 -24.950  0.00  0.00    -0.255 N 
ATOM      4  N   UNL     1      30.775  -7.874 -20.074  0.00  0.00    -0.325 N 
ATOM      5  C   UNL     1      31.809  -7.225 -22.667  0.00  0.00    -0.018 C 
ATOM      6  C   UNL     1      32.632  -6.784 -23.632  0.00  0.00    +0.030 C 
ATOM      7  C   UNL     1      30.875  -6.280 -21.948  0.00  0.00    +0.057 C 
ATOM      8  C   UNL     1      33.665  -7.567 -24.363  0.00  0.00    +0.053 C 
ATOM      9  CA  UNL     1      30.914  -6.478 -20.434  0.00  0.00    +0.174 C 
ATOM     10  C   UNL     1      34.538  -6.484 -24.975  0.00  0.00    +0.103 C 
ATOM     11  C   UNL     1      31.781  -8.627 -22.180  0.00  0.00    +0.009 C 
ATOM     12  C   UNL     1      32.641  -5.372 -24.104  0.00  0.00    +0.248 C 
ATOM     13  C   UNL     1      31.257  -8.888 -20.894  0.00  0.00    +0.045 C 
ATOM     14  C   UNL     1      32.227  -9.702 -22.968  0.00  0.00    +0.002 C 
ATOM     15  C   UNL     1      31.195 -10.217 -20.439  0.00  0.00    +0.026 C 
ATOM     16  C   UNL     1      32.166 -11.013 -22.492  0.00  0.00    +0.011 C 
ATOM     17  C   UNL     1      31.650 -11.270 -21.229  0.00  0.00    +0.059 C 
ATOM     18  H   UNL     1      30.329  -8.110 -19.228  0.00  0.00    +0.147 HD
ENDROOT
BRANCH   3  19
ATOM     19  C   UNL     1      34.170  -4.085 -25.647  0.00  0.00    +0.054 C 
ATOM     20  C   UNL     1      33.310  -2.988 -25.750  0.00  0.00    +0.015 C 
ATOM     21  C   UNL     1      35.439  -4.026 -26.228  0.00  0.00    +0.015 C 
ATOM     22  C   UNL     1      33.717  -1.840 -26.430  0.00  0.00    +0.001 C 
ATOM     23  C   UNL     1      35.846  -2.878 -26.908  0.00  0.00    +0.001 C 
ATOM     24  C   UNL     1      34.985  -1.786 -27.008  0.00  0.00    +0.000 C 
ENDBRANCH   3  19
BRANCH   9  26
ATOM     25  OXT UNL     1      33.069  -6.655 -19.353  0.00  0.00    -0.248 OA
ATOM     26  C   UNL     1      32.181  -5.959 -19.823  0.00  0.00    +0.332 C 
BRANCH  26  27
ATOM     27  O   UNL     1      32.212  -4.605 -19.860  0.00  0.00    -0.479 OA
ATOM     28  H   UNL     1      32.843  -4.138 -19.349  0.00  0.00    +0.295 HD
ENDBRANCH  26  27
ENDBRANCH   9  26
TORSDOF 3
ENDMDL
MODEL 7
REMARK VINA RESULT:      -7.1     11.895     15.007
REMARK  Name = 9907331
REMARK  3 active torsions:
REMARK  status: ('A' for Active; 'I' for Inactive)
REMARK    1  A    between atoms: N_3  and  C_19
REMARK    2  A    between atoms: CA_9  and  C_26
REMARK    3  A    between atoms: C_26  and  O_27
REMARK                            x       y       z     vdW  Elec       q    Type
REMARK                         _______ _______ _______ _____ _____    ______ ____
ROOT
ATOM      1 CL   UNL     1      35.775 -25.050 -11.337  0.00  0.00    -0.082 Cl
ATOM      2  O   UNL     1      33.651 -22.123 -19.478  0.00  0.00    -0.270 OA
ATOM      3  N   UNL     1      35.399 -20.534 -19.142  0.00  0.00    -0.255 N 
ATOM      4  N   UNL     1      32.348 -24.162 -15.017  0.00  0.00    -0.325 N 
ATOM      5  C   UNL     1      34.275 -22.994 -16.790  0.00  0.00    -0.018 C 
ATOM      6  C   UNL     1      34.969 -22.082 -17.488  0.00  0.00    +0.030 C 
ATOM      7  C   UNL     1      32.978 -23.560 -17.320  0.00  0.00    +0.057 C 
ATOM      8  C   UNL     1      36.204 -21.369 -17.061  0.00  0.00    +0.053 C 
ATOM      9  CA  UNL     1      31.882 -23.575 -16.257  0.00  0.00    +0.174 C 
ATOM     10  C   UNL     1      36.265 -20.194 -18.024  0.00  0.00    +0.103 C 
ATOM     11  C   UNL     1      34.665 -23.477 -15.442  0.00  0.00    +0.009 C 
ATOM     12  C   UNL     1      34.557 -21.613 -18.840  0.00  0.00    +0.248 C 
ATOM     13  C   UNL     1      33.673 -24.047 -14.611  0.00  0.00    +0.045 C 
ATOM     14  C   UNL     1      35.991 -23.416 -14.979  0.00  0.00    +0.002 C 
ATOM     15  C   UNL     1      34.041 -24.537 -13.346  0.00  0.00    +0.026 C 
ATOM     16  C   UNL     1      36.332 -23.900 -13.715  0.00  0.00    +0.011 C 
ATOM     17  C   UNL     1      35.358 -24.461 -12.899  0.00  0.00    +0.059 C 
ATOM     18  H   UNL     1      31.712 -24.653 -14.449  0.00  0.00    +0.147 HD
ENDROOT
BRANCH   3  19
ATOM     19  C   UNL     1      35.383 -19.761 -20.343  0.00  0.00    +0.054 C 
ATOM     20  C   UNL     1      36.328 -18.751 -20.540  0.00  0.00    +0.015 C 
ATOM     21  C   UNL     1      34.422 -20.010 -21.326  0.00  0.00    +0.015 C 
ATOM     22  C   UNL     1      36.313 -17.996 -21.713  0.00  0.00    +0.001 C 
ATOM     23  C   UNL     1      34.406 -19.255 -22.499  0.00  0.00    +0.001 C 
ATOM     24  C   UNL     1      35.352 -18.249 -22.692  0.00  0.00    +0.000 C 
ENDBRANCH   3  19
BRANCH   9  26
ATOM     25  OXT UNL     1      31.054 -21.793 -14.848  0.00  0.00    -0.248 OA
ATOM     26  C   UNL     1      31.358 -22.202 -15.959  0.00  0.00    +0.332 C 
BRANCH  26  27
ATOM     27  O   UNL     1      31.262 -21.469 -17.095  0.00  0.00    -0.479 OA
ATOM     28  H   UNL     1      31.172 -21.898 -17.923  0.00  0.00    +0.295 HD
ENDBRANCH  26  27
ENDBRANCH   9  26
TORSDOF 3
ENDMDL
