MODEL 1
REMARK VINA RESULT:     -12.2      0.000      0.000
REMARK  Name = 4814
REMARK  7 active torsions:
REMARK  status: ('A' for Active; 'I' for Inactive)
REMARK    1  A    between atoms: C_1  and  C_9
REMARK    2  A    between atoms: C_2  and  C_20
REMARK    3  A    between atoms: C_4  and  O_29
REMARK    4  A    between atoms: N_8  and  C_11
REMARK    5  A    between atoms: C_11  and  C_13
REMARK    6  A    between atoms: N_19  and  C_22
REMARK    7  A    between atoms: C_22  and  C_24
REMARK                            x       y       z     vdW  Elec       q    Type
REMARK                         _______ _______ _______ _____ _____    ______ ____
ROOT
ATOM      1  C   UNL     1      33.670 -14.586 -22.261  0.00  0.00    +0.087 C 
ATOM      2  C   UNL     1      34.468 -16.799 -22.808  0.00  0.00    +0.054 C 
ATOM      3  C   UNL     1      34.192 -15.815 -21.859  0.00  0.00    +0.012 C 
ATOM      4  C   UNL     1      33.426 -14.340 -23.612  0.00  0.00    +0.143 C 
ATOM      5  C   UNL     1      34.223 -16.554 -24.158  0.00  0.00    +0.008 C 
ATOM      6  C   UNL     1      33.703 -15.324 -24.562  0.00  0.00    +0.037 C 
ENDROOT
BRANCH   1   9
ATOM      7  O   UNL     1      34.244 -13.271 -20.406  0.00  0.00    -0.270 OA
ATOM      8  N   UNL     1      32.134 -12.953 -21.314  0.00  0.00    -0.297 N 
ATOM      9  C   UNL     1      33.388 -13.571 -21.255  0.00  0.00    +0.249 C 
ATOM     10  H   UNL     1      31.504 -13.242 -22.015  0.00  0.00    +0.150 HD
BRANCH   8  11
ATOM     11  C   UNL     1      31.714 -11.913 -20.403  0.00  0.00    +0.118 C 
BRANCH  11  13
ATOM     12  N   UNL     1      31.650  -9.316 -23.132  0.00  0.00    -0.243 NA
ATOM     13  C   UNL     1      31.580 -10.585 -21.089  0.00  0.00    +0.017 C 
ATOM     14  C   UNL     1      31.279  -9.446 -20.364  0.00  0.00    +0.001 C 
ATOM     15  C   UNL     1      31.756 -10.479 -22.452  0.00  0.00    +0.096 C 
ATOM     16  C   UNL     1      31.162  -8.229 -21.028  0.00  0.00    +0.020 C 
ATOM     17  C   UNL     1      31.355  -8.218 -22.400  0.00  0.00    +0.099 C 
ENDBRANCH  11  13
ENDBRANCH   8  11
ENDBRANCH   1   9
BRANCH   2  20
ATOM     18  O   UNL     1      35.090 -19.028 -23.190  0.00  0.00    -0.270 OA
ATOM     19  N   UNL     1      35.447 -18.182 -21.061  0.00  0.00    -0.297 N 
ATOM     20  C   UNL     1      35.010 -18.082 -22.387  0.00  0.00    +0.246 C 
ATOM     21  H   UNL     1      35.354 -17.394 -20.479  0.00  0.00    +0.150 HD
BRANCH  19  22
ATOM     22  C   UNL     1      36.030 -19.380 -20.500  0.00  0.00    +0.118 C 
BRANCH  22  24
ATOM     23  N   UNL     1      34.498 -22.060 -18.339  0.00  0.00    -0.243 NA
ATOM     24  C   UNL     1      34.999 -20.254 -19.847  0.00  0.00    +0.017 C 
ATOM     25  C   UNL     1      33.655 -20.083 -20.127  0.00  0.00    +0.001 C 
ATOM     26  C   UNL     1      35.375 -21.240 -18.961  0.00  0.00    +0.096 C 
ATOM     27  C   UNL     1      32.722 -20.908 -19.508  0.00  0.00    +0.020 C 
ATOM     28  C   UNL     1      33.191 -21.873 -18.630  0.00  0.00    +0.099 C 
ENDBRANCH  22  24
ENDBRANCH  19  22
ENDBRANCH   2  20
BRANCH   4  29
ATOM     29  O   UNL     1      32.916 -13.146 -24.025  0.00  0.00    -0.471 OA
ATOM     30  C   UNL     1      32.657 -12.999 -25.420  0.00  0.00    +0.252 C 
ENDBRANCH   4  29
TORSDOF 7
ENDMDL
MODEL 2
REMARK VINA RESULT:     -12.0      2.637      9.914
REMARK  Name = 4814
REMARK  7 active torsions:
REMARK  status: ('A' for Active; 'I' for Inactive)
REMARK    1  A    between atoms: C_1  and  C_9
REMARK    2  A    between atoms: C_2  and  C_20
REMARK    3  A    between atoms: C_4  and  O_29
REMARK    4  A    between atoms: N_8  and  C_11
REMARK    5  A    between atoms: C_11  and  C_13
REMARK    6  A    between atoms: N_19  and  C_22
REMARK    7  A    between atoms: C_22  and  C_24
REMARK                            x       y       z     vdW  Elec       q    Type
REMARK                         _______ _______ _______ _____ _____    ______ ____
ROOT
ATOM      1  C   UNL     1      34.061 -20.419 -19.885  0.00  0.00    +0.087 C 
ATOM      2  C   UNL     1      34.795 -18.690 -21.404  0.00  0.00    +0.054 C 
ATOM      3  C   UNL     1      33.771 -19.467 -20.862  0.00  0.00    +0.012 C 
ATOM      4  C   UNL     1      35.375 -20.594 -19.451  0.00  0.00    +0.143 C 
ATOM      5  C   UNL     1      36.108 -18.864 -20.970  0.00  0.00    +0.008 C 
ATOM      6  C   UNL     1      36.399 -19.817 -19.993  0.00  0.00    +0.037 C 
ENDROOT
BRANCH   1   9
ATOM      7  O   UNL     1      31.957 -21.445 -19.999  0.00  0.00    -0.270 OA
ATOM      8  N   UNL     1      33.164 -21.728 -18.040  0.00  0.00    -0.297 N 
ATOM      9  C   UNL     1      32.979 -21.220 -19.331  0.00  0.00    +0.249 C 
ATOM     10  H   UNL     1      34.001 -21.508 -17.568  0.00  0.00    +0.150 HD
BRANCH   8  11
ATOM     11  C   UNL     1      32.194 -22.558 -17.363  0.00  0.00    +0.118 C 
BRANCH  11  13
ATOM     12  N   UNL     1      34.406 -23.619 -14.503  0.00  0.00    -0.243 NA
ATOM     13  C   UNL     1      32.636 -22.921 -15.975  0.00  0.00    +0.017 C 
ATOM     14  C   UNL     1      31.738 -22.901 -14.923  0.00  0.00    +0.001 C 
ATOM     15  C   UNL     1      33.943 -23.281 -15.727  0.00  0.00    +0.096 C 
ATOM     16  C   UNL     1      32.176 -23.243 -13.649  0.00  0.00    +0.020 C 
ATOM     17  C   UNL     1      33.508 -23.591 -13.493  0.00  0.00    +0.099 C 
ENDBRANCH  11  13
ENDBRANCH   8  11
ENDBRANCH   1   9
BRANCH   2  20
ATOM     18  O   UNL     1      33.904 -18.021 -23.468  0.00  0.00    -0.270 OA
ATOM     19  N   UNL     1      34.867 -16.375 -22.150  0.00  0.00    -0.297 N 
ATOM     20  C   UNL     1      34.490 -17.695 -22.421  0.00  0.00    +0.246 C 
ATOM     21  H   UNL     1      35.329 -16.187 -21.302  0.00  0.00    +0.150 HD
BRANCH  19  22
ATOM     22  C   UNL     1      34.613 -15.271 -23.050  0.00  0.00    +0.118 C 
BRANCH  22  24
ATOM     23  N   UNL     1      32.069 -12.501 -22.814  0.00  0.00    -0.243 NA
ATOM     24  C   UNL     1      33.652 -14.278 -22.463  0.00  0.00    +0.017 C 
ATOM     25  C   UNL     1      33.460 -14.211 -21.094  0.00  0.00    +0.001 C 
ATOM     26  C   UNL     1      32.948 -13.418 -23.278  0.00  0.00    +0.096 C 
ATOM     27  C   UNL     1      32.563 -13.280 -20.579  0.00  0.00    +0.020 C 
ATOM     28  C   UNL     1      31.900 -12.456 -21.474  0.00  0.00    +0.099 C 
ENDBRANCH  22  24
ENDBRANCH  19  22
ENDBRANCH   2  20
BRANCH   4  29
ATOM     29  O   UNL     1      35.680 -21.519 -18.497  0.00  0.00    -0.471 OA
ATOM     30  C   UNL     1      36.458 -21.074 -17.389  0.00  0.00    +0.252 C 
ENDBRANCH   4  29
TORSDOF 7
ENDMDL
MODEL 3
REMARK VINA RESULT:     -11.9      3.847     11.131
REMARK  Name = 4814
REMARK  7 active torsions:
REMARK  status: ('A' for Active; 'I' for Inactive)
REMARK    1  A    between atoms: C_1  and  C_9
REMARK    2  A    between atoms: C_2  and  C_20
REMARK    3  A    between atoms: C_4  and  O_29
REMARK    4  A    between atoms: N_8  and  C_11
REMARK    5  A    between atoms: C_11  and  C_13
REMARK    6  A    between atoms: N_19  and  C_22
REMARK    7  A    between atoms: C_22  and  C_24
REMARK                            x       y       z     vdW  Elec       q    Type
REMARK                         _______ _______ _______ _____ _____    ______ ____
ROOT
ATOM      1  C   UNL     1      35.186 -21.506 -17.891  0.00  0.00    +0.087 C 
ATOM      2  C   UNL     1      34.961 -20.100 -19.842  0.00  0.00    +0.054 C 
ATOM      3  C   UNL     1      35.693 -20.513 -18.729  0.00  0.00    +0.012 C 
ATOM      4  C   UNL     1      33.948 -22.086 -18.167  0.00  0.00    +0.143 C 
ATOM      5  C   UNL     1      33.724 -20.680 -20.118  0.00  0.00    +0.008 C 
ATOM      6  C   UNL     1      33.216 -21.673 -19.280  0.00  0.00    +0.037 C 
ENDROOT
BRANCH   1   9
ATOM      7  O   UNL     1      37.199 -22.042 -16.814  0.00  0.00    -0.270 OA
ATOM      8  N   UNL     1      35.260 -22.156 -15.547  0.00  0.00    -0.297 N 
ATOM      9  C   UNL     1      35.965 -21.924 -16.734  0.00  0.00    +0.249 C 
ATOM     10  H   UNL     1      34.282 -22.043 -15.556  0.00  0.00    +0.150 HD
BRANCH   8  11
ATOM     11  C   UNL     1      35.893 -22.552 -14.309  0.00  0.00    +0.118 C 
BRANCH  11  13
ATOM     12  N   UNL     1      35.840 -26.243 -15.063  0.00  0.00    -0.243 NA
ATOM     13  C   UNL     1      36.287 -24.000 -14.318  0.00  0.00    +0.017 C 
ATOM     14  C   UNL     1      37.406 -24.428 -13.626  0.00  0.00    +0.001 C 
ATOM     15  C   UNL     1      35.541 -24.926 -15.014  0.00  0.00    +0.096 C 
ATOM     16  C   UNL     1      37.746 -25.776 -13.651  0.00  0.00    +0.020 C 
ATOM     17  C   UNL     1      36.938 -26.635 -14.378  0.00  0.00    +0.099 C 
ENDBRANCH  11  13
ENDBRANCH   8  11
ENDBRANCH   1   9
BRANCH   2  20
ATOM     18  O   UNL     1      36.633 -18.607 -20.533  0.00  0.00    -0.270 OA
ATOM     19  N   UNL     1      34.672 -18.642 -21.769  0.00  0.00    -0.297 N 
ATOM     20  C   UNL     1      35.492 -19.066 -20.717  0.00  0.00    +0.246 C 
ATOM     21  H   UNL     1      33.779 -19.047 -21.856  0.00  0.00    +0.150 HD
BRANCH  19  22
ATOM     22  C   UNL     1      35.065 -17.641 -22.736  0.00  0.00    +0.118 C 
BRANCH  22  24
ATOM     23  N   UNL     1      33.996 -14.714 -20.616  0.00  0.00    -0.243 NA
ATOM     24  C   UNL     1      34.584 -16.271 -22.353  0.00  0.00    +0.017 C 
ATOM     25  C   UNL     1      34.293 -15.332 -23.327  0.00  0.00    +0.001 C 
ATOM     26  C   UNL     1      34.425 -15.929 -21.028  0.00  0.00    +0.096 C 
ATOM     27  C   UNL     1      33.849 -14.071 -22.942  0.00  0.00    +0.020 C 
ATOM     28  C   UNL     1      33.718 -13.815 -21.587  0.00  0.00    +0.099 C 
ENDBRANCH  22  24
ENDBRANCH  19  22
ENDBRANCH   2  20
BRANCH   4  29
ATOM     29  O   UNL     1      33.436 -23.058 -17.361  0.00  0.00    -0.471 OA
ATOM     30  C   UNL     1      32.126 -22.844 -16.839  0.00  0.00    +0.252 C 
ENDBRANCH   4  29
TORSDOF 7
ENDMDL
MODEL 4
REMARK VINA RESULT:     -11.7      3.407     10.323
REMARK  Name = 4814
REMARK  7 active torsions:
REMARK  status: ('A' for Active; 'I' for Inactive)
REMARK    1  A    between atoms: C_1  and  C_9
REMARK    2  A    between atoms: C_2  and  C_20
REMARK    3  A    between atoms: C_4  and  O_29
REMARK    4  A    between atoms: N_8  and  C_11
REMARK    5  A    between atoms: C_11  and  C_13
REMARK    6  A    between atoms: N_19  and  C_22
REMARK    7  A    between atoms: C_22  and  C_24
REMARK                            x       y       z     vdW  Elec       q    Type
REMARK                         _______ _______ _______ _____ _____    ______ ____
ROOT
ATOM      1  C   UNL     1      33.792 -21.644 -18.587  0.00  0.00    +0.087 C 
ATOM      2  C   UNL     1      34.498 -20.063 -20.272  0.00  0.00    +0.054 C 
ATOM      3  C   UNL     1      33.497 -20.841 -19.689  0.00  0.00    +0.012 C 
ATOM      4  C   UNL     1      35.087 -21.670 -18.070  0.00  0.00    +0.143 C 
ATOM      5  C   UNL     1      35.792 -20.089 -19.754  0.00  0.00    +0.008 C 
ATOM      6  C   UNL     1      36.087 -20.892 -18.653  0.00  0.00    +0.037 C 
ENDROOT
BRANCH   1   9
ATOM      7  O   UNL     1      32.793 -23.689 -18.022  0.00  0.00    -0.270 OA
ATOM      8  N   UNL     1      31.682 -21.758 -17.379  0.00  0.00    -0.297 N 
ATOM      9  C   UNL     1      32.734 -22.448 -17.992  0.00  0.00    +0.249 C 
ATOM     10  H   UNL     1      31.700 -20.773 -17.394  0.00  0.00    +0.150 HD
BRANCH   8  11
ATOM     11  C   UNL     1      30.572 -22.413 -16.725  0.00  0.00    +0.118 C 
BRANCH  11  13
ATOM     12  N   UNL     1      30.681 -24.977 -13.967  0.00  0.00    -0.243 NA
ATOM     13  C   UNL     1      31.000 -23.135 -15.481  0.00  0.00    +0.017 C 
ATOM     14  C   UNL     1      32.056 -22.663 -14.722  0.00  0.00    +0.001 C 
ATOM     15  C   UNL     1      30.348 -24.279 -15.075  0.00  0.00    +0.096 C 
ATOM     16  C   UNL     1      32.429 -23.353 -13.574  0.00  0.00    +0.020 C 
ATOM     17  C   UNL     1      31.716 -24.494 -13.243  0.00  0.00    +0.099 C 
ENDBRANCH  11  13
ENDBRANCH   8  11
ENDBRANCH   1   9
BRANCH   2  20
ATOM     18  O   UNL     1      33.165 -19.428 -22.094  0.00  0.00    -0.270 OA
ATOM     19  N   UNL     1      35.080 -18.182 -21.702  0.00  0.00    -0.297 N 
ATOM     20  C   UNL     1      34.189 -19.224 -21.420  0.00  0.00    +0.246 C 
ATOM     21  H   UNL     1      35.872 -18.078 -21.127  0.00  0.00    +0.150 HD
BRANCH  19  22
ATOM     22  C   UNL     1      34.899 -17.249 -22.792  0.00  0.00    +0.118 C 
BRANCH  22  24
ATOM     23  N   UNL     1      33.886 -14.466 -20.462  0.00  0.00    -0.243 NA
ATOM     24  C   UNL     1      34.466 -15.896 -22.308  0.00  0.00    +0.017 C 
ATOM     25  C   UNL     1      34.252 -14.864 -23.205  0.00  0.00    +0.001 C 
ATOM     26  C   UNL     1      34.275 -15.660 -20.964  0.00  0.00    +0.096 C 
ATOM     27  C   UNL     1      33.851 -13.621 -22.727  0.00  0.00    +0.020 C 
ATOM     28  C   UNL     1      33.683 -13.475 -21.359  0.00  0.00    +0.099 C 
ENDBRANCH  22  24
ENDBRANCH  19  22
ENDBRANCH   2  20
BRANCH   4  29
ATOM     29  O   UNL     1      35.395 -22.447 -16.993  0.00  0.00    -0.471 OA
ATOM     30  C   UNL     1      36.422 -21.974 -16.125  0.00  0.00    +0.252 C 
ENDBRANCH   4  29
TORSDOF 7
ENDMDL
MODEL 5
REMARK VINA RESULT:     -11.6      6.348     12.446
REMARK  Name = 4814
REMARK  7 active torsions:
REMARK  status: ('A' for Active; 'I' for Inactive)
REMARK    1  A    between atoms: C_1  and  C_9
REMARK    2  A    between atoms: C_2  and  C_20
REMARK    3  A    between atoms: C_4  and  O_29
REMARK    4  A    between atoms: N_8  and  C_11
REMARK    5  A    between atoms: C_11  and  C_13
REMARK    6  A    between atoms: N_19  and  C_22
REMARK    7  A    between atoms: C_22  and  C_24
REMARK                            x       y       z     vdW  Elec       q    Type
REMARK                         _______ _______ _______ _____ _____    ______ ____
ROOT
ATOM      1  C   UNL     1      33.536 -23.052 -14.899  0.00  0.00    +0.087 C 
ATOM      2  C   UNL     1      32.659 -22.569 -17.097  0.00  0.00    +0.054 C 
ATOM      3  C   UNL     1      33.747 -22.735 -16.240  0.00  0.00    +0.012 C 
ATOM      4  C   UNL     1      32.237 -23.202 -14.414  0.00  0.00    +0.143 C 
ATOM      5  C   UNL     1      31.360 -22.720 -16.613  0.00  0.00    +0.008 C 
ATOM      6  C   UNL     1      31.148 -23.036 -15.271  0.00  0.00    +0.037 C 
ENDROOT
BRANCH   1   9
ATOM      7  O   UNL     1      35.587 -22.368 -13.990  0.00  0.00    -0.270 OA
ATOM      8  N   UNL     1      34.702 -24.366 -13.214  0.00  0.00    -0.297 N 
ATOM      9  C   UNL     1      34.685 -23.222 -14.020  0.00  0.00    +0.249 C 
ATOM     10  H   UNL     1      33.953 -25.001 -13.290  0.00  0.00    +0.150 HD
BRANCH   8  11
ATOM     11  C   UNL     1      35.759 -24.664 -12.275  0.00  0.00    +0.118 C 
BRANCH  11  13
ATOM     12  N   UNL     1      38.178 -26.569 -14.445  0.00  0.00    -0.243 NA
ATOM     13  C   UNL     1      37.031 -25.057 -12.967  0.00  0.00    +0.017 C 
ATOM     14  C   UNL     1      38.188 -24.320 -12.786  0.00  0.00    +0.001 C 
ATOM     15  C   UNL     1      37.068 -26.160 -13.793  0.00  0.00    +0.096 C 
ATOM     16  C   UNL     1      39.351 -24.710 -13.439  0.00  0.00    +0.020 C 
ATOM     17  C   UNL     1      39.295 -25.831 -14.251  0.00  0.00    +0.099 C 
ENDBRANCH  11  13
ENDBRANCH   8  11
ENDBRANCH   1   9
BRANCH   2  20
ATOM     18  O   UNL     1      33.366 -23.081 -19.274  0.00  0.00    -0.270 OA
ATOM     19  N   UNL     1      32.503 -20.960 -18.916  0.00  0.00    -0.297 N 
ATOM     20  C   UNL     1      32.881 -22.241 -18.497  0.00  0.00    +0.246 C 
ATOM     21  H   UNL     1      32.125 -20.344 -18.248  0.00  0.00    +0.150 HD
BRANCH  19  22
ATOM     22  C   UNL     1      32.637 -20.492 -20.278  0.00  0.00    +0.118 C 
BRANCH  22  24
ATOM     23  N   UNL     1      36.282 -19.583 -19.984  0.00  0.00    -0.243 NA
ATOM     24  C   UNL     1      33.943 -19.785 -20.503  0.00  0.00    +0.017 C 
ATOM     25  C   UNL     1      34.024 -18.728 -21.393  0.00  0.00    +0.001 C 
ATOM     26  C   UNL     1      35.078 -20.176 -19.827  0.00  0.00    +0.096 C 
ATOM     27  C   UNL     1      35.246 -18.092 -21.581  0.00  0.00    +0.020 C 
ATOM     28  C   UNL     1      36.335 -18.553 -20.858  0.00  0.00    +0.099 C 
ENDBRANCH  22  24
ENDBRANCH  19  22
ENDBRANCH   2  20
BRANCH   4  29
ATOM     29  O   UNL     1      32.009 -23.513 -13.106  0.00  0.00    -0.471 OA
ATOM     30  C   UNL     1      30.993 -24.476 -12.836  0.00  0.00    +0.252 C 
ENDBRANCH   4  29
TORSDOF 7
ENDMDL
MODEL 6
REMARK VINA RESULT:     -11.6      4.070     10.874
REMARK  Name = 4814
REMARK  7 active torsions:
REMARK  status: ('A' for Active; 'I' for Inactive)
REMARK    1  A    between atoms: C_1  and  C_9
REMARK    2  A    between atoms: C_2  and  C_20
REMARK    3  A    between atoms: C_4  and  O_29
REMARK    4  A    between atoms: N_8  and  C_11
REMARK    5  A    between atoms: C_11  and  C_13
REMARK    6  A    between atoms: N_19  and  C_22
REMARK    7  A    between atoms: C_22  and  C_24
REMARK                            x       y       z     vdW  Elec       q    Type
REMARK                         _______ _______ _______ _____ _____    ______ ____
ROOT
ATOM      1  C   UNL     1      35.606 -21.382 -17.710  0.00  0.00    +0.087 C 
ATOM      2  C   UNL     1      35.167 -20.251 -19.798  0.00  0.00    +0.054 C 
ATOM      3  C   UNL     1      36.008 -20.502 -18.714  0.00  0.00    +0.012 C 
ATOM      4  C   UNL     1      34.363 -22.010 -17.789  0.00  0.00    +0.143 C 
ATOM      5  C   UNL     1      33.925 -20.879 -19.878  0.00  0.00    +0.008 C 
ATOM      6  C   UNL     1      33.522 -21.759 -18.873  0.00  0.00    +0.037 C 
ENDROOT
BRANCH   1   9
ATOM      7  O   UNL     1      37.231 -20.728 -16.151  0.00  0.00    -0.270 OA
ATOM      8  N   UNL     1      36.465 -22.913 -16.024  0.00  0.00    -0.297 N 
ATOM      9  C   UNL     1      36.498 -21.632 -16.586  0.00  0.00    +0.249 C 
ATOM     10  H   UNL     1      35.859 -23.580 -16.420  0.00  0.00    +0.150 HD
BRANCH   8  11
ATOM     11  C   UNL     1      37.272 -23.308 -14.891  0.00  0.00    +0.118 C 
BRANCH  11  13
ATOM     12  N   UNL     1      36.345 -22.732 -11.285  0.00  0.00    -0.243 NA
ATOM     13  C   UNL     1      36.483 -23.316 -13.615  0.00  0.00    +0.017 C 
ATOM     14  C   UNL     1      35.222 -23.883 -13.571  0.00  0.00    +0.001 C 
ATOM     15  C   UNL     1      37.002 -22.758 -12.466  0.00  0.00    +0.096 C 
ATOM     16  C   UNL     1      34.515 -23.876 -12.374  0.00  0.00    +0.020 C 
ATOM     17  C   UNL     1      35.115 -23.293 -11.270  0.00  0.00    +0.099 C 
ENDBRANCH  11  13
ENDBRANCH   8  11
ENDBRANCH   1   9
BRANCH   2  20
ATOM     18  O   UNL     1      36.742 -18.871 -20.855  0.00  0.00    -0.270 OA
ATOM     19  N   UNL     1      34.648 -19.028 -21.837  0.00  0.00    -0.297 N 
ATOM     20  C   UNL     1      35.588 -19.334 -20.846  0.00  0.00    +0.246 C 
ATOM     21  H   UNL     1      33.752 -19.430 -21.769  0.00  0.00    +0.150 HD
BRANCH  19  22
ATOM     22  C   UNL     1      34.922 -18.154 -22.956  0.00  0.00    +0.118 C 
BRANCH  22  24
ATOM     23  N   UNL     1      33.715 -14.632 -23.539  0.00  0.00    -0.243 NA
ATOM     24  C   UNL     1      34.493 -16.741 -22.684  0.00  0.00    +0.017 C 
ATOM     25  C   UNL     1      34.477 -16.249 -21.390  0.00  0.00    +0.001 C 
ATOM     26  C   UNL     1      34.111 -15.913 -23.716  0.00  0.00    +0.096 C 
ATOM     27  C   UNL     1      34.075 -14.936 -21.168  0.00  0.00    +0.020 C 
ATOM     28  C   UNL     1      33.708 -14.176 -22.267  0.00  0.00    +0.099 C 
ENDBRANCH  22  24
ENDBRANCH  19  22
ENDBRANCH   2  20
BRANCH   4  29
ATOM     29  O   UNL     1      33.952 -22.874 -16.818  0.00  0.00    -0.471 OA
ATOM     30  C   UNL     1      32.559 -22.896 -16.518  0.00  0.00    +0.252 C 
ENDBRANCH   4  29
TORSDOF 7
ENDMDL
MODEL 7
REMARK VINA RESULT:     -11.3      3.584     10.060
REMARK  Name = 4814
REMARK  7 active torsions:
REMARK  status: ('A' for Active; 'I' for Inactive)
REMARK    1  A    between atoms: C_1  and  C_9
REMARK    2  A    between atoms: C_2  and  C_20
REMARK    3  A    between atoms: C_4  and  O_29
REMARK    4  A    between atoms: N_8  and  C_11
REMARK    5  A    between atoms: C_11  and  C_13
REMARK    6  A    between atoms: N_19  and  C_22
REMARK    7  A    between atoms: C_22  and  C_24
REMARK                            x       y       z     vdW  Elec       q    Type
REMARK                         _______ _______ _______ _____ _____    ______ ____
ROOT
ATOM      1  C   UNL     1      34.187 -22.025 -18.008  0.00  0.00    +0.087 C 
ATOM      2  C   UNL     1      34.677 -20.410 -19.736  0.00  0.00    +0.054 C 
ATOM      3  C   UNL     1      33.789 -21.299 -19.130  0.00  0.00    +0.012 C 
ATOM      4  C   UNL     1      35.472 -21.861 -17.491  0.00  0.00    +0.143 C 
ATOM      5  C   UNL     1      35.962 -20.246 -19.220  0.00  0.00    +0.008 C 
ATOM      6  C   UNL     1      36.360 -20.972 -18.097  0.00  0.00    +0.037 C 
ENDROOT
BRANCH   1   9
ATOM      7  O   UNL     1      32.856 -23.955 -18.002  0.00  0.00    -0.270 OA
ATOM      8  N   UNL     1      32.832 -22.651 -16.085  0.00  0.00    -0.297 N 
ATOM      9  C   UNL     1      33.245 -22.947 -17.389  0.00  0.00    +0.249 C 
ATOM     10  H   UNL     1      33.181 -21.834 -15.660  0.00  0.00    +0.150 HD
BRANCH   8  11
ATOM     11  C   UNL     1      31.921 -23.481 -15.329  0.00  0.00    +0.118 C 
BRANCH  11  13
ATOM     12  N   UNL     1      28.887 -21.836 -16.840  0.00  0.00    -0.243 NA
ATOM     13  C   UNL     1      30.488 -23.109 -15.573  0.00  0.00    +0.017 C 
ATOM     14  C   UNL     1      29.478 -23.657 -14.804  0.00  0.00    +0.001 C 
ATOM     15  C   UNL     1      30.155 -22.214 -16.568  0.00  0.00    +0.096 C 
ATOM     16  C   UNL     1      28.160 -23.293 -15.052  0.00  0.00    +0.020 C 
ATOM     17  C   UNL     1      27.919 -22.387 -16.073  0.00  0.00    +0.099 C 
ENDBRANCH  11  13
ENDBRANCH   8  11
ENDBRANCH   1   9
BRANCH   2  20
ATOM     18  O   UNL     1      33.090 -19.722 -21.320  0.00  0.00    -0.270 OA
ATOM     19  N   UNL     1      35.225 -18.840 -21.513  0.00  0.00    -0.297 N 
ATOM     20  C   UNL     1      34.261 -19.652 -20.906  0.00  0.00    +0.246 C 
ATOM     21  H   UNL     1      36.134 -18.833 -21.133  0.00  0.00    +0.150 HD
BRANCH  19  22
ATOM     22  C   UNL     1      34.961 -18.010 -22.667  0.00  0.00    +0.118 C 
BRANCH  22  24
ATOM     23  N   UNL     1      33.954 -14.390 -22.955  0.00  0.00    -0.243 NA
ATOM     24  C   UNL     1      34.553 -16.618 -22.277  0.00  0.00    +0.017 C 
ATOM     25  C   UNL     1      34.404 -16.279 -20.943  0.00  0.00    +0.001 C 
ATOM     26  C   UNL     1      34.323 -15.660 -23.239  0.00  0.00    +0.096 C 
ATOM     27  C   UNL     1      34.027 -14.982 -20.612  0.00  0.00    +0.020 C 
ATOM     28  C   UNL     1      33.816 -14.083 -21.646  0.00  0.00    +0.099 C 
ENDBRANCH  22  24
ENDBRANCH  19  22
ENDBRANCH   2  20
BRANCH   4  29
ATOM     29  O   UNL     1      35.879 -22.560 -16.394  0.00  0.00    -0.471 OA
ATOM     30  C   UNL     1      36.772 -21.900 -15.500  0.00  0.00    +0.252 C 
ENDBRANCH   4  29
TORSDOF 7
ENDMDL
MODEL 8
REMARK VINA RESULT:     -11.3      1.848      9.419
REMARK  Name = 4814
REMARK  7 active torsions:
REMARK  status: ('A' for Active; 'I' for Inactive)
REMARK    1  A    between atoms: C_1  and  C_9
REMARK    2  A    between atoms: C_2  and  C_20
REMARK    3  A    between atoms: C_4  and  O_29
REMARK    4  A    between atoms: N_8  and  C_11
REMARK    5  A    between atoms: C_11  and  C_13
REMARK    6  A    between atoms: N_19  and  C_22
REMARK    7  A    between atoms: C_22  and  C_24
REMARK                            x       y       z     vdW  Elec       q    Type
REMARK                         _______ _______ _______ _____ _____    ______ ____
ROOT
ATOM      1  C   UNL     1      33.950 -15.144 -22.292  0.00  0.00    +0.087 C 
ATOM      2  C   UNL     1      32.720 -13.069 -22.407  0.00  0.00    +0.054 C 
ATOM      3  C   UNL     1      33.404 -14.027 -21.660  0.00  0.00    +0.012 C 
ATOM      4  C   UNL     1      33.811 -15.303 -23.670  0.00  0.00    +0.143 C 
ATOM      5  C   UNL     1      32.581 -13.227 -23.785  0.00  0.00    +0.008 C 
ATOM      6  C   UNL     1      33.126 -14.344 -24.418  0.00  0.00    +0.037 C 
ENDROOT
BRANCH   1   9
ATOM      7  O   UNL     1      34.574 -16.125 -20.255  0.00  0.00    -0.270 OA
ATOM      8  N   UNL     1      35.414 -17.086 -22.191  0.00  0.00    -0.297 N 
ATOM      9  C   UNL     1      34.662 -16.133 -21.494  0.00  0.00    +0.249 C 
ATOM     10  H   UNL     1      35.439 -17.032 -23.174  0.00  0.00    +0.150 HD
BRANCH   8  11
ATOM     11  C   UNL     1      36.156 -18.145 -21.545  0.00  0.00    +0.118 C 
BRANCH  11  13
ATOM     12  N   UNL     1      33.043 -20.066 -20.643  0.00  0.00    -0.243 NA
ATOM     13  C   UNL     1      35.250 -19.139 -20.878  0.00  0.00    +0.017 C 
ATOM     14  C   UNL     1      35.744 -20.012 -19.925  0.00  0.00    +0.001 C 
ATOM     15  C   UNL     1      33.912 -19.197 -21.204  0.00  0.00    +0.096 C 
ATOM     16  C   UNL     1      34.880 -20.921 -19.325  0.00  0.00    +0.020 C 
ATOM     17  C   UNL     1      33.551 -20.908 -19.715  0.00  0.00    +0.099 C 
ENDBRANCH  11  13
ENDBRANCH   8  11
ENDBRANCH   1   9
BRANCH   2  20
ATOM     18  O   UNL     1      32.016 -11.880 -20.512  0.00  0.00    -0.270 OA
ATOM     19  N   UNL     1      31.797 -10.822 -22.563  0.00  0.00    -0.297 N 
ATOM     20  C   UNL     1      32.152 -11.903 -21.747  0.00  0.00    +0.246 C 
ATOM     21  H   UNL     1      31.931 -10.908 -23.534  0.00  0.00    +0.150 HD
BRANCH  19  22
ATOM     22  C   UNL     1      31.244  -9.586 -22.056  0.00  0.00    +0.118 C 
BRANCH  22  24
ATOM     23  N   UNL     1      32.948  -6.270 -21.508  0.00  0.00    -0.243 NA
ATOM     24  C   UNL     1      32.187  -8.432 -22.237  0.00  0.00    +0.017 C 
ATOM     25  C   UNL     1      33.129  -8.448 -23.252  0.00  0.00    +0.001 C 
ATOM     26  C   UNL     1      32.129  -7.341 -21.399  0.00  0.00    +0.096 C 
ATOM     27  C   UNL     1      33.989  -7.365 -23.396  0.00  0.00    +0.020 C 
ATOM     28  C   UNL     1      33.859  -6.310 -22.507  0.00  0.00    +0.099 C 
ENDBRANCH  22  24
ENDBRANCH  19  22
ENDBRANCH   2  20
BRANCH   4  29
ATOM     29  O   UNL     1      34.338 -16.387 -24.307  0.00  0.00    -0.471 OA
ATOM     30  C   UNL     1      33.424 -17.391 -24.741  0.00  0.00    +0.252 C 
ENDBRANCH   4  29
TORSDOF 7
ENDMDL
MODEL 9
REMARK VINA RESULT:     -11.2      2.604      5.334
REMARK  Name = 4814
REMARK  7 active torsions:
REMARK  status: ('A' for Active; 'I' for Inactive)
REMARK    1  A    between atoms: C_1  and  C_9
REMARK    2  A    between atoms: C_2  and  C_20
REMARK    3  A    between atoms: C_4  and  O_29
REMARK    4  A    between atoms: N_8  and  C_11
REMARK    5  A    between atoms: C_11  and  C_13
REMARK    6  A    between atoms: N_19  and  C_22
REMARK    7  A    between atoms: C_22  and  C_24
REMARK                            x       y       z     vdW  Elec       q    Type
REMARK                         _______ _______ _______ _____ _____    ______ ____
ROOT
ATOM      1  C   UNL     1      31.959  -9.911 -22.594  0.00  0.00    +0.087 C 
ATOM      2  C   UNL     1      32.375 -12.266 -22.939  0.00  0.00    +0.054 C 
ATOM      3  C   UNL     1      32.450 -10.947 -23.389  0.00  0.00    +0.012 C 
ATOM      4  C   UNL     1      31.393 -10.194 -21.351  0.00  0.00    +0.143 C 
ATOM      5  C   UNL     1      31.809 -12.548 -21.697  0.00  0.00    +0.008 C 
ATOM      6  C   UNL     1      31.318 -11.513 -20.902  0.00  0.00    +0.037 C 
ENDROOT
BRANCH   1   9
ATOM      7  O   UNL     1      31.307  -8.150 -23.999  0.00  0.00    -0.270 OA
ATOM      8  N   UNL     1      32.976  -7.705 -22.451  0.00  0.00    -0.297 N 
ATOM      9  C   UNL     1      32.047  -8.541 -23.080  0.00  0.00    +0.249 C 
ATOM     10  H   UNL     1      33.530  -8.082 -21.730  0.00  0.00    +0.150 HD
BRANCH   8  11
ATOM     11  C   UNL     1      33.164  -6.315 -22.803  0.00  0.00    +0.118 C 
BRANCH  11  13
ATOM     12  N   UNL     1      30.293  -3.879 -22.931  0.00  0.00    -0.243 NA
ATOM     13  C   UNL     1      32.012  -5.462 -22.360  0.00  0.00    +0.017 C 
ATOM     14  C   UNL     1      31.609  -5.458 -21.036  0.00  0.00    +0.001 C 
ATOM     15  C   UNL     1      31.337  -4.669 -23.263  0.00  0.00    +0.096 C 
ATOM     16  C   UNL     1      30.539  -4.656 -20.655  0.00  0.00    +0.020 C 
ATOM     17  C   UNL     1      29.920  -3.892 -21.631  0.00  0.00    +0.099 C 
ENDBRANCH  11  13
ENDBRANCH   8  11
ENDBRANCH   1   9
BRANCH   2  20
ATOM     18  O   UNL     1      32.773 -13.303 -25.005  0.00  0.00    -0.270 OA
ATOM     19  N   UNL     1      33.530 -14.401 -23.109  0.00  0.00    -0.297 N 
ATOM     20  C   UNL     1      32.889 -13.345 -23.768  0.00  0.00    +0.246 C 
ATOM     21  H   UNL     1      33.586 -14.371 -22.127  0.00  0.00    +0.150 HD
BRANCH  19  22
ATOM     22  C   UNL     1      34.114 -15.533 -23.793  0.00  0.00    +0.118 C 
BRANCH  22  24
ATOM     23  N   UNL     1      35.183 -17.400 -20.699  0.00  0.00    -0.243 NA
ATOM     24  C   UNL     1      34.404 -16.668 -22.854  0.00  0.00    +0.017 C 
ATOM     25  C   UNL     1      34.178 -17.977 -23.244  0.00  0.00    +0.001 C 
ATOM     26  C   UNL     1      34.900 -16.425 -21.592  0.00  0.00    +0.096 C 
ATOM     27  C   UNL     1      34.457 -19.008 -22.353  0.00  0.00    +0.020 C 
ATOM     28  C   UNL     1      34.954 -18.670 -21.104  0.00  0.00    +0.099 C 
ENDBRANCH  22  24
ENDBRANCH  19  22
ENDBRANCH   2  20
BRANCH   4  29
ATOM     29  O   UNL     1      30.908  -9.196 -20.560  0.00  0.00    -0.471 OA
ATOM     30  C   UNL     1      31.059  -9.355 -19.151  0.00  0.00    +0.252 C 
ENDBRANCH   4  29
TORSDOF 7
ENDMDL
