MODEL 1
REMARK VINA RESULT:     -12.7      0.000      0.000
REMARK  Name = 214351
REMARK  5 active torsions:
REMARK  status: ('A' for Active; 'I' for Inactive)
REMARK    1  A    between atoms: C_5  and  S_17
REMARK    2  A    between atoms: C_6  and  N_12
REMARK    3  A    between atoms: S_17  and  C_19
REMARK    4  A    between atoms: C_19  and  C_21
REMARK    5  A    between atoms: C_23  and  O_27
REMARK                            x       y       z     vdW  Elec       q    Type
REMARK                         _______ _______ _______ _____ _____    ______ ____
ROOT
ATOM      1  N   UNL     1      34.400 -15.574 -20.922  0.00  0.00    -0.307 N 
ATOM      2  N   UNL     1      34.654 -16.250 -23.024  0.00  0.00    -0.307 N 
ATOM      3  C   UNL     1      33.792 -14.615 -21.691  0.00  0.00    +0.061 C 
ATOM      4  C   UNL     1      33.964 -15.060 -22.998  0.00  0.00    +0.060 C 
ATOM      5  C   UNL     1      34.900 -16.528 -21.764  0.00  0.00    +0.226 C 
ATOM      6  C   UNL     1      32.618 -12.682 -22.429  0.00  0.00    +0.057 C 
ATOM      7  C   UNL     1      33.125 -13.434 -21.363  0.00  0.00    +0.031 C 
ATOM      8  C   UNL     1      33.447 -14.292 -24.056  0.00  0.00    +0.017 C 
ATOM      9  C   UNL     1      32.774 -13.102 -23.751  0.00  0.00    +0.016 C 
ATOM     10  H   UNL     1      34.466 -15.575 -19.940  0.00  0.00    +0.149 HD
ATOM     11  H   UNL     1      34.909 -16.777 -23.816  0.00  0.00    +0.149 HD
ENDROOT
BRANCH   6  12
ATOM     12  N   UNL     1      31.946 -11.500 -22.165  0.00  0.00    -0.263 N 
ATOM     13  C   UNL     1      31.976 -10.370 -22.950  0.00  0.00    +0.070 C 
ATOM     14  C   UNL     1      31.139 -11.265 -21.075  0.00  0.00    +0.070 C 
ATOM     15  C   UNL     1      31.184  -9.413 -22.355  0.00  0.00    +0.018 C 
ATOM     16  C   UNL     1      30.655  -9.979 -21.169  0.00  0.00    +0.018 C 
ENDBRANCH   6  12
BRANCH   5  17
ATOM     17  S   UNL     1      35.785 -17.984 -21.220  0.00  0.00    +0.085 S 
ATOM     18  O   UNL     1      36.759 -18.337 -22.312  0.00  0.00    -0.252 OA
BRANCH  17  19
ATOM     19  C   UNL     1      34.411 -19.160 -21.336  0.00  0.00    +0.140 C 
BRANCH  19  21
ATOM     20  N   UNL     1      35.618 -20.420 -19.674  0.00  0.00    -0.247 NA
ATOM     21  C   UNL     1      34.405 -20.122 -20.182  0.00  0.00    +0.072 C 
ATOM     22  C   UNL     1      33.211 -20.634 -19.714  0.00  0.00    +0.027 C 
ATOM     23  C   UNL     1      33.263 -21.520 -18.644  0.00  0.00    +0.137 C 
ATOM     24  C   UNL     1      31.903 -20.260 -20.328  0.00  0.00    +0.035 C 
ATOM     25  C   UNL     1      34.493 -21.856 -18.087  0.00  0.00    +0.057 C 
ATOM     26  C   UNL     1      35.630 -21.284 -18.633  0.00  0.00    +0.102 C 
BRANCH  23  27
ATOM     27  O   UNL     1      32.127 -22.065 -18.129  0.00  0.00    -0.472 OA
ATOM     28  C   UNL     1      32.251 -22.795 -16.910  0.00  0.00    +0.252 C 
ENDBRANCH  23  27
ENDBRANCH  19  21
ENDBRANCH  17  19
ENDBRANCH   5  17
TORSDOF 5
ENDMDL
MODEL 2
REMARK VINA RESULT:     -12.1      2.437      9.594
REMARK  Name = 214351
REMARK  5 active torsions:
REMARK  status: ('A' for Active; 'I' for Inactive)
REMARK    1  A    between atoms: C_5  and  S_17
REMARK    2  A    between atoms: C_6  and  N_12
REMARK    3  A    between atoms: S_17  and  C_19
REMARK    4  A    between atoms: C_19  and  C_21
REMARK    5  A    between atoms: C_23  and  O_27
REMARK                            x       y       z     vdW  Elec       q    Type
REMARK                         _______ _______ _______ _____ _____    ______ ____
ROOT
ATOM      1  N   UNL     1      35.947 -19.844 -19.838  0.00  0.00    -0.307 N 
ATOM      2  N   UNL     1      33.887 -19.967 -20.663  0.00  0.00    -0.307 N 
ATOM      3  C   UNL     1      35.265 -20.685 -18.996  0.00  0.00    +0.061 C 
ATOM      4  C   UNL     1      33.983 -20.745 -19.533  0.00  0.00    +0.060 C 
ATOM      5  C   UNL     1      35.082 -19.441 -20.816  0.00  0.00    +0.226 C 
ATOM      6  C   UNL     1      34.670 -22.161 -17.228  0.00  0.00    +0.057 C 
ATOM      7  C   UNL     1      35.650 -21.377 -17.847  0.00  0.00    +0.031 C 
ATOM      8  C   UNL     1      33.011 -21.539 -18.898  0.00  0.00    +0.017 C 
ATOM      9  C   UNL     1      33.375 -22.243 -17.743  0.00  0.00    +0.016 C 
ATOM     10  H   UNL     1      36.891 -19.577 -19.752  0.00  0.00    +0.149 HD
ATOM     11  H   UNL     1      33.096 -19.833 -21.233  0.00  0.00    +0.149 HD
ENDROOT
BRANCH   6  12
ATOM     12  N   UNL     1      34.994 -22.871 -16.084  0.00  0.00    -0.263 N 
ATOM     13  C   UNL     1      34.130 -23.661 -15.360  0.00  0.00    +0.070 C 
ATOM     14  C   UNL     1      36.235 -22.904 -15.487  0.00  0.00    +0.070 C 
ATOM     15  C   UNL     1      34.824 -24.197 -14.299  0.00  0.00    +0.018 C 
ATOM     16  C   UNL     1      36.155 -23.718 -14.378  0.00  0.00    +0.018 C 
ENDBRANCH   6  12
BRANCH   5  17
ATOM     17  S   UNL     1      35.518 -18.331 -22.148  0.00  0.00    +0.085 S 
ATOM     18  O   UNL     1      37.019 -18.215 -22.146  0.00  0.00    -0.252 OA
BRANCH  17  19
ATOM     19  C   UNL     1      34.869 -16.805 -21.415  0.00  0.00    +0.140 C 
BRANCH  19  21
ATOM     20  N   UNL     1      34.287 -16.380 -23.715  0.00  0.00    -0.247 NA
ATOM     21  C   UNL     1      34.284 -15.895 -22.456  0.00  0.00    +0.072 C 
ATOM     22  C   UNL     1      33.789 -14.658 -22.094  0.00  0.00    +0.027 C 
ATOM     23  C   UNL     1      33.258 -13.856 -23.099  0.00  0.00    +0.137 C 
ATOM     24  C   UNL     1      33.819 -14.185 -20.680  0.00  0.00    +0.035 C 
ATOM     25  C   UNL     1      33.241 -14.316 -24.411  0.00  0.00    +0.057 C 
ATOM     26  C   UNL     1      33.763 -15.574 -24.665  0.00  0.00    +0.102 C 
BRANCH  23  27
ATOM     27  O   UNL     1      32.753 -12.624 -22.818  0.00  0.00    -0.472 OA
ATOM     28  C   UNL     1      33.257 -11.526 -23.576  0.00  0.00    +0.252 C 
ENDBRANCH  23  27
ENDBRANCH  19  21
ENDBRANCH  17  19
ENDBRANCH   5  17
TORSDOF 5
ENDMDL
MODEL 3
REMARK VINA RESULT:     -12.0      2.412      9.402
REMARK  Name = 214351
REMARK  5 active torsions:
REMARK  status: ('A' for Active; 'I' for Inactive)
REMARK    1  A    between atoms: C_5  and  S_17
REMARK    2  A    between atoms: C_6  and  N_12
REMARK    3  A    between atoms: S_17  and  C_19
REMARK    4  A    between atoms: C_19  and  C_21
REMARK    5  A    between atoms: C_23  and  O_27
REMARK                            x       y       z     vdW  Elec       q    Type
REMARK                         _______ _______ _______ _____ _____    ______ ____
ROOT
ATOM      1  N   UNL     1      35.176 -19.795 -20.439  0.00  0.00    -0.307 N 
ATOM      2  N   UNL     1      33.006 -20.245 -20.603  0.00  0.00    -0.307 N 
ATOM      3  C   UNL     1      34.886 -20.596 -19.364  0.00  0.00    +0.061 C 
ATOM      4  C   UNL     1      33.526 -20.863 -19.489  0.00  0.00    +0.060 C 
ATOM      5  C   UNL     1      34.021 -19.614 -21.148  0.00  0.00    +0.226 C 
ATOM      6  C   UNL     1      35.031 -21.900 -17.380  0.00  0.00    +0.057 C 
ATOM      7  C   UNL     1      35.674 -21.095 -18.327  0.00  0.00    +0.031 C 
ATOM      8  C   UNL     1      32.897 -21.675 -18.530  0.00  0.00    +0.017 C 
ATOM      9  C   UNL     1      33.668 -22.187 -17.478  0.00  0.00    +0.016 C 
ATOM     10  H   UNL     1      36.058 -19.418 -20.661  0.00  0.00    +0.149 HD
ATOM     11  H   UNL     1      32.074 -20.269 -20.921  0.00  0.00    +0.149 HD
ENDROOT
BRANCH   6  12
ATOM     12  N   UNL     1      35.763 -22.425 -16.328  0.00  0.00    -0.263 N 
ATOM     13  C   UNL     1      35.284 -23.295 -15.375  0.00  0.00    +0.070 C 
ATOM     14  C   UNL     1      37.088 -22.161 -16.064  0.00  0.00    +0.070 C 
ATOM     15  C   UNL     1      36.310 -23.586 -14.504  0.00  0.00    +0.018 C 
ATOM     16  C   UNL     1      37.451 -22.868 -14.939  0.00  0.00    +0.018 C 
ENDBRANCH   6  12
BRANCH   5  17
ATOM     17  S   UNL     1      33.901 -18.634 -22.639  0.00  0.00    +0.085 S 
ATOM     18  O   UNL     1      34.480 -19.464 -23.753  0.00  0.00    -0.252 OA
BRANCH  17  19
ATOM     19  C   UNL     1      35.143 -17.386 -22.209  0.00  0.00    +0.140 C 
BRANCH  19  21
ATOM     20  N   UNL     1      34.364 -15.676 -20.700  0.00  0.00    -0.247 NA
ATOM     21  C   UNL     1      34.521 -16.037 -21.990  0.00  0.00    +0.072 C 
ATOM     22  C   UNL     1      34.153 -15.261 -23.072  0.00  0.00    +0.027 C 
ATOM     23  C   UNL     1      33.581 -14.020 -22.811  0.00  0.00    +0.137 C 
ATOM     24  C   UNL     1      34.355 -15.725 -24.475  0.00  0.00    +0.035 C 
ATOM     25  C   UNL     1      33.400 -13.607 -21.496  0.00  0.00    +0.057 C 
ATOM     26  C   UNL     1      33.805 -14.464 -20.485  0.00  0.00    +0.102 C 
BRANCH  23  27
ATOM     27  O   UNL     1      33.193 -13.200 -23.826  0.00  0.00    -0.472 OA
ATOM     28  C   UNL     1      33.139 -11.802 -23.548  0.00  0.00    +0.252 C 
ENDBRANCH  23  27
ENDBRANCH  19  21
ENDBRANCH  17  19
ENDBRANCH   5  17
TORSDOF 5
ENDMDL
MODEL 4
REMARK VINA RESULT:     -11.8      3.733      6.545
REMARK  Name = 214351
REMARK  5 active torsions:
REMARK  status: ('A' for Active; 'I' for Inactive)
REMARK    1  A    between atoms: C_5  and  S_17
REMARK    2  A    between atoms: C_6  and  N_12
REMARK    3  A    between atoms: S_17  and  C_19
REMARK    4  A    between atoms: C_19  and  C_21
REMARK    5  A    between atoms: C_23  and  O_27
REMARK                            x       y       z     vdW  Elec       q    Type
REMARK                         _______ _______ _______ _____ _____    ______ ____
ROOT
ATOM      1  N   UNL     1      33.230 -20.930 -19.492  0.00  0.00    -0.307 N 
ATOM      2  N   UNL     1      35.322 -21.278 -18.823  0.00  0.00    -0.307 N 
ATOM      3  C   UNL     1      33.992 -20.025 -20.186  0.00  0.00    +0.061 C 
ATOM      4  C   UNL     1      35.293 -20.262 -19.751  0.00  0.00    +0.060 C 
ATOM      5  C   UNL     1      34.070 -21.655 -18.692  0.00  0.00    +0.226 C 
ATOM      6  C   UNL     1      34.721 -18.290 -21.640  0.00  0.00    +0.057 C 
ATOM      7  C   UNL     1      33.664 -19.050 -21.129  0.00  0.00    +0.031 C 
ATOM      8  C   UNL     1      36.342 -19.489 -20.277  0.00  0.00    +0.017 C 
ATOM      9  C   UNL     1      36.036 -18.504 -21.224  0.00  0.00    +0.016 C 
ATOM     10  H   UNL     1      32.254 -21.039 -19.558  0.00  0.00    +0.149 HD
ATOM     11  H   UNL     1      36.109 -21.642 -18.358  0.00  0.00    +0.149 HD
ENDROOT
BRANCH   6  12
ATOM     12  N   UNL     1      34.456 -17.307 -22.580  0.00  0.00    -0.263 N 
ATOM     13  C   UNL     1      34.608 -15.953 -22.387  0.00  0.00    +0.070 C 
ATOM     14  C   UNL     1      33.998 -17.527 -23.860  0.00  0.00    +0.070 C 
ATOM     15  C   UNL     1      34.245 -15.310 -23.549  0.00  0.00    +0.018 C 
ATOM     16  C   UNL     1      33.859 -16.305 -24.481  0.00  0.00    +0.018 C 
ENDBRANCH   6  12
BRANCH   5  17
ATOM     17  S   UNL     1      33.532 -22.960 -17.594  0.00  0.00    +0.085 S 
ATOM     18  O   UNL     1      32.045 -22.802 -17.424  0.00  0.00    -0.252 OA
BRANCH  17  19
ATOM     19  C   UNL     1      34.306 -22.336 -16.078  0.00  0.00    +0.140 C 
BRANCH  19  21
ATOM     20  N   UNL     1      34.805 -24.514 -15.175  0.00  0.00    -0.247 NA
ATOM     21  C   UNL     1      35.305 -23.311 -15.524  0.00  0.00    +0.072 C 
ATOM     22  C   UNL     1      36.632 -22.948 -15.402  0.00  0.00    +0.027 C 
ATOM     23  C   UNL     1      37.514 -23.889 -14.883  0.00  0.00    +0.137 C 
ATOM     24  C   UNL     1      37.115 -21.596 -15.808  0.00  0.00    +0.035 C 
ATOM     25  C   UNL     1      37.042 -25.144 -14.511  0.00  0.00    +0.057 C 
ATOM     26  C   UNL     1      35.692 -25.404 -14.675  0.00  0.00    +0.102 C 
BRANCH  23  27
ATOM     27  O   UNL     1      38.836 -23.603 -14.734  0.00  0.00    -0.472 OA
ATOM     28  C   UNL     1      39.740 -24.706 -14.700  0.00  0.00    +0.252 C 
ENDBRANCH  23  27
ENDBRANCH  19  21
ENDBRANCH  17  19
ENDBRANCH   5  17
TORSDOF 5
ENDMDL
MODEL 5
REMARK VINA RESULT:     -11.7      2.402      9.178
REMARK  Name = 214351
REMARK  5 active torsions:
REMARK  status: ('A' for Active; 'I' for Inactive)
REMARK    1  A    between atoms: C_5  and  S_17
REMARK    2  A    between atoms: C_6  and  N_12
REMARK    3  A    between atoms: S_17  and  C_19
REMARK    4  A    between atoms: C_19  and  C_21
REMARK    5  A    between atoms: C_23  and  O_27
REMARK                            x       y       z     vdW  Elec       q    Type
REMARK                         _______ _______ _______ _____ _____    ______ ____
ROOT
ATOM      1  N   UNL     1      32.912 -20.042 -20.622  0.00  0.00    -0.307 N 
ATOM      2  N   UNL     1      35.130 -19.941 -20.726  0.00  0.00    -0.307 N 
ATOM      3  C   UNL     1      33.362 -20.729 -19.523  0.00  0.00    +0.061 C 
ATOM      4  C   UNL     1      34.749 -20.651 -19.610  0.00  0.00    +0.060 C 
ATOM      5  C   UNL     1      34.006 -19.592 -21.308  0.00  0.00    +0.226 C 
ATOM      6  C   UNL     1      33.490 -21.995 -17.513  0.00  0.00    +0.057 C 
ATOM      7  C   UNL     1      32.694 -21.389 -18.492  0.00  0.00    +0.031 C 
ATOM      8  C   UNL     1      35.533 -21.264 -18.618  0.00  0.00    +0.017 C 
ATOM      9  C   UNL     1      34.883 -21.933 -17.573  0.00  0.00    +0.016 C 
ATOM     10  H   UNL     1      31.971 -19.900 -20.872  0.00  0.00    +0.149 HD
ATOM     11  H   UNL     1      36.047 -19.740 -21.022  0.00  0.00    +0.149 HD
ENDROOT
BRANCH   6  12
ATOM     12  N   UNL     1      32.882 -22.664 -16.464  0.00  0.00    -0.263 N 
ATOM     13  C   UNL     1      33.536 -23.282 -15.423  0.00  0.00    +0.070 C 
ATOM     14  C   UNL     1      31.525 -22.820 -16.293  0.00  0.00    +0.070 C 
ATOM     15  C   UNL     1      32.590 -23.832 -14.587  0.00  0.00    +0.018 C 
ATOM     16  C   UNL     1      31.317 -23.540 -15.137  0.00  0.00    +0.018 C 
ENDBRANCH   6  12
BRANCH   5  17
ATOM     17  S   UNL     1      33.920 -18.641 -22.821  0.00  0.00    +0.085 S 
ATOM     18  O   UNL     1      34.522 -19.493 -23.906  0.00  0.00    -0.252 OA
BRANCH  17  19
ATOM     19  C   UNL     1      35.154 -17.386 -22.388  0.00  0.00    +0.140 C 
BRANCH  19  21
ATOM     20  N   UNL     1      34.399 -15.747 -20.792  0.00  0.00    -0.247 NA
ATOM     21  C   UNL     1      34.517 -16.058 -22.099  0.00  0.00    +0.072 C 
ATOM     22  C   UNL     1      34.098 -15.250 -23.138  0.00  0.00    +0.027 C 
ATOM     23  C   UNL     1      33.514 -14.031 -22.813  0.00  0.00    +0.137 C 
ATOM     24  C   UNL     1      34.259 -15.660 -24.563  0.00  0.00    +0.035 C 
ATOM     25  C   UNL     1      33.372 -13.669 -21.477  0.00  0.00    +0.057 C 
ATOM     26  C   UNL     1      33.827 -14.553 -20.513  0.00  0.00    +0.102 C 
BRANCH  23  27
ATOM     27  O   UNL     1      33.077 -13.183 -23.783  0.00  0.00    -0.472 OA
ATOM     28  C   UNL     1      33.276 -11.787 -23.564  0.00  0.00    +0.252 C 
ENDBRANCH  23  27
ENDBRANCH  19  21
ENDBRANCH  17  19
ENDBRANCH   5  17
TORSDOF 5
ENDMDL
MODEL 6
REMARK VINA RESULT:     -11.2      1.144      1.757
REMARK  Name = 214351
REMARK  5 active torsions:
REMARK  status: ('A' for Active; 'I' for Inactive)
REMARK    1  A    between atoms: C_5  and  S_17
REMARK    2  A    between atoms: C_6  and  N_12
REMARK    3  A    between atoms: S_17  and  C_19
REMARK    4  A    between atoms: C_19  and  C_21
REMARK    5  A    between atoms: C_23  and  O_27
REMARK                            x       y       z     vdW  Elec       q    Type
REMARK                         _______ _______ _______ _____ _____    ______ ____
ROOT
ATOM      1  N   UNL     1      34.238 -15.873 -20.540  0.00  0.00    -0.307 N 
ATOM      2  N   UNL     1      34.897 -16.143 -22.645  0.00  0.00    -0.307 N 
ATOM      3  C   UNL     1      33.739 -14.793 -21.221  0.00  0.00    +0.061 C 
ATOM      4  C   UNL     1      34.164 -14.984 -22.532  0.00  0.00    +0.060 C 
ATOM      5  C   UNL     1      34.922 -16.650 -21.434  0.00  0.00    +0.226 C 
ATOM      6  C   UNL     1      32.639 -12.765 -21.800  0.00  0.00    +0.057 C 
ATOM      7  C   UNL     1      32.976 -13.698 -20.814  0.00  0.00    +0.031 C 
ATOM      8  C   UNL     1      33.815 -14.037 -23.510  0.00  0.00    +0.017 C 
ATOM      9  C   UNL     1      33.049 -12.930 -23.124  0.00  0.00    +0.016 C 
ATOM     10  H   UNL     1      34.125 -16.057 -19.579  0.00  0.00    +0.149 HD
ATOM     11  H   UNL     1      35.313 -16.512 -23.458  0.00  0.00    +0.149 HD
ENDROOT
BRANCH   6  12
ATOM     12  N   UNL     1      31.881 -11.658 -21.455  0.00  0.00    -0.263 N 
ATOM     13  C   UNL     1      31.642 -11.221 -20.172  0.00  0.00    +0.070 C 
ATOM     14  C   UNL     1      31.247 -10.815 -22.339  0.00  0.00    +0.070 C 
ATOM     15  C   UNL     1      30.851 -10.095 -20.242  0.00  0.00    +0.018 C 
ATOM     16  C   UNL     1      30.601  -9.838 -21.613  0.00  0.00    +0.018 C 
ENDBRANCH   6  12
BRANCH   5  17
ATOM     17  S   UNL     1      35.754 -18.175 -21.008  0.00  0.00    +0.085 S 
ATOM     18  O   UNL     1      36.936 -18.299 -21.931  0.00  0.00    -0.252 OA
BRANCH  17  19
ATOM     19  C   UNL     1      34.486 -19.320 -21.615  0.00  0.00    +0.140 C 
BRANCH  19  21
ATOM     20  N   UNL     1      32.516 -19.900 -20.355  0.00  0.00    -0.247 NA
ATOM     21  C   UNL     1      33.845 -20.083 -20.492  0.00  0.00    +0.072 C 
ATOM     22  C   UNL     1      34.611 -20.902 -19.686  0.00  0.00    +0.027 C 
ATOM     23  C   UNL     1      33.965 -21.585 -18.661  0.00  0.00    +0.137 C 
ATOM     24  C   UNL     1      36.079 -21.056 -19.895  0.00  0.00    +0.035 C 
ATOM     25  C   UNL     1      32.595 -21.427 -18.483  0.00  0.00    +0.057 C 
ATOM     26  C   UNL     1      31.922 -20.580 -19.349  0.00  0.00    +0.102 C 
BRANCH  23  27
ATOM     27  O   UNL     1      34.654 -22.410 -17.826  0.00  0.00    -0.472 OA
ATOM     28  C   UNL     1      34.181 -22.521 -16.485  0.00  0.00    +0.252 C 
ENDBRANCH  23  27
ENDBRANCH  19  21
ENDBRANCH  17  19
ENDBRANCH   5  17
TORSDOF 5
ENDMDL
MODEL 7
REMARK VINA RESULT:     -11.2      5.566      8.476
REMARK  Name = 214351
REMARK  5 active torsions:
REMARK  status: ('A' for Active; 'I' for Inactive)
REMARK    1  A    between atoms: C_5  and  S_17
REMARK    2  A    between atoms: C_6  and  N_12
REMARK    3  A    between atoms: S_17  and  C_19
REMARK    4  A    between atoms: C_19  and  C_21
REMARK    5  A    between atoms: C_23  and  O_27
REMARK                            x       y       z     vdW  Elec       q    Type
REMARK                         _______ _______ _______ _____ _____    ______ ____
ROOT
ATOM      1  N   UNL     1      34.753 -22.323 -17.072  0.00  0.00    -0.307 N 
ATOM      2  N   UNL     1      32.544 -22.557 -17.145  0.00  0.00    -0.307 N 
ATOM      3  C   UNL     1      34.341 -21.578 -18.148  0.00  0.00    +0.061 C 
ATOM      4  C   UNL     1      32.959 -21.740 -18.171  0.00  0.00    +0.060 C 
ATOM      5  C   UNL     1      33.644 -22.888 -16.507  0.00  0.00    +0.226 C 
ATOM      6  C   UNL     1      34.278 -20.166 -20.061  0.00  0.00    +0.057 C 
ATOM      7  C   UNL     1      35.038 -20.800 -19.072  0.00  0.00    +0.031 C 
ATOM      8  C   UNL     1      32.211 -21.095 -19.171  0.00  0.00    +0.017 C 
ATOM      9  C   UNL     1      32.890 -20.309 -20.111  0.00  0.00    +0.016 C 
ATOM     10  H   UNL     1      35.681 -22.431 -16.763  0.00  0.00    +0.149 HD
ATOM     11  H   UNL     1      31.623 -22.834 -16.935  0.00  0.00    +0.149 HD
ENDROOT
BRANCH   6  12
ATOM     12  N   UNL     1      34.915 -19.379 -21.005  0.00  0.00    -0.263 N 
ATOM     13  C   UNL     1      34.413 -19.051 -22.244  0.00  0.00    +0.070 C 
ATOM     14  C   UNL     1      36.154 -18.797 -20.858  0.00  0.00    +0.070 C 
ATOM     15  C   UNL     1      35.338 -18.257 -22.886  0.00  0.00    +0.018 C 
ATOM     16  C   UNL     1      36.439 -18.097 -22.009  0.00  0.00    +0.018 C 
ENDBRANCH   6  12
BRANCH   5  17
ATOM     17  S   UNL     1      33.681 -23.952 -15.070  0.00  0.00    +0.085 S 
ATOM     18  O   UNL     1      32.320 -23.872 -14.432  0.00  0.00    -0.252 OA
BRANCH  17  19
ATOM     19  C   UNL     1      34.800 -22.950 -14.055  0.00  0.00    +0.140 C 
BRANCH  19  21
ATOM     20  N   UNL     1      35.659 -24.569 -12.491  0.00  0.00    -0.247 NA
ATOM     21  C   UNL     1      35.949 -23.761 -13.531  0.00  0.00    +0.072 C 
ATOM     22  C   UNL     1      37.197 -23.649 -14.113  0.00  0.00    +0.027 C 
ATOM     23  C   UNL     1      38.226 -24.424 -13.587  0.00  0.00    +0.137 C 
ATOM     24  C   UNL     1      37.447 -22.733 -15.262  0.00  0.00    +0.035 C 
ATOM     25  C   UNL     1      37.971 -25.272 -12.514  0.00  0.00    +0.057 C 
ATOM     26  C   UNL     1      36.683 -25.308 -12.007  0.00  0.00    +0.102 C 
BRANCH  23  27
ATOM     27  O   UNL     1      39.482 -24.367 -14.108  0.00  0.00    -0.472 OA
ATOM     28  C   UNL     1      40.144 -25.608 -14.346  0.00  0.00    +0.252 C 
ENDBRANCH  23  27
ENDBRANCH  19  21
ENDBRANCH  17  19
ENDBRANCH   5  17
TORSDOF 5
ENDMDL
MODEL 8
REMARK VINA RESULT:     -10.9      3.307     10.125
REMARK  Name = 214351
REMARK  5 active torsions:
REMARK  status: ('A' for Active; 'I' for Inactive)
REMARK    1  A    between atoms: C_5  and  S_17
REMARK    2  A    between atoms: C_6  and  N_12
REMARK    3  A    between atoms: S_17  and  C_19
REMARK    4  A    between atoms: C_19  and  C_21
REMARK    5  A    between atoms: C_23  and  O_27
REMARK                            x       y       z     vdW  Elec       q    Type
REMARK                         _______ _______ _______ _____ _____    ______ ____
ROOT
ATOM      1  N   UNL     1      36.377 -20.870 -17.978  0.00  0.00    -0.307 N 
ATOM      2  N   UNL     1      34.403 -21.328 -18.892  0.00  0.00    -0.307 N 
ATOM      3  C   UNL     1      35.715 -21.637 -17.054  0.00  0.00    +0.061 C 
ATOM      4  C   UNL     1      34.486 -21.910 -17.648  0.00  0.00    +0.060 C 
ATOM      5  C   UNL     1      35.552 -20.713 -19.057  0.00  0.00    +0.226 C 
ATOM      6  C   UNL     1      35.129 -22.878 -15.111  0.00  0.00    +0.057 C 
ATOM      7  C   UNL     1      36.075 -22.102 -15.789  0.00  0.00    +0.031 C 
ATOM      8  C   UNL     1      33.548 -22.693 -16.953  0.00  0.00    +0.017 C 
ATOM      9  C   UNL     1      33.888 -23.170 -15.681  0.00  0.00    +0.016 C 
ATOM     10  H   UNL     1      37.283 -20.498 -17.881  0.00  0.00    +0.149 HD
ATOM     11  H   UNL     1      33.647 -21.364 -19.521  0.00  0.00    +0.149 HD
ENDROOT
BRANCH   6  12
ATOM     12  N   UNL     1      35.432 -23.368 -13.851  0.00  0.00    -0.263 N 
ATOM     13  C   UNL     1      36.699 -23.590 -13.362  0.00  0.00    +0.070 C 
ATOM     14  C   UNL     1      34.514 -23.712 -12.884  0.00  0.00    +0.070 C 
ATOM     15  C   UNL     1      36.585 -24.076 -12.078  0.00  0.00    +0.018 C 
ATOM     16  C   UNL     1      35.203 -24.154 -11.776  0.00  0.00    +0.018 C 
ENDBRANCH   6  12
BRANCH   5  17
ATOM     17  S   UNL     1      35.982 -19.781 -20.521  0.00  0.00    +0.085 S 
ATOM     18  O   UNL     1      36.724 -18.556 -20.057  0.00  0.00    -0.252 OA
BRANCH  17  19
ATOM     19  C   UNL     1      34.309 -19.247 -20.969  0.00  0.00    +0.140 C 
BRANCH  19  21
ATOM     20  N   UNL     1      34.449 -16.858 -20.689  0.00  0.00    -0.247 NA
ATOM     21  C   UNL     1      34.308 -17.870 -21.569  0.00  0.00    +0.072 C 
ATOM     22  C   UNL     1      34.168 -17.710 -22.933  0.00  0.00    +0.027 C 
ATOM     23  C   UNL     1      34.174 -16.413 -23.435  0.00  0.00    +0.137 C 
ATOM     24  C   UNL     1      34.015 -18.878 -23.849  0.00  0.00    +0.035 C 
ATOM     25  C   UNL     1      34.318 -15.338 -22.564  0.00  0.00    +0.057 C 
ATOM     26  C   UNL     1      34.451 -15.611 -21.213  0.00  0.00    +0.102 C 
BRANCH  23  27
ATOM     27  O   UNL     1      34.041 -16.177 -24.769  0.00  0.00    -0.472 OA
ATOM     28  C   UNL     1      33.336 -14.998 -25.153  0.00  0.00    +0.252 C 
ENDBRANCH  23  27
ENDBRANCH  19  21
ENDBRANCH  17  19
ENDBRANCH   5  17
TORSDOF 5
ENDMDL
MODEL 9
REMARK VINA RESULT:     -10.8      4.093      6.905
REMARK  Name = 214351
REMARK  5 active torsions:
REMARK  status: ('A' for Active; 'I' for Inactive)
REMARK    1  A    between atoms: C_5  and  S_17
REMARK    2  A    between atoms: C_6  and  N_12
REMARK    3  A    between atoms: S_17  and  C_19
REMARK    4  A    between atoms: C_19  and  C_21
REMARK    5  A    between atoms: C_23  and  O_27
REMARK                            x       y       z     vdW  Elec       q    Type
REMARK                         _______ _______ _______ _____ _____    ______ ____
ROOT
ATOM      1  N   UNL     1      32.879 -21.251 -19.084  0.00  0.00    -0.307 N 
ATOM      2  N   UNL     1      34.931 -21.703 -18.362  0.00  0.00    -0.307 N 
ATOM      3  C   UNL     1      33.710 -20.438 -19.811  0.00  0.00    +0.061 C 
ATOM      4  C   UNL     1      34.985 -20.739 -19.342  0.00  0.00    +0.060 C 
ATOM      5  C   UNL     1      33.655 -21.986 -18.233  0.00  0.00    +0.226 C 
ATOM      6  C   UNL     1      34.577 -18.836 -21.342  0.00  0.00    +0.057 C 
ATOM      7  C   UNL     1      33.463 -19.495 -20.809  0.00  0.00    +0.031 C 
ATOM      8  C   UNL     1      36.093 -20.069 -19.889  0.00  0.00    +0.017 C 
ATOM      9  C   UNL     1      35.869 -19.117 -20.892  0.00  0.00    +0.016 C 
ATOM     10  H   UNL     1      31.898 -21.296 -19.162  0.00  0.00    +0.149 HD
ATOM     11  H   UNL     1      35.686 -22.095 -17.865  0.00  0.00    +0.149 HD
ENDROOT
BRANCH   6  12
ATOM     12  N   UNL     1      34.393 -17.890 -22.336  0.00  0.00    -0.263 N 
ATOM     13  C   UNL     1      34.727 -16.557 -22.244  0.00  0.00    +0.070 C 
ATOM     14  C   UNL     1      33.848 -18.128 -23.577  0.00  0.00    +0.070 C 
ATOM     15  C   UNL     1      34.392 -15.948 -23.433  0.00  0.00    +0.018 C 
ATOM     16  C   UNL     1      33.835 -16.941 -24.276  0.00  0.00    +0.018 C 
ENDBRANCH   6  12
BRANCH   5  17
ATOM     17  S   UNL     1      33.013 -23.192 -17.078  0.00  0.00    +0.085 S 
ATOM     18  O   UNL     1      31.512 -23.104 -17.144  0.00  0.00    -0.252 OA
BRANCH  17  19
ATOM     19  C   UNL     1      33.525 -22.360 -15.550  0.00  0.00    +0.140 C 
BRANCH  19  21
ATOM     20  N   UNL     1      35.845 -23.009 -15.599  0.00  0.00    -0.247 NA
ATOM     21  C   UNL     1      34.689 -23.054 -14.904  0.00  0.00    +0.072 C 
ATOM     22  C   UNL     1      34.532 -23.678 -13.682  0.00  0.00    +0.027 C 
ATOM     23  C   UNL     1      35.644 -24.305 -13.130  0.00  0.00    +0.137 C 
ATOM     24  C   UNL     1      33.222 -23.688 -12.970  0.00  0.00    +0.035 C 
ATOM     25  C   UNL     1      36.857 -24.284 -13.811  0.00  0.00    +0.057 C 
ATOM     26  C   UNL     1      36.904 -23.628 -15.031  0.00  0.00    +0.102 C 
BRANCH  23  27
ATOM     27  O   UNL     1      35.565 -24.940 -11.929  0.00  0.00    -0.472 OA
ATOM     28  C   UNL     1      35.988 -24.210 -10.779  0.00  0.00    +0.252 C 
ENDBRANCH  23  27
ENDBRANCH  19  21
ENDBRANCH  17  19
ENDBRANCH   5  17
TORSDOF 5
ENDMDL
