MODEL 1
REMARK VINA RESULT:     -12.2      0.000      0.000
REMARK  Name = 18376177
REMARK  11 active torsions:
REMARK  status: ('A' for Active; 'I' for Inactive)
REMARK    1  A    between atoms: N_1  and  S_2
REMARK    2  A    between atoms: N_1  and  C_11
REMARK    3  A    between atoms: N_1  and  C_23
REMARK    4  A    between atoms: S_2  and  C_6
REMARK    5  A    between atoms: C_11  and  C_12
REMARK    6  A    between atoms: C_15  and  N_18
REMARK    7  A    between atoms: C_23  and  C_24
REMARK    8  A    between atoms: C_27  and  O_30
REMARK    9  A    between atoms: O_30  and  C_31
REMARK   10  A    between atoms: C_31  and  C_33
REMARK   11  A    between atoms: C_33  and  O_34
REMARK                            x       y       z     vdW  Elec       q    Type
REMARK                         _______ _______ _______ _____ _____    ______ ____
ROOT
ATOM      1  N   UNL     1      32.859 -22.761 -15.207  0.00  0.00    -0.147 NA
ENDROOT
BRANCH   1   2
ATOM      2  S   UNL     1      31.685 -23.519 -14.198  0.00  0.00    +0.065 S 
ATOM      3  O   UNL     1      31.500 -22.730 -12.994  0.00  0.00    -0.153 OA
ATOM      4  O   UNL     1      31.987 -24.934 -14.085  0.00  0.00    -0.153 OA
BRANCH   2   6
ATOM      5  N   UNL     1      28.853 -22.078 -16.687  0.00  0.00    -0.241 NA
ATOM      6  C   UNL     1      30.202 -23.373 -15.155  0.00  0.00    +0.141 C 
ATOM      7  C   UNL     1      29.242 -24.379 -15.147  0.00  0.00    +0.023 C 
ATOM      8  C   UNL     1      29.961 -22.253 -15.935  0.00  0.00    +0.119 C 
ATOM      9  C   UNL     1      28.088 -24.236 -15.908  0.00  0.00    +0.022 C 
ATOM     10  C   UNL     1      27.942 -23.077 -16.655  0.00  0.00    +0.099 C 
ENDBRANCH   2   6
ENDBRANCH   1   2
BRANCH   1  11
ATOM     11  C   UNL     1      33.198 -23.419 -16.494  0.00  0.00    +0.122 C 
BRANCH  11  12
ATOM     12  C   UNL     1      33.629 -22.433 -17.543  0.00  0.00    -0.004 C 
ATOM     13  C   UNL     1      32.679 -21.844 -18.377  0.00  0.00    -0.002 C 
ATOM     14  C   UNL     1      34.978 -22.107 -17.682  0.00  0.00    -0.002 C 
ATOM     15  C   UNL     1      34.428 -20.603 -19.492  0.00  0.00    +0.074 C 
ATOM     16  C   UNL     1      33.079 -20.929 -19.352  0.00  0.00    +0.016 C 
ATOM     17  C   UNL     1      35.378 -21.192 -18.656  0.00  0.00    +0.016 C 
BRANCH  15  18
ATOM     18  N   UNL     1      34.824 -19.696 -20.457  0.00  0.00    -0.189 N 
ATOM     19  N   UNL     1      36.010 -19.071 -20.358  0.00  0.00    -0.172 NA
ATOM     20  C   UNL     1      34.107 -19.346 -21.563  0.00  0.00    +0.091 C 
ATOM     21  C   UNL     1      34.876 -18.427 -22.233  0.00  0.00    +0.040 C 
ATOM     22  C   UNL     1      36.035 -18.296 -21.447  0.00  0.00    +0.120 C 
ENDBRANCH  15  18
ENDBRANCH  11  12
ENDBRANCH   1  11
BRANCH   1  23
ATOM     23  C   UNL     1      34.056 -22.169 -14.554  0.00  0.00    +0.123 C 
BRANCH  23  24
ATOM     24  C   UNL     1      34.868 -23.197 -13.817  0.00  0.00    -0.001 C 
ATOM     25  C   UNL     1      35.843 -23.932 -14.491  0.00  0.00    +0.034 C 
ATOM     26  C   UNL     1      34.646 -23.416 -12.456  0.00  0.00    -0.003 C 
ATOM     27  C   UNL     1      36.596 -24.885 -13.807  0.00  0.00    +0.139 C 
ATOM     28  C   UNL     1      35.399 -24.369 -11.772  0.00  0.00    +0.003 C 
ATOM     29  C   UNL     1      36.375 -25.104 -12.447  0.00  0.00    +0.037 C 
BRANCH  27  30
ATOM     30  O   UNL     1      37.545 -25.604 -14.465  0.00  0.00    -0.464 OA
BRANCH  30  31
ATOM     31  C   UNL     1      38.815 -25.740 -13.829  0.00  0.00    +0.314 C 
BRANCH  31  33
ATOM     32  O   UNL     1      40.532 -24.072 -14.240  0.00  0.00    -0.246 OA
ATOM     33  C   UNL     1      39.865 -25.020 -14.627  0.00  0.00    +0.359 C 
BRANCH  33  34
ATOM     34  O   UNL     1      39.977 -25.573 -15.860  0.00  0.00    -0.478 OA
ATOM     35  H   UNL     1      40.504 -25.158 -16.515  0.00  0.00    +0.295 HD
ENDBRANCH  33  34
ENDBRANCH  31  33
ENDBRANCH  30  31
ENDBRANCH  27  30
ENDBRANCH  23  24
ENDBRANCH   1  23
TORSDOF 11
ENDMDL
MODEL 2
REMARK VINA RESULT:     -11.1      1.710      2.650
REMARK  Name = 18376177
REMARK  11 active torsions:
REMARK  status: ('A' for Active; 'I' for Inactive)
REMARK    1  A    between atoms: N_1  and  S_2
REMARK    2  A    between atoms: N_1  and  C_11
REMARK    3  A    between atoms: N_1  and  C_23
REMARK    4  A    between atoms: S_2  and  C_6
REMARK    5  A    between atoms: C_11  and  C_12
REMARK    6  A    between atoms: C_15  and  N_18
REMARK    7  A    between atoms: C_23  and  C_24
REMARK    8  A    between atoms: C_27  and  O_30
REMARK    9  A    between atoms: O_30  and  C_31
REMARK   10  A    between atoms: C_31  and  C_33
REMARK   11  A    between atoms: C_33  and  O_34
REMARK                            x       y       z     vdW  Elec       q    Type
REMARK                         _______ _______ _______ _____ _____    ______ ____
ROOT
ATOM      1  N   UNL     1      33.310 -22.420 -15.791  0.00  0.00    -0.147 NA
ENDROOT
BRANCH   1   2
ATOM      2  S   UNL     1      32.418 -23.379 -14.670  0.00  0.00    +0.065 S 
ATOM      3  O   UNL     1      32.385 -22.712 -13.382  0.00  0.00    -0.153 OA
ATOM      4  O   UNL     1      32.866 -24.757 -14.749  0.00  0.00    -0.153 OA
BRANCH   2   6
ATOM      5  N   UNL     1      29.155 -22.207 -16.738  0.00  0.00    -0.241 NA
ATOM      6  C   UNL     1      30.776 -23.322 -15.333  0.00  0.00    +0.141 C 
ATOM      7  C   UNL     1      29.836 -24.291 -15.004  0.00  0.00    +0.023 C 
ATOM      8  C   UNL     1      30.389 -22.310 -16.197  0.00  0.00    +0.119 C 
ATOM      9  C   UNL     1      28.556 -24.220 -15.540  0.00  0.00    +0.022 C 
ATOM     10  C   UNL     1      28.268 -23.168 -16.395  0.00  0.00    +0.099 C 
ENDBRANCH   2   6
ENDBRANCH   1   2
BRANCH   1  11
ATOM     11  C   UNL     1      33.648 -23.023 -17.105  0.00  0.00    +0.122 C 
BRANCH  11  12
ATOM     12  C   UNL     1      33.882 -21.984 -18.166  0.00  0.00    -0.004 C 
ATOM     13  C   UNL     1      32.799 -21.418 -18.838  0.00  0.00    -0.002 C 
ATOM     14  C   UNL     1      35.182 -21.586 -18.478  0.00  0.00    -0.002 C 
ATOM     15  C   UNL     1      34.316 -20.058 -20.137  0.00  0.00    +0.074 C 
ATOM     16  C   UNL     1      33.016 -20.455 -19.824  0.00  0.00    +0.016 C 
ATOM     17  C   UNL     1      35.399 -20.623 -19.463  0.00  0.00    +0.016 C 
BRANCH  15  18
ATOM     18  N   UNL     1      34.530 -19.101 -21.112  0.00  0.00    -0.189 N 
ATOM     19  N   UNL     1      35.408 -18.104 -20.906  0.00  0.00    -0.172 NA
ATOM     20  C   UNL     1      33.919 -19.056 -22.331  0.00  0.00    +0.091 C 
ATOM     21  C   UNL     1      34.431 -17.952 -22.966  0.00  0.00    +0.040 C 
ATOM     22  C   UNL     1      35.342 -17.404 -22.043  0.00  0.00    +0.120 C 
ENDBRANCH  15  18
ENDBRANCH  11  12
ENDBRANCH   1  11
BRANCH   1  23
ATOM     23  C   UNL     1      34.419 -21.586 -15.261  0.00  0.00    +0.123 C 
BRANCH  23  24
ATOM     24  C   UNL     1      35.616 -22.410 -14.876  0.00  0.00    -0.001 C 
ATOM     25  C   UNL     1      35.635 -23.086 -13.657  0.00  0.00    +0.034 C 
ATOM     26  C   UNL     1      36.709 -22.498 -15.740  0.00  0.00    -0.003 C 
ATOM     27  C   UNL     1      36.746 -23.850 -13.300  0.00  0.00    +0.139 C 
ATOM     28  C   UNL     1      37.820 -23.261 -15.383  0.00  0.00    +0.003 C 
ATOM     29  C   UNL     1      37.838 -23.938 -14.163  0.00  0.00    +0.037 C 
BRANCH  27  30
ATOM     30  O   UNL     1      36.766 -24.508 -12.109  0.00  0.00    -0.464 OA
BRANCH  30  31
ATOM     31  C   UNL     1      35.525 -24.633 -11.415  0.00  0.00    +0.314 C 
BRANCH  31  33
ATOM     32  O   UNL     1      35.008 -24.206  -9.080  0.00  0.00    -0.246 OA
ATOM     33  C   UNL     1      35.599 -23.900 -10.105  0.00  0.00    +0.359 C 
BRANCH  33  34
ATOM     34  O   UNL     1      36.427 -22.831 -10.214  0.00  0.00    -0.478 OA
ATOM     35  H   UNL     1      37.252 -22.918 -10.649  0.00  0.00    +0.295 HD
ENDBRANCH  33  34
ENDBRANCH  31  33
ENDBRANCH  30  31
ENDBRANCH  27  30
ENDBRANCH  23  24
ENDBRANCH   1  23
TORSDOF 11
ENDMDL
MODEL 3
REMARK VINA RESULT:     -10.8      1.932      2.435
REMARK  Name = 18376177
REMARK  11 active torsions:
REMARK  status: ('A' for Active; 'I' for Inactive)
REMARK    1  A    between atoms: N_1  and  S_2
REMARK    2  A    between atoms: N_1  and  C_11
REMARK    3  A    between atoms: N_1  and  C_23
REMARK    4  A    between atoms: S_2  and  C_6
REMARK    5  A    between atoms: C_11  and  C_12
REMARK    6  A    between atoms: C_15  and  N_18
REMARK    7  A    between atoms: C_23  and  C_24
REMARK    8  A    between atoms: C_27  and  O_30
REMARK    9  A    between atoms: O_30  and  C_31
REMARK   10  A    between atoms: C_31  and  C_33
REMARK   11  A    between atoms: C_33  and  O_34
REMARK                            x       y       z     vdW  Elec       q    Type
REMARK                         _______ _______ _______ _____ _____    ______ ____
ROOT
ATOM      1  N   UNL     1      32.794 -22.523 -16.379  0.00  0.00    -0.147 NA
ENDROOT
BRANCH   1   2
ATOM      2  S   UNL     1      31.110 -22.869 -16.501  0.00  0.00    +0.065 S 
ATOM      3  O   UNL     1      30.916 -24.043 -17.332  0.00  0.00    -0.153 OA
ATOM      4  O   UNL     1      30.387 -21.649 -16.809  0.00  0.00    -0.153 OA
BRANCH   2   6
ATOM      5  N   UNL     1      30.659 -22.762 -12.491  0.00  0.00    -0.241 NA
ATOM      6  C   UNL     1      30.688 -23.324 -14.842  0.00  0.00    +0.141 C 
ATOM      7  C   UNL     1      30.079 -24.543 -14.566  0.00  0.00    +0.023 C 
ATOM      8  C   UNL     1      30.954 -22.477 -13.778  0.00  0.00    +0.119 C 
ATOM      9  C   UNL     1      29.759 -24.873 -13.254  0.00  0.00    +0.022 C 
ATOM     10  C   UNL     1      30.067 -23.955 -12.261  0.00  0.00    +0.099 C 
ENDBRANCH   2   6
ENDBRANCH   1   2
BRANCH   1  11
ATOM     11  C   UNL     1      33.671 -22.940 -17.503  0.00  0.00    +0.122 C 
BRANCH  11  12
ATOM     12  C   UNL     1      33.865 -21.842 -18.511  0.00  0.00    -0.004 C 
ATOM     13  C   UNL     1      32.757 -21.212 -19.076  0.00  0.00    -0.002 C 
ATOM     14  C   UNL     1      35.152 -21.454 -18.882  0.00  0.00    -0.002 C 
ATOM     15  C   UNL     1      34.223 -19.807 -20.386  0.00  0.00    +0.074 C 
ATOM     16  C   UNL     1      32.936 -20.195 -20.014  0.00  0.00    +0.016 C 
ATOM     17  C   UNL     1      35.331 -20.437 -19.819  0.00  0.00    +0.016 C 
BRANCH  15  18
ATOM     18  N   UNL     1      34.400 -18.797 -21.313  0.00  0.00    -0.189 N 
ATOM     19  N   UNL     1      34.848 -17.590 -20.928  0.00  0.00    -0.172 NA
ATOM     20  C   UNL     1      34.162 -18.895 -22.652  0.00  0.00    +0.091 C 
ATOM     21  C   UNL     1      34.473 -17.666 -23.180  0.00  0.00    +0.040 C 
ATOM     22  C   UNL     1      34.890 -16.903 -22.074  0.00  0.00    +0.120 C 
ENDBRANCH  15  18
ENDBRANCH  11  12
ENDBRANCH   1  11
BRANCH   1  23
ATOM     23  C   UNL     1      33.449 -22.722 -15.060  0.00  0.00    +0.123 C 
BRANCH  23  24
ATOM     24  C   UNL     1      34.947 -22.770 -15.171  0.00  0.00    -0.001 C 
ATOM     25  C   UNL     1      35.631 -23.951 -14.881  0.00  0.00    +0.034 C 
ATOM     26  C   UNL     1      35.655 -21.633 -15.563  0.00  0.00    -0.003 C 
ATOM     27  C   UNL     1      37.021 -23.995 -14.983  0.00  0.00    +0.139 C 
ATOM     28  C   UNL     1      37.045 -21.678 -15.665  0.00  0.00    +0.003 C 
ATOM     29  C   UNL     1      37.728 -22.859 -15.376  0.00  0.00    +0.037 C 
BRANCH  27  30
ATOM     30  O   UNL     1      37.688 -25.146 -14.698  0.00  0.00    -0.464 OA
BRANCH  30  31
ATOM     31  C   UNL     1      38.771 -25.058 -13.772  0.00  0.00    +0.314 C 
BRANCH  31  33
ATOM     32  O   UNL     1      40.821 -26.360 -13.706  0.00  0.00    -0.246 OA
ATOM     33  C   UNL     1      39.985 -25.736 -14.342  0.00  0.00    +0.359 C 
BRANCH  33  34
ATOM     34  O   UNL     1      40.031 -25.559 -15.686  0.00  0.00    -0.478 OA
ATOM     35  H   UNL     1      39.591 -26.161 -16.254  0.00  0.00    +0.295 HD
ENDBRANCH  33  34
ENDBRANCH  31  33
ENDBRANCH  30  31
ENDBRANCH  27  30
ENDBRANCH  23  24
ENDBRANCH   1  23
TORSDOF 11
ENDMDL
MODEL 4
REMARK VINA RESULT:     -10.8      1.160      1.661
REMARK  Name = 18376177
REMARK  11 active torsions:
REMARK  status: ('A' for Active; 'I' for Inactive)
REMARK    1  A    between atoms: N_1  and  S_2
REMARK    2  A    between atoms: N_1  and  C_11
REMARK    3  A    between atoms: N_1  and  C_23
REMARK    4  A    between atoms: S_2  and  C_6
REMARK    5  A    between atoms: C_11  and  C_12
REMARK    6  A    between atoms: C_15  and  N_18
REMARK    7  A    between atoms: C_23  and  C_24
REMARK    8  A    between atoms: C_27  and  O_30
REMARK    9  A    between atoms: O_30  and  C_31
REMARK   10  A    between atoms: C_31  and  C_33
REMARK   11  A    between atoms: C_33  and  O_34
REMARK                            x       y       z     vdW  Elec       q    Type
REMARK                         _______ _______ _______ _____ _____    ______ ____
ROOT
ATOM      1  N   UNL     1      32.778 -23.042 -16.061  0.00  0.00    -0.147 NA
ENDROOT
BRANCH   1   2
ATOM      2  S   UNL     1      31.799 -22.994 -14.643  0.00  0.00    +0.065 S 
ATOM      3  O   UNL     1      31.893 -21.679 -14.034  0.00  0.00    -0.153 OA
ATOM      4  O   UNL     1      32.057 -24.173 -13.837  0.00  0.00    -0.153 OA
BRANCH   2   6
ATOM      5  N   UNL     1      28.297 -24.584 -15.868  0.00  0.00    -0.241 NA
ATOM      6  C   UNL     1      30.161 -23.154 -15.298  0.00  0.00    +0.141 C 
ATOM      7  C   UNL     1      29.457 -22.043 -15.747  0.00  0.00    +0.023 C 
ATOM      8  C   UNL     1      29.542 -24.391 -15.380  0.00  0.00    +0.119 C 
ATOM      9  C   UNL     1      28.174 -22.200 -16.257  0.00  0.00    +0.022 C 
ATOM     10  C   UNL     1      27.642 -23.480 -16.295  0.00  0.00    +0.099 C 
ENDBRANCH   2   6
ENDBRANCH   1   2
BRANCH   1  11
ATOM     11  C   UNL     1      32.109 -22.857 -17.373  0.00  0.00    +0.122 C 
BRANCH  11  12
ATOM     12  C   UNL     1      32.869 -21.923 -18.273  0.00  0.00    -0.004 C 
ATOM     13  C   UNL     1      32.179 -21.062 -19.125  0.00  0.00    -0.002 C 
ATOM     14  C   UNL     1      34.264 -21.919 -18.256  0.00  0.00    -0.002 C 
ATOM     15  C   UNL     1      34.279 -20.192 -19.946  0.00  0.00    +0.074 C 
ATOM     16  C   UNL     1      32.885 -20.196 -19.962  0.00  0.00    +0.016 C 
ATOM     17  C   UNL     1      34.969 -21.054 -19.093  0.00  0.00    +0.016 C 
BRANCH  15  18
ATOM     18  N   UNL     1      34.978 -19.333 -20.774  0.00  0.00    -0.189 N 
ATOM     19  N   UNL     1      34.360 -18.728 -21.804  0.00  0.00    -0.172 NA
ATOM     20  C   UNL     1      36.297 -19.009 -20.655  0.00  0.00    +0.091 C 
ATOM     21  C   UNL     1      36.562 -18.132 -21.678  0.00  0.00    +0.040 C 
ATOM     22  C   UNL     1      35.334 -17.996 -22.352  0.00  0.00    +0.120 C 
ENDBRANCH  15  18
ENDBRANCH  11  12
ENDBRANCH   1  11
BRANCH   1  23
ATOM     23  C   UNL     1      33.854 -24.065 -16.125  0.00  0.00    +0.123 C 
BRANCH  23  24
ATOM     24  C   UNL     1      34.985 -23.761 -15.185  0.00  0.00    -0.001 C 
ATOM     25  C   UNL     1      35.815 -24.789 -14.736  0.00  0.00    +0.034 C 
ATOM     26  C   UNL     1      35.207 -22.451 -14.760  0.00  0.00    -0.003 C 
ATOM     27  C   UNL     1      36.865 -24.506 -13.863  0.00  0.00    +0.139 C 
ATOM     28  C   UNL     1      36.257 -22.168 -13.887  0.00  0.00    +0.003 C 
ATOM     29  C   UNL     1      37.087 -23.197 -13.438  0.00  0.00    +0.037 C 
BRANCH  27  30
ATOM     30  O   UNL     1      37.673 -25.509 -13.423  0.00  0.00    -0.464 OA
BRANCH  30  31
ATOM     31  C   UNL     1      39.018 -25.164 -13.093  0.00  0.00    +0.314 C 
BRANCH  31  33
ATOM     32  O   UNL     1      39.814 -25.840 -15.286  0.00  0.00    -0.246 OA
ATOM     33  C   UNL     1      39.838 -25.058 -14.348  0.00  0.00    +0.359 C 
BRANCH  33  34
ATOM     34  O   UNL     1      40.626 -23.955 -14.300  0.00  0.00    -0.478 OA
ATOM     35  H   UNL     1      40.927 -23.558 -15.093  0.00  0.00    +0.295 HD
ENDBRANCH  33  34
ENDBRANCH  31  33
ENDBRANCH  30  31
ENDBRANCH  27  30
ENDBRANCH  23  24
ENDBRANCH   1  23
TORSDOF 11
ENDMDL
MODEL 5
REMARK VINA RESULT:     -10.5      3.358      7.684
REMARK  Name = 18376177
REMARK  11 active torsions:
REMARK  status: ('A' for Active; 'I' for Inactive)
REMARK    1  A    between atoms: N_1  and  S_2
REMARK    2  A    between atoms: N_1  and  C_11
REMARK    3  A    between atoms: N_1  and  C_23
REMARK    4  A    between atoms: S_2  and  C_6
REMARK    5  A    between atoms: C_11  and  C_12
REMARK    6  A    between atoms: C_15  and  N_18
REMARK    7  A    between atoms: C_23  and  C_24
REMARK    8  A    between atoms: C_27  and  O_30
REMARK    9  A    between atoms: O_30  and  C_31
REMARK   10  A    between atoms: C_31  and  C_33
REMARK   11  A    between atoms: C_33  and  O_34
REMARK                            x       y       z     vdW  Elec       q    Type
REMARK                         _______ _______ _______ _____ _____    ______ ____
ROOT
ATOM      1  N   UNL     1      35.146 -23.602 -12.947  0.00  0.00    -0.147 NA
ENDROOT
BRANCH   1   2
ATOM      2  S   UNL     1      36.613 -23.481 -12.050  0.00  0.00    +0.065 S 
ATOM      3  O   UNL     1      36.441 -24.112 -10.755  0.00  0.00    -0.153 OA
ATOM      4  O   UNL     1      37.112 -22.120 -12.121  0.00  0.00    -0.153 OA
BRANCH   2   6
ATOM      5  N   UNL     1      38.165 -26.606 -14.081  0.00  0.00    -0.241 NA
ATOM      6  C   UNL     1      37.722 -24.496 -12.986  0.00  0.00    +0.141 C 
ATOM      7  C   UNL     1      38.977 -24.030 -13.361  0.00  0.00    +0.023 C 
ATOM      8  C   UNL     1      37.367 -25.781 -13.368  0.00  0.00    +0.119 C 
ATOM      9  C   UNL     1      39.826 -24.849 -14.096  0.00  0.00    +0.022 C 
ATOM     10  C   UNL     1      39.377 -26.118 -14.428  0.00  0.00    +0.099 C 
ENDBRANCH   2   6
ENDBRANCH   1   2
BRANCH   1  11
ATOM     11  C   UNL     1      33.912 -23.983 -12.213  0.00  0.00    +0.122 C 
BRANCH  11  12
ATOM     12  C   UNL     1      32.669 -23.724 -13.016  0.00  0.00    -0.004 C 
ATOM     13  C   UNL     1      31.813 -24.778 -13.334  0.00  0.00    -0.002 C 
ATOM     14  C   UNL     1      32.370 -22.430 -13.443  0.00  0.00    -0.002 C 
ATOM     15  C   UNL     1      30.361 -23.244 -14.509  0.00  0.00    +0.074 C 
ATOM     16  C   UNL     1      30.659 -24.538 -14.081  0.00  0.00    +0.016 C 
ATOM     17  C   UNL     1      31.217 -22.190 -14.189  0.00  0.00    +0.016 C 
BRANCH  15  18
ATOM     18  N   UNL     1      29.216 -23.007 -15.247  0.00  0.00    -0.189 N 
ATOM     19  N   UNL     1      28.552 -21.845 -15.118  0.00  0.00    -0.172 NA
ATOM     20  C   UNL     1      28.655 -23.866 -16.145  0.00  0.00    +0.091 C 
ATOM     21  C   UNL     1      27.546 -23.223 -16.637  0.00  0.00    +0.040 C 
ATOM     22  C   UNL     1      27.532 -21.984 -15.971  0.00  0.00    +0.120 C 
ENDBRANCH  15  18
ENDBRANCH  11  12
ENDBRANCH   1  11
BRANCH   1  23
ATOM     23  C   UNL     1      35.206 -24.227 -14.294  0.00  0.00    +0.123 C 
BRANCH  23  24
ATOM     24  C   UNL     1      35.450 -23.217 -15.380  0.00  0.00    -0.001 C 
ATOM     25  C   UNL     1      34.461 -22.958 -16.327  0.00  0.00    +0.034 C 
ATOM     26  C   UNL     1      36.668 -22.539 -15.440  0.00  0.00    -0.003 C 
ATOM     27  C   UNL     1      34.688 -22.021 -17.335  0.00  0.00    +0.139 C 
ATOM     28  C   UNL     1      36.896 -21.602 -16.447  0.00  0.00    +0.003 C 
ATOM     29  C   UNL     1      35.905 -21.343 -17.395  0.00  0.00    +0.037 C 
BRANCH  27  30
ATOM     30  O   UNL     1      33.723 -21.770 -18.261  0.00  0.00    -0.464 OA
BRANCH  30  31
ATOM     31  C   UNL     1      34.133 -21.131 -19.470  0.00  0.00    +0.314 C 
BRANCH  31  33
ATOM     32  O   UNL     1      31.864 -20.270 -19.578  0.00  0.00    -0.246 OA
ATOM     33  C   UNL     1      33.005 -20.300 -20.014  0.00  0.00    +0.359 C 
BRANCH  33  34
ATOM     34  O   UNL     1      33.431 -19.570 -21.075  0.00  0.00    -0.478 OA
ATOM     35  H   UNL     1      34.202 -19.826 -21.542  0.00  0.00    +0.295 HD
ENDBRANCH  33  34
ENDBRANCH  31  33
ENDBRANCH  30  31
ENDBRANCH  27  30
ENDBRANCH  23  24
ENDBRANCH   1  23
TORSDOF 11
ENDMDL
MODEL 6
REMARK VINA RESULT:     -10.3      3.370      7.685
REMARK  Name = 18376177
REMARK  11 active torsions:
REMARK  status: ('A' for Active; 'I' for Inactive)
REMARK    1  A    between atoms: N_1  and  S_2
REMARK    2  A    between atoms: N_1  and  C_11
REMARK    3  A    between atoms: N_1  and  C_23
REMARK    4  A    between atoms: S_2  and  C_6
REMARK    5  A    between atoms: C_11  and  C_12
REMARK    6  A    between atoms: C_15  and  N_18
REMARK    7  A    between atoms: C_23  and  C_24
REMARK    8  A    between atoms: C_27  and  O_30
REMARK    9  A    between atoms: O_30  and  C_31
REMARK   10  A    between atoms: C_31  and  C_33
REMARK   11  A    between atoms: C_33  and  O_34
REMARK                            x       y       z     vdW  Elec       q    Type
REMARK                         _______ _______ _______ _____ _____    ______ ____
ROOT
ATOM      1  N   UNL     1      33.966 -23.080 -15.258  0.00  0.00    -0.147 NA
ENDROOT
BRANCH   1   2
ATOM      2  S   UNL     1      35.462 -22.707 -14.488  0.00  0.00    +0.065 S 
ATOM      3  O   UNL     1      35.221 -22.383 -13.093  0.00  0.00    -0.153 OA
ATOM      4  O   UNL     1      36.215 -21.782 -15.315  0.00  0.00    -0.153 OA
BRANCH   2   6
ATOM      5  N   UNL     1      36.251 -26.639 -14.946  0.00  0.00    -0.241 NA
ATOM      6  C   UNL     1      36.315 -24.259 -14.527  0.00  0.00    +0.141 C 
ATOM      7  C   UNL     1      37.660 -24.346 -14.190  0.00  0.00    +0.023 C 
ATOM      8  C   UNL     1      35.661 -25.424 -14.895  0.00  0.00    +0.119 C 
ATOM      9  C   UNL     1      38.303 -25.578 -14.231  0.00  0.00    +0.022 C 
ATOM     10  C   UNL     1      37.560 -26.685 -14.612  0.00  0.00    +0.099 C 
ENDBRANCH   2   6
ENDBRANCH   1   2
BRANCH   1  11
ATOM     11  C   UNL     1      32.926 -23.774 -14.457  0.00  0.00    +0.122 C 
BRANCH  11  12
ATOM     12  C   UNL     1      31.538 -23.319 -14.808  0.00  0.00    -0.004 C 
ATOM     13  C   UNL     1      30.642 -24.209 -15.400  0.00  0.00    -0.002 C 
ATOM     14  C   UNL     1      31.145 -22.008 -14.542  0.00  0.00    -0.002 C 
ATOM     15  C   UNL     1      28.961 -22.474 -15.463  0.00  0.00    +0.074 C 
ATOM     16  C   UNL     1      29.353 -23.786 -15.728  0.00  0.00    +0.016 C 
ATOM     17  C   UNL     1      29.857 -21.585 -14.869  0.00  0.00    +0.016 C 
BRANCH  15  18
ATOM     18  N   UNL     1      27.683 -22.056 -15.786  0.00  0.00    -0.189 N 
ATOM     19  N   UNL     1      27.385 -21.686 -17.043  0.00  0.00    -0.172 NA
ATOM     20  C   UNL     1      26.629 -21.976 -14.924  0.00  0.00    +0.091 C 
ATOM     21  C   UNL     1      25.569 -21.521 -15.668  0.00  0.00    +0.040 C 
ATOM     22  C   UNL     1      26.092 -21.360 -16.964  0.00  0.00    +0.120 C 
ENDBRANCH  15  18
ENDBRANCH  11  12
ENDBRANCH   1  11
BRANCH   1  23
ATOM     23  C   UNL     1      34.012 -23.576 -16.658  0.00  0.00    +0.123 C 
BRANCH  23  24
ATOM     24  C   UNL     1      33.745 -22.487 -17.657  0.00  0.00    -0.001 C 
ATOM     25  C   UNL     1      34.809 -21.841 -18.287  0.00  0.00    +0.034 C 
ATOM     26  C   UNL     1      32.432 -22.121 -17.957  0.00  0.00    -0.003 C 
ATOM     27  C   UNL     1      34.561 -20.830 -19.214  0.00  0.00    +0.139 C 
ATOM     28  C   UNL     1      32.184 -21.110 -18.884  0.00  0.00    +0.003 C 
ATOM     29  C   UNL     1      33.249 -20.464 -19.514  0.00  0.00    +0.037 C 
BRANCH  27  30
ATOM     30  O   UNL     1      35.599 -20.198 -19.827  0.00  0.00    -0.464 OA
BRANCH  30  31
ATOM     31  C   UNL     1      35.314 -19.504 -21.041  0.00  0.00    +0.314 C 
BRANCH  31  33
ATOM     32  O   UNL     1      35.282 -17.119 -20.581  0.00  0.00    -0.246 OA
ATOM     33  C   UNL     1      35.875 -18.112 -20.976  0.00  0.00    +0.359 C 
BRANCH  33  34
ATOM     34  O   UNL     1      37.156 -18.103 -21.423  0.00  0.00    -0.478 OA
ATOM     35  H   UNL     1      37.574 -18.905 -21.665  0.00  0.00    +0.295 HD
ENDBRANCH  33  34
ENDBRANCH  31  33
ENDBRANCH  30  31
ENDBRANCH  27  30
ENDBRANCH  23  24
ENDBRANCH   1  23
TORSDOF 11
ENDMDL
MODEL 7
REMARK VINA RESULT:     -10.3      3.302      6.587
REMARK  Name = 18376177
REMARK  11 active torsions:
REMARK  status: ('A' for Active; 'I' for Inactive)
REMARK    1  A    between atoms: N_1  and  S_2
REMARK    2  A    between atoms: N_1  and  C_11
REMARK    3  A    between atoms: N_1  and  C_23
REMARK    4  A    between atoms: S_2  and  C_6
REMARK    5  A    between atoms: C_11  and  C_12
REMARK    6  A    between atoms: C_15  and  N_18
REMARK    7  A    between atoms: C_23  and  C_24
REMARK    8  A    between atoms: C_27  and  O_30
REMARK    9  A    between atoms: O_30  and  C_31
REMARK   10  A    between atoms: C_31  and  C_33
REMARK   11  A    between atoms: C_33  and  O_34
REMARK                            x       y       z     vdW  Elec       q    Type
REMARK                         _______ _______ _______ _____ _____    ______ ____
ROOT
ATOM      1  N   UNL     1      31.618 -22.924 -15.777  0.00  0.00    -0.147 NA
ENDROOT
BRANCH   1   2
ATOM      2  S   UNL     1      30.445 -23.816 -14.883  0.00  0.00    +0.065 S 
ATOM      3  O   UNL     1      30.471 -23.394 -13.495  0.00  0.00    -0.153 OA
ATOM      4  O   UNL     1      30.563 -25.227 -15.202  0.00  0.00    -0.153 OA
BRANCH   2   6
ATOM      5  N   UNL     1      27.145 -23.549 -17.194  0.00  0.00    -0.241 NA
ATOM      6  C   UNL     1      28.917 -23.248 -15.576  0.00  0.00    +0.141 C 
ATOM      7  C   UNL     1      28.290 -22.107 -15.090  0.00  0.00    +0.023 C 
ATOM      8  C   UNL     1      28.309 -23.927 -16.620  0.00  0.00    +0.119 C 
ATOM      9  C   UNL     1      27.091 -21.686 -15.653  0.00  0.00    +0.022 C 
ATOM     10  C   UNL     1      26.564 -22.435 -16.694  0.00  0.00    +0.099 C 
ENDBRANCH   2   6
ENDBRANCH   1   2
BRANCH   1  11
ATOM     11  C   UNL     1      32.567 -22.071 -15.019  0.00  0.00    +0.122 C 
BRANCH  11  12
ATOM     12  C   UNL     1      33.927 -22.700 -14.897  0.00  0.00    -0.004 C 
ATOM     13  C   UNL     1      35.071 -21.940 -15.138  0.00  0.00    -0.002 C 
ATOM     14  C   UNL     1      34.044 -24.044 -14.544  0.00  0.00    -0.002 C 
ATOM     15  C   UNL     1      36.450 -23.869 -14.674  0.00  0.00    +0.074 C 
ATOM     16  C   UNL     1      36.333 -22.525 -15.026  0.00  0.00    +0.016 C 
ATOM     17  C   UNL     1      35.305 -24.629 -14.432  0.00  0.00    +0.016 C 
BRANCH  15  18
ATOM     18  N   UNL     1      37.701 -24.448 -14.562  0.00  0.00    -0.189 N 
ATOM     19  N   UNL     1      38.805 -23.750 -14.881  0.00  0.00    -0.172 NA
ATOM     20  C   UNL     1      37.956 -25.717 -14.135  0.00  0.00    +0.091 C 
ATOM     21  C   UNL     1      39.321 -25.862 -14.180  0.00  0.00    +0.040 C 
ATOM     22  C   UNL     1      39.791 -24.620 -14.646  0.00  0.00    +0.120 C 
ENDBRANCH  15  18
ENDBRANCH  11  12
ENDBRANCH   1  11
BRANCH   1  23
ATOM     23  C   UNL     1      31.182 -22.280 -17.043  0.00  0.00    +0.123 C 
BRANCH  23  24
ATOM     24  C   UNL     1      32.336 -21.987 -17.960  0.00  0.00    -0.001 C 
ATOM     25  C   UNL     1      32.321 -20.843 -18.758  0.00  0.00    +0.034 C 
ATOM     26  C   UNL     1      33.424 -22.859 -18.012  0.00  0.00    -0.003 C 
ATOM     27  C   UNL     1      33.392 -20.572 -19.608  0.00  0.00    +0.139 C 
ATOM     28  C   UNL     1      34.495 -22.588 -18.863  0.00  0.00    +0.003 C 
ATOM     29  C   UNL     1      34.479 -21.443 -19.661  0.00  0.00    +0.037 C 
BRANCH  27  30
ATOM     30  O   UNL     1      33.376 -19.457 -20.389  0.00  0.00    -0.464 OA
BRANCH  30  31
ATOM     31  C   UNL     1      34.487 -19.259 -21.263  0.00  0.00    +0.314 C 
BRANCH  31  33
ATOM     32  O   UNL     1      34.919 -16.926 -20.739  0.00  0.00    -0.246 OA
ATOM     33  C   UNL     1      35.301 -18.086 -20.793  0.00  0.00    +0.359 C 
BRANCH  33  34
ATOM     34  O   UNL     1      36.542 -18.493 -20.428  0.00  0.00    -0.478 OA
ATOM     35  H   UNL     1      36.743 -18.632 -19.524  0.00  0.00    +0.295 HD
ENDBRANCH  33  34
ENDBRANCH  31  33
ENDBRANCH  30  31
ENDBRANCH  27  30
ENDBRANCH  23  24
ENDBRANCH   1  23
TORSDOF 11
ENDMDL
MODEL 8
REMARK VINA RESULT:     -10.2      2.472      6.529
REMARK  Name = 18376177
REMARK  11 active torsions:
REMARK  status: ('A' for Active; 'I' for Inactive)
REMARK    1  A    between atoms: N_1  and  S_2
REMARK    2  A    between atoms: N_1  and  C_11
REMARK    3  A    between atoms: N_1  and  C_23
REMARK    4  A    between atoms: S_2  and  C_6
REMARK    5  A    between atoms: C_11  and  C_12
REMARK    6  A    between atoms: C_15  and  N_18
REMARK    7  A    between atoms: C_23  and  C_24
REMARK    8  A    between atoms: C_27  and  O_30
REMARK    9  A    between atoms: O_30  and  C_31
REMARK   10  A    between atoms: C_31  and  C_33
REMARK   11  A    between atoms: C_33  and  O_34
REMARK                            x       y       z     vdW  Elec       q    Type
REMARK                         _______ _______ _______ _____ _____    ______ ____
ROOT
ATOM      1  N   UNL     1      35.663 -23.736 -15.519  0.00  0.00    -0.147 NA
ENDROOT
BRANCH   1   2
ATOM      2  S   UNL     1      37.073 -24.264 -14.678  0.00  0.00    +0.065 S 
ATOM      3  O   UNL     1      38.172 -23.359 -14.960  0.00  0.00    -0.153 OA
ATOM      4  O   UNL     1      37.251 -25.690 -14.883  0.00  0.00    -0.153 OA
BRANCH   2   6
ATOM      5  N   UNL     1      35.902 -24.995 -10.885  0.00  0.00    -0.241 NA
ATOM      6  C   UNL     1      36.621 -24.030 -12.982  0.00  0.00    +0.141 C 
ATOM      7  C   UNL     1      36.622 -22.764 -12.408  0.00  0.00    +0.023 C 
ATOM      8  C   UNL     1      36.257 -25.104 -12.184  0.00  0.00    +0.119 C 
ATOM      9  C   UNL     1      36.264 -22.612 -11.073  0.00  0.00    +0.022 C 
ATOM     10  C   UNL     1      35.915 -23.749 -10.361  0.00  0.00    +0.099 C 
ENDBRANCH   2   6
ENDBRANCH   1   2
BRANCH   1  11
ATOM     11  C   UNL     1      35.301 -22.298 -15.432  0.00  0.00    +0.122 C 
BRANCH  11  12
ATOM     12  C   UNL     1      35.320 -21.624 -16.775  0.00  0.00    -0.004 C 
ATOM     13  C   UNL     1      36.398 -20.817 -17.135  0.00  0.00    -0.002 C 
ATOM     14  C   UNL     1      34.257 -21.805 -17.661  0.00  0.00    -0.002 C 
ATOM     15  C   UNL     1      35.352 -20.370 -19.267  0.00  0.00    +0.074 C 
ATOM     16  C   UNL     1      36.414 -20.190 -18.382  0.00  0.00    +0.016 C 
ATOM     17  C   UNL     1      34.274 -21.178 -18.907  0.00  0.00    +0.016 C 
BRANCH  15  18
ATOM     18  N   UNL     1      35.369 -19.750 -20.503  0.00  0.00    -0.189 N 
ATOM     19  N   UNL     1      36.452 -19.060 -20.903  0.00  0.00    -0.172 NA
ATOM     20  C   UNL     1      34.356 -19.763 -21.415  0.00  0.00    +0.091 C 
ATOM     21  C   UNL     1      34.805 -19.030 -22.486  0.00  0.00    +0.040 C 
ATOM     22  C   UNL     1      36.100 -18.622 -22.116  0.00  0.00    +0.120 C 
ENDBRANCH  15  18
ENDBRANCH  11  12
ENDBRANCH   1  11
BRANCH   1  23
ATOM     23  C   UNL     1      34.465 -24.613 -15.482  0.00  0.00    +0.123 C 
BRANCH  23  24
ATOM     24  C   UNL     1      33.256 -23.902 -14.943  0.00  0.00    -0.001 C 
ATOM     25  C   UNL     1      32.208 -23.561 -15.798  0.00  0.00    +0.034 C 
ATOM     26  C   UNL     1      33.181 -23.584 -13.586  0.00  0.00    -0.003 C 
ATOM     27  C   UNL     1      31.086 -22.901 -15.297  0.00  0.00    +0.139 C 
ATOM     28  C   UNL     1      32.059 -22.924 -13.086  0.00  0.00    +0.003 C 
ATOM     29  C   UNL     1      31.011 -22.583 -13.941  0.00  0.00    +0.037 C 
BRANCH  27  30
ATOM     30  O   UNL     1      30.064 -22.566 -16.131  0.00  0.00    -0.464 OA
BRANCH  30  31
ATOM     31  C   UNL     1      28.774 -22.399 -15.545  0.00  0.00    +0.314 C 
BRANCH  31  33
ATOM     32  O   UNL     1      27.484 -23.347 -17.373  0.00  0.00    -0.246 OA
ATOM     33  C   UNL     1      27.721 -22.416 -16.618  0.00  0.00    +0.359 C 
BRANCH  33  34
ATOM     34  O   UNL     1      27.055 -21.234 -16.638  0.00  0.00    -0.478 OA
ATOM     35  H   UNL     1      26.365 -21.074 -16.026  0.00  0.00    +0.295 HD
ENDBRANCH  33  34
ENDBRANCH  31  33
ENDBRANCH  30  31
ENDBRANCH  27  30
ENDBRANCH  23  24
ENDBRANCH   1  23
TORSDOF 11
ENDMDL
MODEL 9
REMARK VINA RESULT:      -9.8      3.291      7.576
REMARK  Name = 18376177
REMARK  11 active torsions:
REMARK  status: ('A' for Active; 'I' for Inactive)
REMARK    1  A    between atoms: N_1  and  S_2
REMARK    2  A    between atoms: N_1  and  C_11
REMARK    3  A    between atoms: N_1  and  C_23
REMARK    4  A    between atoms: S_2  and  C_6
REMARK    5  A    between atoms: C_11  and  C_12
REMARK    6  A    between atoms: C_15  and  N_18
REMARK    7  A    between atoms: C_23  and  C_24
REMARK    8  A    between atoms: C_27  and  O_30
REMARK    9  A    between atoms: O_30  and  C_31
REMARK   10  A    between atoms: C_31  and  C_33
REMARK   11  A    between atoms: C_33  and  O_34
REMARK                            x       y       z     vdW  Elec       q    Type
REMARK                         _______ _______ _______ _____ _____    ______ ____
ROOT
ATOM      1  N   UNL     1      34.060 -23.220 -15.272  0.00  0.00    -0.147 NA
ENDROOT
BRANCH   1   2
ATOM      2  S   UNL     1      35.720 -23.218 -14.804  0.00  0.00    +0.065 S 
ATOM      3  O   UNL     1      36.299 -21.916 -15.081  0.00  0.00    -0.153 OA
ATOM      4  O   UNL     1      36.367 -24.412 -15.317  0.00  0.00    -0.153 OA
BRANCH   2   6
ATOM      5  N   UNL     1      34.698 -24.532 -11.127  0.00  0.00    -0.241 NA
ATOM      6  C   UNL     1      35.626 -23.388 -13.044  0.00  0.00    +0.141 C 
ATOM      7  C   UNL     1      36.362 -22.561 -12.204  0.00  0.00    +0.023 C 
ATOM      8  C   UNL     1      34.816 -24.349 -12.460  0.00  0.00    +0.119 C 
ATOM      9  C   UNL     1      36.268 -22.717 -10.826  0.00  0.00    +0.022 C 
ATOM     10  C   UNL     1      35.429 -23.709 -10.341  0.00  0.00    +0.099 C 
ENDBRANCH   2   6
ENDBRANCH   1   2
BRANCH   1  11
ATOM     11  C   UNL     1      33.056 -23.651 -14.266  0.00  0.00    +0.122 C 
BRANCH  11  12
ATOM     12  C   UNL     1      31.661 -23.236 -14.640  0.00  0.00    -0.004 C 
ATOM     13  C   UNL     1      30.792 -24.159 -15.220  0.00  0.00    -0.002 C 
ATOM     14  C   UNL     1      31.236 -21.929 -14.406  0.00  0.00    -0.002 C 
ATOM     15  C   UNL     1      29.072 -22.466 -15.337  0.00  0.00    +0.074 C 
ATOM     16  C   UNL     1      29.497 -23.774 -15.569  0.00  0.00    +0.016 C 
ATOM     17  C   UNL     1      29.941 -21.543 -14.755  0.00  0.00    +0.016 C 
BRANCH  15  18
ATOM     18  N   UNL     1      27.788 -22.085 -15.681  0.00  0.00    -0.189 N 
ATOM     19  N   UNL     1      27.489 -21.772 -16.953  0.00  0.00    -0.172 NA
ATOM     20  C   UNL     1      26.730 -21.989 -14.826  0.00  0.00    +0.091 C 
ATOM     21  C   UNL     1      25.664 -21.584 -15.592  0.00  0.00    +0.040 C 
ATOM     22  C   UNL     1      26.189 -21.466 -16.892  0.00  0.00    +0.120 C 
ENDBRANCH  15  18
ENDBRANCH  11  12
ENDBRANCH   1  11
BRANCH   1  23
ATOM     23  C   UNL     1      33.725 -23.707 -16.634  0.00  0.00    +0.123 C 
BRANCH  23  24
ATOM     24  C   UNL     1      33.490 -22.579 -17.600  0.00  0.00    -0.001 C 
ATOM     25  C   UNL     1      34.572 -21.961 -18.227  0.00  0.00    +0.034 C 
ATOM     26  C   UNL     1      32.190 -22.150 -17.869  0.00  0.00    -0.003 C 
ATOM     27  C   UNL     1      34.354 -20.915 -19.123  0.00  0.00    +0.139 C 
ATOM     28  C   UNL     1      31.972 -21.104 -18.765  0.00  0.00    +0.003 C 
ATOM     29  C   UNL     1      33.054 -20.486 -19.392  0.00  0.00    +0.037 C 
BRANCH  27  30
ATOM     30  O   UNL     1      35.409 -20.310 -19.733  0.00  0.00    -0.464 OA
BRANCH  30  31
ATOM     31  C   UNL     1      35.131 -19.538 -20.900  0.00  0.00    +0.314 C 
BRANCH  31  33
ATOM     32  O   UNL     1      37.149 -18.226 -21.228  0.00  0.00    -0.246 OA
ATOM     33  C   UNL     1      35.974 -18.293 -20.901  0.00  0.00    +0.359 C 
BRANCH  33  34
ATOM     34  O   UNL     1      35.241 -17.232 -20.481  0.00  0.00    -0.478 OA
ATOM     35  H   UNL     1      35.663 -16.418 -20.285  0.00  0.00    +0.295 HD
ENDBRANCH  33  34
ENDBRANCH  31  33
ENDBRANCH  30  31
ENDBRANCH  27  30
ENDBRANCH  23  24
ENDBRANCH   1  23
TORSDOF 11
ENDMDL
