MODEL 1
REMARK VINA RESULT:     -13.2      0.000      0.000
REMARK  Name = 4413
REMARK  6 active torsions:
REMARK  status: ('A' for Active; 'I' for Inactive)
REMARK    1  A    between atoms: O_1  and  C_9
REMARK    2  A    between atoms: O_1  and  C_19
REMARK    3  A    between atoms: C_6  and  C_14
REMARK    4  A    between atoms: C_19  and  C_20
REMARK    5  A    between atoms: C_23  and  N_26
REMARK    6  A    between atoms: N_26  and  C_29
REMARK                            x       y       z     vdW  Elec       q    Type
REMARK                         _______ _______ _______ _____ _____    ______ ____
ROOT
ATOM      1  O   UNL     1      35.005 -18.780 -22.210  0.00  0.00    -0.421 OA
ENDROOT
BRANCH   1   9
ATOM      2  C   UNL     1      33.865 -14.895 -23.206  0.00  0.00    +0.000 C 
ATOM      3  C   UNL     1      34.122 -15.233 -21.855  0.00  0.00    +0.003 C 
ATOM      4  C   UNL     1      33.483 -13.582 -23.524  0.00  0.00    +0.003 C 
ATOM      5  C   UNL     1      34.505 -16.546 -21.537  0.00  0.00    +0.038 C 
ATOM      6  C   UNL     1      33.356 -12.615 -22.526  0.00  0.00    +0.031 C 
ATOM      7  C   UNL     1      33.990 -14.248 -20.864  0.00  0.00    +0.000 C 
ATOM      8  C   UNL     1      33.998 -15.881 -24.198  0.00  0.00    +0.003 C 
ATOM      9  C   UNL     1      34.632 -17.513 -22.535  0.00  0.00    +0.149 C 
ATOM     10  C   UNL     1      33.609 -12.947 -21.198  0.00  0.00    +0.003 C 
ATOM     11  C   UNL     1      34.379 -17.180 -23.863  0.00  0.00    +0.038 C 
BRANCH   6  14
ATOM     12  N   UNL     1      31.744 -10.728 -22.441  0.00  0.00    -0.343 N 
ATOM     13  N   UNL     1      33.756 -10.510 -23.613  0.00  0.00    -0.285 NA
ATOM     14  C   UNL     1      32.959 -11.260 -22.872  0.00  0.00    +0.117 C 
ATOM     15  H   UNL     1      31.497  -9.807 -22.687  0.00  0.00    +0.144 HD
ATOM     16  H   UNL     1      31.136 -11.272 -21.891  0.00  0.00    +0.144 HD
ATOM     17  H   UNL     1      33.488  -9.591 -23.848  0.00  0.00    +0.188 HD
ENDBRANCH   6  14
ENDBRANCH   1   9
BRANCH   1  19
ATOM     18  O   UNL     1      36.444 -18.240 -20.459  0.00  0.00    -0.244 OA
ATOM     19  C   UNL     1      35.536 -18.912 -20.925  0.00  0.00    +0.346 C 
BRANCH  19  20
ATOM     20  C   UNL     1      34.845 -19.984 -20.164  0.00  0.00    +0.076 C 
ATOM     21  C   UNL     1      35.597 -20.841 -19.387  0.00  0.00    +0.008 C 
ATOM     22  C   UNL     1      33.472 -20.088 -20.257  0.00  0.00    +0.008 C 
ATOM     23  C   UNL     1      33.561 -21.973 -18.747  0.00  0.00    +0.084 C 
ATOM     24  C   UNL     1      34.947 -21.846 -18.671  0.00  0.00    +0.019 C 
ATOM     25  C   UNL     1      32.823 -21.094 -19.540  0.00  0.00    +0.019 C 
BRANCH  23  26
ATOM     26  N   UNL     1      32.910 -22.981 -18.030  0.00  0.00    -0.214 NA
BRANCH  26  29
ATOM     27  N   UNL     1      31.173 -22.370 -16.592  0.00  0.00    -0.370 N 
ATOM     28  N   UNL     1      33.216 -22.751 -15.650  0.00  0.00    -0.370 N 
ATOM     29  C   UNL     1      32.483 -22.721 -16.816  0.00  0.00    +0.193 C 
ATOM     30  H   UNL     1      30.542 -22.313 -17.346  0.00  0.00    +0.159 HD
ATOM     31  H   UNL     1      30.864 -22.177 -15.677  0.00  0.00    +0.159 HD
ATOM     32  H   UNL     1      34.170 -22.989 -15.675  0.00  0.00    +0.159 HD
ATOM     33  H   UNL     1      32.784 -22.535 -14.791  0.00  0.00    +0.159 HD
ENDBRANCH  26  29
ENDBRANCH  23  26
ENDBRANCH  19  20
ENDBRANCH   1  19
TORSDOF 6
ENDMDL
MODEL 2
REMARK VINA RESULT:     -12.9      2.186      9.403
REMARK  Name = 4413
REMARK  6 active torsions:
REMARK  status: ('A' for Active; 'I' for Inactive)
REMARK    1  A    between atoms: O_1  and  C_9
REMARK    2  A    between atoms: O_1  and  C_19
REMARK    3  A    between atoms: C_6  and  C_14
REMARK    4  A    between atoms: C_19  and  C_20
REMARK    5  A    between atoms: C_23  and  N_26
REMARK    6  A    between atoms: N_26  and  C_29
REMARK                            x       y       z     vdW  Elec       q    Type
REMARK                         _______ _______ _______ _____ _____    ______ ____
ROOT
ATOM      1  O   UNL     1      34.928 -19.759 -21.407  0.00  0.00    -0.421 OA
ENDROOT
BRANCH   1   9
ATOM      2  C   UNL     1      34.208 -21.792 -17.838  0.00  0.00    +0.000 C 
ATOM      3  C   UNL     1      35.516 -21.346 -18.147  0.00  0.00    +0.003 C 
ATOM      4  C   UNL     1      33.982 -22.475 -16.632  0.00  0.00    +0.003 C 
ATOM      5  C   UNL     1      35.740 -20.663 -19.353  0.00  0.00    +0.038 C 
ATOM      6  C   UNL     1      35.030 -22.714 -15.743  0.00  0.00    +0.031 C 
ATOM      7  C   UNL     1      36.558 -21.594 -17.240  0.00  0.00    +0.000 C 
ATOM      8  C   UNL     1      33.165 -21.543 -18.746  0.00  0.00    +0.003 C 
ATOM      9  C   UNL     1      34.693 -20.424 -20.243  0.00  0.00    +0.149 C 
ATOM     10  C   UNL     1      36.316 -22.275 -16.046  0.00  0.00    +0.003 C 
ATOM     11  C   UNL     1      33.408 -20.863 -19.939  0.00  0.00    +0.038 C 
BRANCH   6  14
ATOM     12  N   UNL     1      34.701 -24.814 -14.459  0.00  0.00    -0.343 N 
ATOM     13  N   UNL     1      34.619 -22.744 -13.375  0.00  0.00    -0.285 NA
ATOM     14  C   UNL     1      34.780 -23.423 -14.498  0.00  0.00    +0.117 C 
ATOM     15  H   UNL     1      34.532 -25.273 -13.604  0.00  0.00    +0.144 HD
ATOM     16  H   UNL     1      34.816 -25.337 -15.285  0.00  0.00    +0.144 HD
ATOM     17  H   UNL     1      34.450 -23.223 -12.531  0.00  0.00    +0.188 HD
ENDBRANCH   6  14
ENDBRANCH   1   9
BRANCH   1  19
ATOM     18  O   UNL     1      35.967 -17.971 -20.334  0.00  0.00    -0.244 OA
ATOM     19  C   UNL     1      35.284 -18.419 -21.243  0.00  0.00    +0.346 C 
BRANCH  19  20
ATOM     20  C   UNL     1      34.733 -17.578 -22.335  0.00  0.00    +0.076 C 
ATOM     21  C   UNL     1      34.903 -16.210 -22.275  0.00  0.00    +0.008 C 
ATOM     22  C   UNL     1      34.069 -18.191 -23.378  0.00  0.00    +0.008 C 
ATOM     23  C   UNL     1      33.712 -16.016 -24.368  0.00  0.00    +0.084 C 
ATOM     24  C   UNL     1      34.387 -15.421 -23.303  0.00  0.00    +0.019 C 
ATOM     25  C   UNL     1      33.553 -17.401 -24.406  0.00  0.00    +0.019 C 
BRANCH  23  26
ATOM     26  N   UNL     1      33.194 -15.225 -25.397  0.00  0.00    -0.214 NA
BRANCH  26  29
ATOM     27  N   UNL     1      32.863 -13.021 -26.100  0.00  0.00    -0.370 N 
ATOM     28  N   UNL     1      32.384 -13.500 -23.920  0.00  0.00    -0.370 N 
ATOM     29  C   UNL     1      32.828 -13.994 -25.128  0.00  0.00    +0.193 C 
ATOM     30  H   UNL     1      33.162 -13.246 -27.010  0.00  0.00    +0.159 HD
ATOM     31  H   UNL     1      32.586 -12.101 -25.885  0.00  0.00    +0.159 HD
ATOM     32  H   UNL     1      32.313 -14.097 -23.141  0.00  0.00    +0.159 HD
ATOM     33  H   UNL     1      32.136 -12.550 -23.838  0.00  0.00    +0.159 HD
ENDBRANCH  26  29
ENDBRANCH  23  26
ENDBRANCH  19  20
ENDBRANCH   1  19
TORSDOF 6
ENDMDL
MODEL 3
REMARK VINA RESULT:     -12.8      0.668      1.654
REMARK  Name = 4413
REMARK  6 active torsions:
REMARK  status: ('A' for Active; 'I' for Inactive)
REMARK    1  A    between atoms: O_1  and  C_9
REMARK    2  A    between atoms: O_1  and  C_19
REMARK    3  A    between atoms: C_6  and  C_14
REMARK    4  A    between atoms: C_19  and  C_20
REMARK    5  A    between atoms: C_23  and  N_26
REMARK    6  A    between atoms: N_26  and  C_29
REMARK                            x       y       z     vdW  Elec       q    Type
REMARK                         _______ _______ _______ _____ _____    ______ ____
ROOT
ATOM      1  O   UNL     1      34.891 -18.203 -22.221  0.00  0.00    -0.421 OA
ENDROOT
BRANCH   1   9
ATOM      2  C   UNL     1      33.626 -14.241 -21.926  0.00  0.00    +0.000 C 
ATOM      3  C   UNL     1      33.676 -14.875 -23.191  0.00  0.00    +0.003 C 
ATOM      4  C   UNL     1      33.198 -12.906 -21.844  0.00  0.00    +0.003 C 
ATOM      5  C   UNL     1      34.104 -16.210 -23.272  0.00  0.00    +0.038 C 
ATOM      6  C   UNL     1      32.823 -12.207 -22.991  0.00  0.00    +0.031 C 
ATOM      7  C   UNL     1      33.295 -14.157 -24.335  0.00  0.00    +0.000 C 
ATOM      8  C   UNL     1      34.008 -14.960 -20.781  0.00  0.00    +0.003 C 
ATOM      9  C   UNL     1      34.480 -16.910 -22.124  0.00  0.00    +0.149 C 
ATOM     10  C   UNL     1      32.872 -12.831 -24.235  0.00  0.00    +0.003 C 
ATOM     11  C   UNL     1      34.431 -16.285 -20.882  0.00  0.00    +0.038 C 
BRANCH   6  14
ATOM     12  N   UNL     1      31.131 -10.499 -22.369  0.00  0.00    -0.343 N 
ATOM     13  N   UNL     1      33.174  -9.850 -23.299  0.00  0.00    -0.285 NA
ATOM     14  C   UNL     1      32.382 -10.825 -22.890  0.00  0.00    +0.117 C 
ATOM     15  H   UNL     1      30.853  -9.557 -22.309  0.00  0.00    +0.144 HD
ATOM     16  H   UNL     1      30.525 -11.212 -22.061  0.00  0.00    +0.144 HD
ATOM     17  H   UNL     1      32.877  -8.913 -23.231  0.00  0.00    +0.188 HD
ENDBRANCH   6  14
ENDBRANCH   1   9
BRANCH   1  19
ATOM     18  O   UNL     1      36.722 -18.212 -20.781  0.00  0.00    -0.244 OA
ATOM     19  C   UNL     1      35.638 -18.653 -21.131  0.00  0.00    +0.346 C 
BRANCH  19  20
ATOM     20  C   UNL     1      34.940 -19.753 -20.417  0.00  0.00    +0.076 C 
ATOM     21  C   UNL     1      35.683 -20.635 -19.661  0.00  0.00    +0.008 C 
ATOM     22  C   UNL     1      33.569 -19.856 -20.531  0.00  0.00    +0.008 C 
ATOM     23  C   UNL     1      33.642 -21.793 -19.088  0.00  0.00    +0.084 C 
ATOM     24  C   UNL     1      35.027 -21.666 -18.990  0.00  0.00    +0.019 C 
ATOM     25  C   UNL     1      32.912 -20.888 -19.859  0.00  0.00    +0.019 C 
BRANCH  23  26
ATOM     26  N   UNL     1      32.984 -22.827 -18.416  0.00  0.00    -0.214 NA
BRANCH  26  29
ATOM     27  N   UNL     1      33.140 -22.691 -16.089  0.00  0.00    -0.370 N 
ATOM     28  N   UNL     1      31.123 -22.180 -17.027  0.00  0.00    -0.370 N 
ATOM     29  C   UNL     1      32.423 -22.574 -17.257  0.00  0.00    +0.193 C 
ATOM     30  H   UNL     1      34.084 -22.966 -16.116  0.00  0.00    +0.159 HD
ATOM     31  H   UNL     1      32.708 -22.498 -15.225  0.00  0.00    +0.159 HD
ATOM     32  H   UNL     1      30.505 -22.059 -17.783  0.00  0.00    +0.159 HD
ATOM     33  H   UNL     1      30.813 -22.018 -16.106  0.00  0.00    +0.159 HD
ENDBRANCH  26  29
ENDBRANCH  23  26
ENDBRANCH  19  20
ENDBRANCH   1  19
TORSDOF 6
ENDMDL
MODEL 4
REMARK VINA RESULT:     -12.8      1.077      1.828
REMARK  Name = 4413
REMARK  6 active torsions:
REMARK  status: ('A' for Active; 'I' for Inactive)
REMARK    1  A    between atoms: O_1  and  C_9
REMARK    2  A    between atoms: O_1  and  C_19
REMARK    3  A    between atoms: C_6  and  C_14
REMARK    4  A    between atoms: C_19  and  C_20
REMARK    5  A    between atoms: C_23  and  N_26
REMARK    6  A    between atoms: N_26  and  C_29
REMARK                            x       y       z     vdW  Elec       q    Type
REMARK                         _______ _______ _______ _____ _____    ______ ____
ROOT
ATOM      1  O   UNL     1      35.108 -17.458 -20.986  0.00  0.00    -0.421 OA
ENDROOT
BRANCH   1   9
ATOM      2  C   UNL     1      33.460 -13.851 -22.277  0.00  0.00    +0.000 C 
ATOM      3  C   UNL     1      33.220 -14.307 -20.958  0.00  0.00    +0.003 C 
ATOM      4  C   UNL     1      32.898 -12.634 -22.696  0.00  0.00    +0.003 C 
ATOM      5  C   UNL     1      33.783 -15.524 -20.540  0.00  0.00    +0.038 C 
ATOM      6  C   UNL     1      32.112 -11.877 -21.828  0.00  0.00    +0.031 C 
ATOM      7  C   UNL     1      32.427 -13.532 -20.098  0.00  0.00    +0.000 C 
ATOM      8  C   UNL     1      34.254 -14.627 -23.138  0.00  0.00    +0.003 C 
ATOM      9  C   UNL     1      34.569 -16.282 -21.408  0.00  0.00    +0.149 C 
ATOM     10  C   UNL     1      31.876 -12.325 -20.531  0.00  0.00    +0.003 C 
ATOM     11  C   UNL     1      34.805 -15.833 -22.704  0.00  0.00    +0.038 C 
BRANCH   6  14
ATOM     12  N   UNL     1      30.325 -10.153 -21.768  0.00  0.00    -0.343 N 
ATOM     13  N   UNL     1      32.165  -9.897 -23.187  0.00  0.00    -0.285 NA
ATOM     14  C   UNL     1      31.537 -10.620 -22.277  0.00  0.00    +0.117 C 
ATOM     15  H   UNL     1      29.955  -9.299 -22.087  0.00  0.00    +0.144 HD
ATOM     16  H   UNL     1      29.841 -10.678 -21.091  0.00  0.00    +0.144 HD
ATOM     17  H   UNL     1      31.777  -9.045 -23.493  0.00  0.00    +0.188 HD
ENDBRANCH   6  14
ENDBRANCH   1   9
BRANCH   1  19
ATOM     18  O   UNL     1      34.345 -18.701 -22.803  0.00  0.00    -0.244 OA
ATOM     19  C   UNL     1      34.578 -18.590 -21.608  0.00  0.00    +0.346 C 
BRANCH  19  20
ATOM     20  C   UNL     1      34.333 -19.678 -20.628  0.00  0.00    +0.076 C 
ATOM     21  C   UNL     1      33.033 -20.055 -20.360  0.00  0.00    +0.008 C 
ATOM     22  C   UNL     1      35.414 -20.281 -20.018  0.00  0.00    +0.008 C 
ATOM     23  C   UNL     1      33.878 -21.704 -18.811  0.00  0.00    +0.084 C 
ATOM     24  C   UNL     1      32.804 -21.078 -19.441  0.00  0.00    +0.019 C 
ATOM     25  C   UNL     1      35.184 -21.305 -19.099  0.00  0.00    +0.019 C 
BRANCH  23  26
ATOM     26  N   UNL     1      33.649 -22.729 -17.889  0.00  0.00    -0.214 NA
BRANCH  26  29
ATOM     27  N   UNL     1      32.940 -22.726 -15.663  0.00  0.00    -0.370 N 
ATOM     28  N   UNL     1      31.364 -22.294 -17.256  0.00  0.00    -0.370 N 
ATOM     29  C   UNL     1      32.687 -22.585 -17.008  0.00  0.00    +0.193 C 
ATOM     30  H   UNL     1      33.850 -22.935 -15.352  0.00  0.00    +0.159 HD
ATOM     31  H   UNL     1      32.210 -22.615 -15.011  0.00  0.00    +0.159 HD
ATOM     32  H   UNL     1      31.053 -22.169 -18.181  0.00  0.00    +0.159 HD
ATOM     33  H   UNL     1      30.729 -22.210 -16.507  0.00  0.00    +0.159 HD
ENDBRANCH  26  29
ENDBRANCH  23  26
ENDBRANCH  19  20
ENDBRANCH   1  19
TORSDOF 6
ENDMDL
MODEL 5
REMARK VINA RESULT:     -12.8      1.840      2.954
REMARK  Name = 4413
REMARK  6 active torsions:
REMARK  status: ('A' for Active; 'I' for Inactive)
REMARK    1  A    between atoms: O_1  and  C_9
REMARK    2  A    between atoms: O_1  and  C_19
REMARK    3  A    between atoms: C_6  and  C_14
REMARK    4  A    between atoms: C_19  and  C_20
REMARK    5  A    between atoms: C_23  and  N_26
REMARK    6  A    between atoms: N_26  and  C_29
REMARK                            x       y       z     vdW  Elec       q    Type
REMARK                         _______ _______ _______ _____ _____    ______ ____
ROOT
ATOM      1  O   UNL     1      35.269 -17.295 -22.307  0.00  0.00    -0.421 OA
ENDROOT
BRANCH   1   9
ATOM      2  C   UNL     1      33.219 -13.745 -21.549  0.00  0.00    +0.000 C 
ATOM      3  C   UNL     1      33.573 -14.087 -22.876  0.00  0.00    +0.003 C 
ATOM      4  C   UNL     1      32.528 -12.545 -21.310  0.00  0.00    +0.003 C 
ATOM      5  C   UNL     1      34.264 -15.287 -23.113  0.00  0.00    +0.038 C 
ATOM      6  C   UNL     1      32.191 -11.696 -22.365  0.00  0.00    +0.031 C 
ATOM      7  C   UNL     1      33.226 -13.222 -23.925  0.00  0.00    +0.000 C 
ATOM      8  C   UNL     1      33.567 -14.611 -20.499  0.00  0.00    +0.003 C 
ATOM      9  C   UNL     1      34.601 -16.136 -22.059  0.00  0.00    +0.149 C 
ATOM     10  C   UNL     1      32.540 -12.033 -23.670  0.00  0.00    +0.003 C 
ATOM     11  C   UNL     1      34.253 -15.798 -20.755  0.00  0.00    +0.038 C 
BRANCH   6  14
ATOM     12  N   UNL     1      31.805  -9.276 -22.764  0.00  0.00    -0.343 N 
ATOM     13  N   UNL     1      30.496 -10.440 -21.216  0.00  0.00    -0.285 NA
ATOM     14  C   UNL     1      31.477 -10.458 -22.102  0.00  0.00    +0.117 C 
ATOM     15  H   UNL     1      31.307  -8.449 -22.570  0.00  0.00    +0.144 HD
ATOM     16  H   UNL     1      32.534  -9.268 -23.425  0.00  0.00    +0.144 HD
ATOM     17  H   UNL     1      30.010  -9.602 -21.037  0.00  0.00    +0.188 HD
ENDBRANCH   6  14
ENDBRANCH   1   9
BRANCH   1  19
ATOM     18  O   UNL     1      33.644 -18.706 -23.201  0.00  0.00    -0.244 OA
ATOM     19  C   UNL     1      34.459 -18.433 -22.333  0.00  0.00    +0.346 C 
BRANCH  19  20
ATOM     20  C   UNL     1      34.715 -19.302 -21.156  0.00  0.00    +0.076 C 
ATOM     21  C   UNL     1      33.653 -19.949 -20.561  0.00  0.00    +0.008 C 
ATOM     22  C   UNL     1      36.009 -19.437 -20.697  0.00  0.00    +0.008 C 
ATOM     23  C   UNL     1      35.193 -20.922 -18.974  0.00  0.00    +0.084 C 
ATOM     24  C   UNL     1      33.894 -20.768 -19.458  0.00  0.00    +0.019 C 
ATOM     25  C   UNL     1      36.251 -20.256 -19.593  0.00  0.00    +0.019 C 
BRANCH  23  26
ATOM     26  N   UNL     1      35.435 -21.741 -17.868  0.00  0.00    -0.214 NA
BRANCH  26  29
ATOM     27  N   UNL     1      37.078 -22.393 -16.340  0.00  0.00    -0.370 N 
ATOM     28  N   UNL     1      36.878 -20.159 -16.759  0.00  0.00    -0.370 N 
ATOM     29  C   UNL     1      36.405 -21.421 -17.043  0.00  0.00    +0.193 C 
ATOM     30  H   UNL     1      36.835 -23.340 -16.453  0.00  0.00    +0.159 HD
ATOM     31  H   UNL     1      37.804 -22.141 -15.724  0.00  0.00    +0.159 HD
ATOM     32  H   UNL     1      36.479 -19.374 -17.199  0.00  0.00    +0.159 HD
ATOM     33  H   UNL     1      37.616 -20.042 -16.118  0.00  0.00    +0.159 HD
ENDBRANCH  26  29
ENDBRANCH  23  26
ENDBRANCH  19  20
ENDBRANCH   1  19
TORSDOF 6
ENDMDL
MODEL 6
REMARK VINA RESULT:     -12.8      1.486      9.275
REMARK  Name = 4413
REMARK  6 active torsions:
REMARK  status: ('A' for Active; 'I' for Inactive)
REMARK    1  A    between atoms: O_1  and  C_9
REMARK    2  A    between atoms: O_1  and  C_19
REMARK    3  A    between atoms: C_6  and  C_14
REMARK    4  A    between atoms: C_19  and  C_20
REMARK    5  A    between atoms: C_23  and  N_26
REMARK    6  A    between atoms: N_26  and  C_29
REMARK                            x       y       z     vdW  Elec       q    Type
REMARK                         _______ _______ _______ _____ _____    ______ ____
ROOT
ATOM      1  O   UNL     1      34.818 -19.406 -21.470  0.00  0.00    -0.421 OA
ENDROOT
BRANCH   1   9
ATOM      2  C   UNL     1      33.869 -21.656 -18.090  0.00  0.00    +0.000 C 
ATOM      3  C   UNL     1      35.205 -21.247 -18.315  0.00  0.00    +0.003 C 
ATOM      4  C   UNL     1      33.566 -22.413 -16.946  0.00  0.00    +0.003 C 
ATOM      5  C   UNL     1      35.507 -20.490 -19.459  0.00  0.00    +0.038 C 
ATOM      6  C   UNL     1      34.565 -22.761 -16.038  0.00  0.00    +0.031 C 
ATOM      7  C   UNL     1      36.198 -21.605 -17.390  0.00  0.00    +0.000 C 
ATOM      8  C   UNL     1      32.875 -21.297 -19.015  0.00  0.00    +0.003 C 
ATOM      9  C   UNL     1      34.507 -20.141 -20.368  0.00  0.00    +0.149 C 
ATOM     10  C   UNL     1      35.880 -22.358 -16.259  0.00  0.00    +0.003 C 
ATOM     11  C   UNL     1      33.194 -20.544 -20.146  0.00  0.00    +0.038 C 
BRANCH   6  14
ATOM     12  N   UNL     1      33.337 -23.075 -13.902  0.00  0.00    -0.343 N 
ATOM     13  N   UNL     1      34.796 -24.729 -14.678  0.00  0.00    -0.285 NA
ATOM     14  C   UNL     1      34.236 -23.545 -14.859  0.00  0.00    +0.117 C 
ATOM     15  H   UNL     1      33.128 -23.623 -13.112  0.00  0.00    +0.144 HD
ATOM     16  H   UNL     1      32.911 -22.195 -14.018  0.00  0.00    +0.144 HD
ATOM     17  H   UNL     1      34.573 -25.261 -13.880  0.00  0.00    +0.188 HD
ENDBRANCH   6  14
ENDBRANCH   1   9
BRANCH   1  19
ATOM     18  O   UNL     1      36.465 -18.095 -20.472  0.00  0.00    -0.244 OA
ATOM     19  C   UNL     1      35.487 -18.212 -21.196  0.00  0.00    +0.346 C 
BRANCH  19  20
ATOM     20  C   UNL     1      34.866 -17.069 -21.912  0.00  0.00    +0.076 C 
ATOM     21  C   UNL     1      34.641 -17.175 -23.269  0.00  0.00    +0.008 C 
ATOM     22  C   UNL     1      34.531 -15.938 -21.197  0.00  0.00    +0.008 C 
ATOM     23  C   UNL     1      33.707 -14.947 -23.242  0.00  0.00    +0.084 C 
ATOM     24  C   UNL     1      34.056 -16.102 -23.941  0.00  0.00    +0.019 C 
ATOM     25  C   UNL     1      33.945 -14.864 -21.870  0.00  0.00    +0.019 C 
BRANCH  23  26
ATOM     26  N   UNL     1      33.122 -13.872 -23.915  0.00  0.00    -0.214 NA
BRANCH  26  29
ATOM     27  N   UNL     1      33.681 -11.686 -23.309  0.00  0.00    -0.370 N 
ATOM     28  N   UNL     1      31.765 -12.552 -22.422  0.00  0.00    -0.370 N 
ATOM     29  C   UNL     1      32.847 -12.778 -23.244  0.00  0.00    +0.193 C 
ATOM     30  H   UNL     1      34.493 -11.718 -23.865  0.00  0.00    +0.159 HD
ATOM     31  H   UNL     1      33.465 -10.870 -22.800  0.00  0.00    +0.159 HD
ATOM     32  H   UNL     1      31.092 -13.258 -22.290  0.00  0.00    +0.159 HD
ATOM     33  H   UNL     1      31.664 -11.684 -21.967  0.00  0.00    +0.159 HD
ENDBRANCH  26  29
ENDBRANCH  23  26
ENDBRANCH  19  20
ENDBRANCH   1  19
TORSDOF 6
ENDMDL
MODEL 7
REMARK VINA RESULT:     -12.7      4.203      6.347
REMARK  Name = 4413
REMARK  6 active torsions:
REMARK  status: ('A' for Active; 'I' for Inactive)
REMARK    1  A    between atoms: O_1  and  C_9
REMARK    2  A    between atoms: O_1  and  C_19
REMARK    3  A    between atoms: C_6  and  C_14
REMARK    4  A    between atoms: C_19  and  C_20
REMARK    5  A    between atoms: C_23  and  N_26
REMARK    6  A    between atoms: N_26  and  C_29
REMARK                            x       y       z     vdW  Elec       q    Type
REMARK                         _______ _______ _______ _____ _____    ______ ____
ROOT
ATOM      1  O   UNL     1      33.744 -23.143 -17.769  0.00  0.00    -0.421 OA
ENDROOT
BRANCH   1   9
ATOM      2  C   UNL     1      33.594 -19.789 -20.241  0.00  0.00    +0.000 C 
ATOM      3  C   UNL     1      34.845 -20.322 -19.848  0.00  0.00    +0.003 C 
ATOM      4  C   UNL     1      33.560 -18.659 -21.074  0.00  0.00    +0.003 C 
ATOM      5  C   UNL     1      34.877 -21.452 -19.015  0.00  0.00    +0.038 C 
ATOM      6  C   UNL     1      34.743 -18.064 -21.514  0.00  0.00    +0.031 C 
ATOM      7  C   UNL     1      36.024 -19.711 -20.300  0.00  0.00    +0.000 C 
ATOM      8  C   UNL     1      32.413 -20.401 -19.789  0.00  0.00    +0.003 C 
ATOM      9  C   UNL     1      33.694 -22.048 -18.575  0.00  0.00    +0.149 C 
ATOM     10  C   UNL     1      35.973 -18.588 -21.127  0.00  0.00    +0.003 C 
ATOM     11  C   UNL     1      32.465 -21.523 -18.962  0.00  0.00    +0.038 C 
BRANCH   6  14
ATOM     12  N   UNL     1      34.554 -15.610 -21.849  0.00  0.00    -0.343 N 
ATOM     13  N   UNL     1      34.773 -17.038 -23.687  0.00  0.00    -0.285 NA
ATOM     14  C   UNL     1      34.692 -16.894 -22.376  0.00  0.00    +0.117 C 
ATOM     15  H   UNL     1      34.523 -14.833 -22.452  0.00  0.00    +0.144 HD
ATOM     16  H   UNL     1      34.489 -15.482 -20.876  0.00  0.00    +0.144 HD
ATOM     17  H   UNL     1      34.739 -16.247 -24.272  0.00  0.00    +0.188 HD
ENDBRANCH   6  14
ENDBRANCH   1   9
BRANCH   1  19
ATOM     18  O   UNL     1      32.665 -22.442 -15.827  0.00  0.00    -0.244 OA
ATOM     19  C   UNL     1      33.658 -22.859 -16.405  0.00  0.00    +0.346 C 
BRANCH  19  20
ATOM     20  C   UNL     1      34.942 -23.139 -15.714  0.00  0.00    +0.076 C 
ATOM     21  C   UNL     1      35.052 -24.278 -14.944  0.00  0.00    +0.008 C 
ATOM     22  C   UNL     1      35.988 -22.251 -15.866  0.00  0.00    +0.008 C 
ATOM     23  C   UNL     1      37.331 -23.661 -14.435  0.00  0.00    +0.084 C 
ATOM     24  C   UNL     1      36.259 -24.541 -14.298  0.00  0.00    +0.019 C 
ATOM     25  C   UNL     1      37.196 -22.514 -15.219  0.00  0.00    +0.019 C 
BRANCH  23  26
ATOM     26  N   UNL     1      38.541 -23.923 -13.786  0.00  0.00    -0.214 NA
BRANCH  26  29
ATOM     27  N   UNL     1      39.600 -25.964 -13.371  0.00  0.00    -0.370 N 
ATOM     28  N   UNL     1      39.832 -25.080 -15.461  0.00  0.00    -0.370 N 
ATOM     29  C   UNL     1      39.283 -24.920 -14.208  0.00  0.00    +0.193 C 
ATOM     30  H   UNL     1      39.267 -25.970 -12.444  0.00  0.00    +0.159 HD
ATOM     31  H   UNL     1      40.157 -26.707 -13.699  0.00  0.00    +0.159 HD
ATOM     32  H   UNL     1      39.679 -24.399 -16.155  0.00  0.00    +0.159 HD
ATOM     33  H   UNL     1      40.376 -25.876 -15.663  0.00  0.00    +0.159 HD
ENDBRANCH  26  29
ENDBRANCH  23  26
ENDBRANCH  19  20
ENDBRANCH   1  19
TORSDOF 6
ENDMDL
MODEL 8
REMARK VINA RESULT:     -12.5      2.094      2.985
REMARK  Name = 4413
REMARK  6 active torsions:
REMARK  status: ('A' for Active; 'I' for Inactive)
REMARK    1  A    between atoms: O_1  and  C_9
REMARK    2  A    between atoms: O_1  and  C_19
REMARK    3  A    between atoms: C_6  and  C_14
REMARK    4  A    between atoms: C_19  and  C_20
REMARK    5  A    between atoms: C_23  and  N_26
REMARK    6  A    between atoms: N_26  and  C_29
REMARK                            x       y       z     vdW  Elec       q    Type
REMARK                         _______ _______ _______ _____ _____    ______ ____
ROOT
ATOM      1  O   UNL     1      35.447 -19.859 -20.386  0.00  0.00    -0.421 OA
ENDROOT
BRANCH   1   9
ATOM      2  C   UNL     1      34.310 -16.625 -22.760  0.00  0.00    +0.000 C 
ATOM      3  C   UNL     1      34.445 -16.463 -21.360  0.00  0.00    +0.003 C 
ATOM      4  C   UNL     1      33.927 -15.526 -23.545  0.00  0.00    +0.003 C 
ATOM      5  C   UNL     1      34.828 -17.562 -20.575  0.00  0.00    +0.038 C 
ATOM      6  C   UNL     1      33.680 -14.284 -22.959  0.00  0.00    +0.031 C 
ATOM      7  C   UNL     1      34.193 -15.206 -20.787  0.00  0.00    +0.000 C 
ATOM      8  C   UNL     1      34.562 -17.883 -23.333  0.00  0.00    +0.003 C 
ATOM      9  C   UNL     1      35.075 -18.805 -21.161  0.00  0.00    +0.149 C 
ATOM     10  C   UNL     1      33.813 -14.124 -21.583  0.00  0.00    +0.003 C 
ATOM     11  C   UNL     1      34.942 -18.964 -22.537  0.00  0.00    +0.038 C 
BRANCH   6  14
ATOM     12  N   UNL     1      33.536 -11.843 -23.391  0.00  0.00    -0.343 N 
ATOM     13  N   UNL     1      32.669 -13.367 -24.936  0.00  0.00    -0.285 NA
ATOM     14  C   UNL     1      33.284 -13.156 -23.786  0.00  0.00    +0.117 C 
ATOM     15  H   UNL     1      33.259 -11.094 -23.967  0.00  0.00    +0.144 HD
ATOM     16  H   UNL     1      33.991 -11.665 -22.536  0.00  0.00    +0.144 HD
ATOM     17  H   UNL     1      32.400 -12.604 -25.498  0.00  0.00    +0.188 HD
ENDBRANCH   6  14
ENDBRANCH   1   9
BRANCH   1  19
ATOM     18  O   UNL     1      33.271 -20.690 -20.332  0.00  0.00    -0.244 OA
ATOM     19  C   UNL     1      34.381 -20.573 -19.834  0.00  0.00    +0.346 C 
BRANCH  19  20
ATOM     20  C   UNL     1      34.763 -21.201 -18.544  0.00  0.00    +0.076 C 
ATOM     21  C   UNL     1      33.815 -21.917 -17.844  0.00  0.00    +0.008 C 
ATOM     22  C   UNL     1      36.056 -21.049 -18.087  0.00  0.00    +0.008 C 
ATOM     23  C   UNL     1      35.476 -22.371 -16.149  0.00  0.00    +0.084 C 
ATOM     24  C   UNL     1      34.175 -22.508 -16.633  0.00  0.00    +0.019 C 
ATOM     25  C   UNL     1      36.417 -21.640 -16.875  0.00  0.00    +0.019 C 
BRANCH  23  26
ATOM     26  N   UNL     1      35.837 -22.962 -14.935  0.00  0.00    -0.214 NA
BRANCH  26  29
ATOM     27  N   UNL     1      37.368 -24.723 -15.040  0.00  0.00    -0.370 N 
ATOM     28  N   UNL     1      35.173 -25.272 -14.751  0.00  0.00    -0.370 N 
ATOM     29  C   UNL     1      36.084 -24.250 -14.906  0.00  0.00    +0.193 C 
ATOM     30  H   UNL     1      38.115 -24.092 -15.158  0.00  0.00    +0.159 HD
ATOM     31  H   UNL     1      37.541 -25.692 -15.017  0.00  0.00    +0.159 HD
ATOM     32  H   UNL     1      34.216 -25.066 -14.644  0.00  0.00    +0.159 HD
ATOM     33  H   UNL     1      35.478 -26.208 -14.745  0.00  0.00    +0.159 HD
ENDBRANCH  26  29
ENDBRANCH  23  26
ENDBRANCH  19  20
ENDBRANCH   1  19
TORSDOF 6
ENDMDL
MODEL 9
REMARK VINA RESULT:     -12.5      1.347      8.865
REMARK  Name = 4413
REMARK  6 active torsions:
REMARK  status: ('A' for Active; 'I' for Inactive)
REMARK    1  A    between atoms: O_1  and  C_9
REMARK    2  A    between atoms: O_1  and  C_19
REMARK    3  A    between atoms: C_6  and  C_14
REMARK    4  A    between atoms: C_19  and  C_20
REMARK    5  A    between atoms: C_23  and  N_26
REMARK    6  A    between atoms: N_26  and  C_29
REMARK                            x       y       z     vdW  Elec       q    Type
REMARK                         _______ _______ _______ _____ _____    ______ ____
ROOT
ATOM      1  O   UNL     1      35.370 -16.942 -23.243  0.00  0.00    -0.421 OA
ENDROOT
BRANCH   1   9
ATOM      2  C   UNL     1      35.164 -19.822 -20.234  0.00  0.00    +0.000 C 
ATOM      3  C   UNL     1      33.984 -19.408 -20.899  0.00  0.00    +0.003 C 
ATOM      4  C   UNL     1      35.077 -20.793 -19.223  0.00  0.00    +0.003 C 
ATOM      5  C   UNL     1      34.072 -18.437 -21.910  0.00  0.00    +0.038 C 
ATOM      6  C   UNL     1      33.846 -21.348 -18.874  0.00  0.00    +0.031 C 
ATOM      7  C   UNL     1      32.754 -19.977 -20.535  0.00  0.00    +0.000 C 
ATOM      8  C   UNL     1      36.395 -19.252 -20.599  0.00  0.00    +0.003 C 
ATOM      9  C   UNL     1      35.303 -17.881 -22.260  0.00  0.00    +0.149 C 
ATOM     10  C   UNL     1      32.686 -20.941 -19.527  0.00  0.00    +0.003 C 
ATOM     11  C   UNL     1      36.462 -18.289 -21.606  0.00  0.00    +0.038 C 
BRANCH   6  14
ATOM     12  N   UNL     1      32.693 -23.229 -17.734  0.00  0.00    -0.343 N 
ATOM     13  N   UNL     1      34.743 -22.442 -16.931  0.00  0.00    -0.285 NA
ATOM     14  C   UNL     1      33.773 -22.352 -17.824  0.00  0.00    +0.117 C 
ATOM     15  H   UNL     1      32.665 -23.901 -17.015  0.00  0.00    +0.144 HD
ATOM     16  H   UNL     1      31.960 -23.176 -18.388  0.00  0.00    +0.144 HD
ATOM     17  H   UNL     1      34.695 -23.122 -16.220  0.00  0.00    +0.188 HD
ENDBRANCH   6  14
ENDBRANCH   1   9
BRANCH   1  19
ATOM     18  O   UNL     1      33.438 -17.432 -24.449  0.00  0.00    -0.244 OA
ATOM     19  C   UNL     1      34.142 -16.643 -23.837  0.00  0.00    +0.346 C 
BRANCH  19  20
ATOM     20  C   UNL     1      33.775 -15.220 -23.627  0.00  0.00    +0.076 C 
ATOM     21  C   UNL     1      33.093 -14.552 -24.623  0.00  0.00    +0.008 C 
ATOM     22  C   UNL     1      34.126 -14.610 -22.440  0.00  0.00    +0.008 C 
ATOM     23  C   UNL     1      33.088 -12.576 -23.233  0.00  0.00    +0.084 C 
ATOM     24  C   UNL     1      32.746 -13.216 -24.423  0.00  0.00    +0.019 C 
ATOM     25  C   UNL     1      33.779 -13.273 -22.240  0.00  0.00    +0.019 C 
BRANCH  23  26
ATOM     26  N   UNL     1      32.742 -11.237 -23.033  0.00  0.00    -0.214 NA
BRANCH  26  29
ATOM     27  N   UNL     1      31.360  -9.650 -22.019  0.00  0.00    -0.370 N 
ATOM     28  N   UNL     1      30.891 -11.846 -21.613  0.00  0.00    -0.370 N 
ATOM     29  C   UNL     1      31.718 -10.955 -22.263  0.00  0.00    +0.193 C 
ATOM     30  H   UNL     1      31.872  -8.914 -22.426  0.00  0.00    +0.159 HD
ATOM     31  H   UNL     1      30.589  -9.450 -21.439  0.00  0.00    +0.159 HD
ATOM     32  H   UNL     1      31.042 -12.814 -21.706  0.00  0.00    +0.159 HD
ATOM     33  H   UNL     1      30.149 -11.514 -21.058  0.00  0.00    +0.159 HD
ENDBRANCH  26  29
ENDBRANCH  23  26
ENDBRANCH  19  20
ENDBRANCH   1  19
TORSDOF 6
ENDMDL
