MODEL 1
REMARK VINA RESULT:     -11.8      0.000      0.000
REMARK  Name = 2793
REMARK  6 active torsions:
REMARK  status: ('A' for Active; 'I' for Inactive)
REMARK    1  A    between atoms: N_1  and  C_20
REMARK    2  A    between atoms: C_2  and  N_8
REMARK    3  A    between atoms: C_2  and  C_17
REMARK    4  A    between atoms: C_20  and  C_21
REMARK    5  A    between atoms: C_21  and  C_22
REMARK    6  A    between atoms: C_22  and  N_24
REMARK                            x       y       z     vdW  Elec       q    Type
REMARK                         _______ _______ _______ _____ _____    ______ ____
ROOT
ATOM      1  N   UNL     1      34.502 -20.244 -19.584  0.00  0.00    +0.387 N 
ATOM      2  C   UNL     1      34.794 -18.057 -21.525  0.00  0.00    +0.024 C 
ATOM      3  C   UNL     1      33.431 -18.500 -20.981  0.00  0.00    -0.033 C 
ATOM      4  C   UNL     1      35.914 -18.455 -20.554  0.00  0.00    -0.033 C 
ATOM      5  C   UNL     1      33.434 -19.973 -20.556  0.00  0.00    -0.079 C 
ATOM      6  C   UNL     1      35.822 -19.930 -20.145  0.00  0.00    -0.079 C 
ATOM      7  H   UNL     1      34.351 -19.640 -18.776  0.00  0.00    -0.080 HD
ENDROOT
BRANCH   2   8
ATOM      8  N   UNL     1      34.802 -16.607 -21.723  0.00  0.00    +0.395 N 
ATOM      9  C   UNL     1      34.020 -15.940 -20.672  0.00  0.00    -0.077 C 
ATOM     10  C   UNL     1      34.295 -16.268 -23.060  0.00  0.00    -0.077 C 
ATOM     11  C   UNL     1      34.059 -14.419 -20.836  0.00  0.00    -0.023 C 
ATOM     12  C   UNL     1      34.343 -14.759 -23.302  0.00  0.00    -0.023 C 
ATOM     13  C   UNL     1      33.581 -13.998 -22.222  0.00  0.00    -0.004 C 
ATOM     14  H   UNL     1      35.764 -16.274 -21.657  0.00  0.00    -0.079 HD
ENDBRANCH   2   8
BRANCH   2  17
ATOM     15  O   UNL     1      36.174 -18.851 -23.318  0.00  0.00    -0.277 OA
ATOM     16  N   UNL     1      33.890 -18.912 -23.595  0.00  0.00    -0.330 N 
ATOM     17  C   UNL     1      35.040 -18.648 -22.889  0.00  0.00    +0.201 C 
ATOM     18  H   UNL     1      33.945 -19.300 -24.498  0.00  0.00    +0.145 HD
ATOM     19  H   UNL     1      33.012 -18.712 -23.198  0.00  0.00    +0.145 HD
ENDBRANCH   2  17
BRANCH   1  20
ATOM     20  C   UNL     1      34.451 -21.638 -19.143  0.00  0.00    -0.076 C 
BRANCH  20  21
ATOM     21  C   UNL     1      33.128 -21.973 -18.450  0.00  0.00    -0.001 C 
BRANCH  21  22
ATOM     22  C   UNL     1      33.133 -23.290 -17.673  0.00  0.00    +0.093 C 
BRANCH  22  24
ATOM     23 CL   UNL     1      37.668 -20.873 -16.213  0.00  0.00    -0.082 Cl
ATOM     24  N   UNL     1      32.987 -23.043 -16.230  0.00  0.00    -0.287 N 
ATOM     25  C   UNL     1      34.220 -22.850 -15.554  0.00  0.00    +0.048 C 
ATOM     26  C   UNL     1      31.671 -22.882 -15.718  0.00  0.00    +0.048 C 
ATOM     27  C   UNL     1      34.481 -23.450 -14.311  0.00  0.00    -0.008 C 
ATOM     28  C   UNL     1      31.320 -23.041 -14.355  0.00  0.00    -0.008 C 
ATOM     29  C   UNL     1      33.446 -24.319 -13.657  0.00  0.00    +0.032 C 
ATOM     30  C   UNL     1      32.251 -23.476 -13.243  0.00  0.00    +0.032 C 
ATOM     31  C   UNL     1      35.235 -22.051 -16.122  0.00  0.00    +0.026 C 
ATOM     32  C   UNL     1      30.624 -22.491 -16.597  0.00  0.00    +0.015 C 
ATOM     33  C   UNL     1      35.718 -23.251 -13.672  0.00  0.00    -0.002 C 
ATOM     34  C   UNL     1      29.992 -22.779 -13.935  0.00  0.00    -0.003 C 
ATOM     35  C   UNL     1      36.460 -21.855 -15.481  0.00  0.00    +0.059 C 
ATOM     36  C   UNL     1      29.316 -22.257 -16.167  0.00  0.00    +0.001 C 
ATOM     37  C   UNL     1      36.703 -22.458 -14.255  0.00  0.00    +0.011 C 
ATOM     38  C   UNL     1      28.999 -22.397 -14.829  0.00  0.00    -0.000 C 
ENDBRANCH  22  24
ENDBRANCH  21  22
ENDBRANCH  20  21
ENDBRANCH   1  20
TORSDOF 6
ENDMDL
MODEL 2
REMARK VINA RESULT:     -10.6      1.909      4.276
REMARK  Name = 2793
REMARK  6 active torsions:
REMARK  status: ('A' for Active; 'I' for Inactive)
REMARK    1  A    between atoms: N_1  and  C_20
REMARK    2  A    between atoms: C_2  and  N_8
REMARK    3  A    between atoms: C_2  and  C_17
REMARK    4  A    between atoms: C_20  and  C_21
REMARK    5  A    between atoms: C_21  and  C_22
REMARK    6  A    between atoms: C_22  and  N_24
REMARK                            x       y       z     vdW  Elec       q    Type
REMARK                         _______ _______ _______ _____ _____    ______ ____
ROOT
ATOM      1  N   UNL     1      35.538 -20.069 -19.262  0.00  0.00    +0.387 N 
ATOM      2  C   UNL     1      34.695 -18.280 -21.435  0.00  0.00    +0.024 C 
ATOM      3  C   UNL     1      33.703 -19.139 -20.643  0.00  0.00    -0.033 C 
ATOM      4  C   UNL     1      35.971 -18.041 -20.617  0.00  0.00    -0.033 C 
ATOM      5  C   UNL     1      34.362 -20.403 -20.076  0.00  0.00    -0.079 C 
ATOM      6  C   UNL     1      36.543 -19.347 -20.053  0.00  0.00    -0.079 C 
ATOM      7  H   UNL     1      35.233 -19.457 -18.505  0.00  0.00    -0.080 HD
ENDROOT
BRANCH   2   8
ATOM      8  N   UNL     1      34.078 -16.998 -21.777  0.00  0.00    +0.395 N 
ATOM      9  C   UNL     1      34.563 -16.525 -23.082  0.00  0.00    -0.077 C 
ATOM     10  C   UNL     1      34.335 -16.006 -20.724  0.00  0.00    -0.077 C 
ATOM     11  C   UNL     1      33.891 -15.210 -23.478  0.00  0.00    -0.023 C 
ATOM     12  C   UNL     1      33.656 -14.674 -21.042  0.00  0.00    -0.023 C 
ATOM     13  C   UNL     1      34.085 -14.143 -22.406  0.00  0.00    -0.004 C 
ATOM     14  H   UNL     1      33.069 -17.129 -21.847  0.00  0.00    -0.079 HD
ENDBRANCH   2   8
BRANCH   2  17
ATOM     15  O   UNL     1      36.182 -19.070 -23.143  0.00  0.00    -0.277 OA
ATOM     16  N   UNL     1      33.919 -19.324 -23.471  0.00  0.00    -0.330 N 
ATOM     17  C   UNL     1      35.024 -18.930 -22.755  0.00  0.00    +0.201 C 
ATOM     18  H   UNL     1      34.029 -19.759 -24.347  0.00  0.00    +0.145 HD
ATOM     19  H   UNL     1      33.017 -19.169 -23.108  0.00  0.00    +0.145 HD
ENDBRANCH   2  17
BRANCH   1  20
ATOM     20  C   UNL     1      36.118 -21.279 -18.680  0.00  0.00    -0.076 C 
BRANCH  20  21
ATOM     21  C   UNL     1      35.473 -21.637 -17.338  0.00  0.00    -0.001 C 
BRANCH  21  22
ATOM     22  C   UNL     1      36.411 -21.536 -16.135  0.00  0.00    +0.093 C 
BRANCH  22  24
ATOM     23 CL   UNL     1      31.308 -22.891 -16.952  0.00  0.00    -0.082 Cl
ATOM     24  N   UNL     1      36.145 -22.619 -15.175  0.00  0.00    -0.287 N 
ATOM     25  C   UNL     1      34.768 -22.804 -14.888  0.00  0.00    +0.048 C 
ATOM     26  C   UNL     1      37.243 -23.427 -14.772  0.00  0.00    +0.048 C 
ATOM     27  C   UNL     1      34.310 -23.014 -13.577  0.00  0.00    -0.008 C 
ATOM     28  C   UNL     1      37.261 -24.218 -13.597  0.00  0.00    -0.008 C 
ATOM     29  C   UNL     1      35.281 -23.051 -12.432  0.00  0.00    +0.032 C 
ATOM     30  C   UNL     1      36.170 -24.278 -12.549  0.00  0.00    +0.032 C 
ATOM     31  C   UNL     1      33.806 -22.771 -15.921  0.00  0.00    +0.026 C 
ATOM     32  C   UNL     1      38.393 -23.505 -15.604  0.00  0.00    +0.015 C 
ATOM     33  C   UNL     1      32.937 -23.181 -13.322  0.00  0.00    -0.002 C 
ATOM     34  C   UNL     1      38.376 -25.051 -13.328  0.00  0.00    -0.003 C 
ATOM     35  C   UNL     1      32.445 -22.940 -15.661  0.00  0.00    +0.059 C 
ATOM     36  C   UNL     1      39.491 -24.317 -15.311  0.00  0.00    +0.001 C 
ATOM     37  C   UNL     1      32.009 -23.144 -14.359  0.00  0.00    +0.011 C 
ATOM     38  C   UNL     1      39.480 -25.098 -14.170  0.00  0.00    -0.000 C 
ENDBRANCH  22  24
ENDBRANCH  21  22
ENDBRANCH  20  21
ENDBRANCH   1  20
TORSDOF 6
ENDMDL
MODEL 3
REMARK VINA RESULT:      -9.6      8.483     15.724
REMARK  Name = 2793
REMARK  6 active torsions:
REMARK  status: ('A' for Active; 'I' for Inactive)
REMARK    1  A    between atoms: N_1  and  C_20
REMARK    2  A    between atoms: C_2  and  N_8
REMARK    3  A    between atoms: C_2  and  C_17
REMARK    4  A    between atoms: C_20  and  C_21
REMARK    5  A    between atoms: C_21  and  C_22
REMARK    6  A    between atoms: C_22  and  N_24
REMARK                            x       y       z     vdW  Elec       q    Type
REMARK                         _______ _______ _______ _____ _____    ______ ____
ROOT
ATOM      1  N   UNL     1      32.003 -10.028 -23.128  0.00  0.00    +0.387 N 
ATOM      2  C   UNL     1      32.750 -12.799 -22.498  0.00  0.00    +0.024 C 
ATOM      3  C   UNL     1      31.292 -12.357 -22.668  0.00  0.00    -0.033 C 
ATOM      4  C   UNL     1      33.692 -11.837 -23.232  0.00  0.00    -0.033 C 
ATOM      5  C   UNL     1      31.100 -10.873 -22.334  0.00  0.00    -0.079 C 
ATOM      6  C   UNL     1      33.408 -10.373 -22.876  0.00  0.00    -0.079 C 
ATOM      7  H   UNL     1      31.808 -10.200 -24.114  0.00  0.00    -0.080 HD
ENDROOT
BRANCH   2   8
ATOM      8  N   UNL     1      32.921 -14.155 -23.019  0.00  0.00    +0.395 N 
ATOM      9  C   UNL     1      34.122 -14.780 -22.446  0.00  0.00    -0.077 C 
ATOM     10  C   UNL     1      32.982 -14.138 -24.488  0.00  0.00    -0.077 C 
ATOM     11  C   UNL     1      34.289 -16.217 -22.943  0.00  0.00    -0.023 C 
ATOM     12  C   UNL     1      33.111 -15.553 -25.052  0.00  0.00    -0.023 C 
ATOM     13  C   UNL     1      34.319 -16.276 -24.467  0.00  0.00    -0.004 C 
ATOM     14  H   UNL     1      32.114 -14.716 -22.744  0.00  0.00    -0.079 HD
ENDBRANCH   2   8
BRANCH   2  17
ATOM     15  O   UNL     1      34.243 -12.631 -20.629  0.00  0.00    -0.277 OA
ATOM     16  N   UNL     1      32.073 -13.285 -20.230  0.00  0.00    -0.330 N 
ATOM     17  C   UNL     1      33.112 -12.885 -21.037  0.00  0.00    +0.201 C 
ATOM     18  H   UNL     1      32.209 -13.371 -19.259  0.00  0.00    +0.145 HD
ATOM     19  H   UNL     1      31.194 -13.486 -20.624  0.00  0.00    +0.145 HD
ENDBRANCH   2  17
BRANCH   1  20
ATOM     20  C   UNL     1      31.764  -8.613 -22.843  0.00  0.00    -0.076 C 
BRANCH  20  21
ATOM     21  C   UNL     1      31.988  -7.733 -24.075  0.00  0.00    -0.001 C 
BRANCH  21  22
ATOM     22  C   UNL     1      33.237  -6.853 -24.008  0.00  0.00    +0.093 C 
BRANCH  22  24
ATOM     23 CL   UNL     1      31.890  -5.930 -18.921  0.00  0.00    -0.082 Cl
ATOM     24  N   UNL     1      32.868  -5.430 -23.963  0.00  0.00    -0.287 N 
ATOM     25  C   UNL     1      32.047  -5.085 -22.858  0.00  0.00    +0.048 C 
ATOM     26  C   UNL     1      33.475  -4.561 -24.910  0.00  0.00    +0.048 C 
ATOM     27  C   UNL     1      30.935  -4.240 -23.001  0.00  0.00    -0.008 C 
ATOM     28  C   UNL     1      32.960  -3.293 -25.274  0.00  0.00    -0.008 C 
ATOM     29  C   UNL     1      30.585  -3.669 -24.346  0.00  0.00    +0.032 C 
ATOM     30  C   UNL     1      31.660  -2.688 -24.785  0.00  0.00    +0.032 C 
ATOM     31  C   UNL     1      32.320  -5.597 -21.571  0.00  0.00    +0.026 C 
ATOM     32  C   UNL     1      34.704  -4.939 -25.515  0.00  0.00    +0.015 C 
ATOM     33  C   UNL     1      30.132  -3.927 -21.890  0.00  0.00    -0.002 C 
ATOM     34  C   UNL     1      33.686  -2.470 -26.171  0.00  0.00    -0.003 C 
ATOM     35  C   UNL     1      31.520  -5.281 -20.471  0.00  0.00    +0.059 C 
ATOM     36  C   UNL     1      35.395  -4.122 -26.413  0.00  0.00    +0.001 C 
ATOM     37  C   UNL     1      30.423  -4.446 -20.631  0.00  0.00    +0.011 C 
ATOM     38  C   UNL     1      34.886  -2.879 -26.739  0.00  0.00    -0.000 C 
ENDBRANCH  22  24
ENDBRANCH  21  22
ENDBRANCH  20  21
ENDBRANCH   1  20
TORSDOF 6
ENDMDL
MODEL 4
REMARK VINA RESULT:      -9.6      2.151      3.904
REMARK  Name = 2793
REMARK  6 active torsions:
REMARK  status: ('A' for Active; 'I' for Inactive)
REMARK    1  A    between atoms: N_1  and  C_20
REMARK    2  A    between atoms: C_2  and  N_8
REMARK    3  A    between atoms: C_2  and  C_17
REMARK    4  A    between atoms: C_20  and  C_21
REMARK    5  A    between atoms: C_21  and  C_22
REMARK    6  A    between atoms: C_22  and  N_24
REMARK                            x       y       z     vdW  Elec       q    Type
REMARK                         _______ _______ _______ _____ _____    ______ ____
ROOT
ATOM      1  N   UNL     1      34.428 -20.397 -19.426  0.00  0.00    +0.387 N 
ATOM      2  C   UNL     1      34.869 -18.202 -21.331  0.00  0.00    +0.024 C 
ATOM      3  C   UNL     1      33.468 -18.703 -20.959  0.00  0.00    -0.033 C 
ATOM      4  C   UNL     1      35.874 -18.551 -20.225  0.00  0.00    -0.033 C 
ATOM      5  C   UNL     1      33.480 -20.174 -20.526  0.00  0.00    -0.079 C 
ATOM      6  C   UNL     1      35.793 -20.028 -19.821  0.00  0.00    -0.079 C 
ATOM      7  H   UNL     1      34.152 -19.799 -18.648  0.00  0.00    -0.080 HD
ENDROOT
BRANCH   2   8
ATOM      8  N   UNL     1      34.840 -16.754 -21.536  0.00  0.00    +0.395 N 
ATOM      9  C   UNL     1      34.008 -16.105 -20.513  0.00  0.00    -0.077 C 
ATOM     10  C   UNL     1      34.364 -16.436 -22.890  0.00  0.00    -0.077 C 
ATOM     11  C   UNL     1      34.009 -14.585 -20.684  0.00  0.00    -0.023 C 
ATOM     12  C   UNL     1      34.376 -14.927 -23.138  0.00  0.00    -0.023 C 
ATOM     13  C   UNL     1      33.560 -14.184 -22.086  0.00  0.00    -0.004 C 
ATOM     14  H   UNL     1      35.790 -16.392 -21.444  0.00  0.00    -0.079 HD
ENDBRANCH   2   8
BRANCH   2  17
ATOM     15  O   UNL     1      34.530 -19.375 -23.395  0.00  0.00    -0.277 OA
ATOM     16  N   UNL     1      36.645 -18.605 -22.917  0.00  0.00    -0.330 N 
ATOM     17  C   UNL     1      35.309 -18.785 -22.650  0.00  0.00    +0.201 C 
ATOM     18  H   UNL     1      37.030 -18.949 -23.755  0.00  0.00    +0.145 HD
ATOM     19  H   UNL     1      37.217 -18.134 -22.270  0.00  0.00    +0.145 HD
ENDBRANCH   2  17
BRANCH   1  20
ATOM     20  C   UNL     1      34.381 -21.791 -18.986  0.00  0.00    -0.076 C 
BRANCH  20  21
ATOM     21  C   UNL     1      33.882 -21.920 -17.544  0.00  0.00    -0.001 C 
BRANCH  21  22
ATOM     22  C   UNL     1      32.868 -23.043 -17.321  0.00  0.00    +0.093 C 
BRANCH  22  24
ATOM     23 CL   UNL     1      27.629 -24.061 -17.078  0.00  0.00    -0.082 Cl
ATOM     24  N   UNL     1      32.576 -23.203 -15.888  0.00  0.00    -0.287 N 
ATOM     25  C   UNL     1      31.210 -23.011 -15.557  0.00  0.00    +0.048 C 
ATOM     26  C   UNL     1      33.627 -23.662 -15.048  0.00  0.00    +0.048 C 
ATOM     27  C   UNL     1      30.821 -22.267 -14.431  0.00  0.00    -0.008 C 
ATOM     28  C   UNL     1      33.656 -23.493 -13.642  0.00  0.00    -0.008 C 
ATOM     29  C   UNL     1      31.858 -21.650 -13.536  0.00  0.00    +0.032 C 
ATOM     30  C   UNL     1      32.633 -22.742 -12.816  0.00  0.00    +0.032 C 
ATOM     31  C   UNL     1      30.189 -23.559 -16.364  0.00  0.00    +0.026 C 
ATOM     32  C   UNL     1      34.711 -24.383 -15.620  0.00  0.00    +0.015 C 
ATOM     33  C   UNL     1      29.459 -22.083 -14.136  0.00  0.00    -0.002 C 
ATOM     34  C   UNL     1      34.714 -24.060 -12.888  0.00  0.00    -0.003 C 
ATOM     35  C   UNL     1      28.838 -23.375 -16.065  0.00  0.00    +0.059 C 
ATOM     36  C   UNL     1      35.755 -24.917 -14.860  0.00  0.00    +0.001 C 
ATOM     37  C   UNL     1      28.472 -22.634 -14.949  0.00  0.00    +0.011 C 
ATOM     38  C   UNL     1      35.754 -24.759 -13.488  0.00  0.00    -0.000 C 
ENDBRANCH  22  24
ENDBRANCH  21  22
ENDBRANCH  20  21
ENDBRANCH   1  20
TORSDOF 6
ENDMDL
MODEL 5
REMARK VINA RESULT:      -9.5      4.393      8.051
REMARK  Name = 2793
REMARK  6 active torsions:
REMARK  status: ('A' for Active; 'I' for Inactive)
REMARK    1  A    between atoms: N_1  and  C_20
REMARK    2  A    between atoms: C_2  and  N_8
REMARK    3  A    between atoms: C_2  and  C_17
REMARK    4  A    between atoms: C_20  and  C_21
REMARK    5  A    between atoms: C_21  and  C_22
REMARK    6  A    between atoms: C_22  and  N_24
REMARK                            x       y       z     vdW  Elec       q    Type
REMARK                         _______ _______ _______ _____ _____    ______ ____
ROOT
ATOM      1  N   UNL     1      31.321 -22.668 -13.456  0.00  0.00    +0.387 N 
ATOM      2  C   UNL     1      28.868 -23.528 -14.826  0.00  0.00    +0.024 C 
ATOM      3  C   UNL     1      28.872 -23.036 -13.374  0.00  0.00    -0.033 C 
ATOM      4  C   UNL     1      30.088 -22.984 -15.580  0.00  0.00    -0.033 C 
ATOM      5  C   UNL     1      30.224 -23.275 -12.691  0.00  0.00    -0.079 C 
ATOM      6  C   UNL     1      31.393 -23.226 -14.812  0.00  0.00    -0.079 C 
ATOM      7  H   UNL     1      31.134 -21.669 -13.535  0.00  0.00    -0.080 HD
ENDROOT
BRANCH   2   8
ATOM      8  N   UNL     1      27.639 -23.097 -15.493  0.00  0.00    +0.395 N 
ATOM      9  C   UNL     1      27.904 -22.779 -16.903  0.00  0.00    -0.077 C 
ATOM     10  C   UNL     1      27.049 -21.948 -14.791  0.00  0.00    -0.077 C 
ATOM     11  C   UNL     1      26.619 -22.374 -17.629  0.00  0.00    -0.023 C 
ATOM     12  C   UNL     1      25.737 -21.516 -15.447  0.00  0.00    -0.023 C 
ATOM     13  C   UNL     1      25.931 -21.207 -16.927  0.00  0.00    -0.004 C 
ATOM     14  H   UNL     1      26.965 -23.863 -15.465  0.00  0.00    -0.079 HD
ENDBRANCH   2   8
BRANCH   2  17
ATOM     15  O   UNL     1      29.453 -25.670 -15.732  0.00  0.00    -0.277 OA
ATOM     16  N   UNL     1      28.066 -25.609 -13.897  0.00  0.00    -0.330 N 
ATOM     17  C   UNL     1      28.841 -25.035 -14.876  0.00  0.00    +0.201 C 
ATOM     18  H   UNL     1      27.984 -26.589 -13.845  0.00  0.00    +0.145 HD
ATOM     19  H   UNL     1      27.591 -25.041 -13.249  0.00  0.00    +0.145 HD
ENDBRANCH   2  17
BRANCH   1  20
ATOM     20  C   UNL     1      32.594 -22.853 -12.759  0.00  0.00    -0.076 C 
BRANCH  20  21
ATOM     21  C   UNL     1      33.793 -22.628 -13.684  0.00  0.00    -0.001 C 
BRANCH  21  22
ATOM     22  C   UNL     1      33.665 -23.281 -15.060  0.00  0.00    +0.093 C 
BRANCH  22  24
ATOM     23 CL   UNL     1      37.450 -26.897 -13.995  0.00  0.00    -0.082 Cl
ATOM     24  N   UNL     1      34.800 -22.910 -15.920  0.00  0.00    -0.287 N 
ATOM     25  C   UNL     1      36.046 -23.423 -15.475  0.00  0.00    +0.048 C 
ATOM     26  C   UNL     1      34.513 -22.232 -17.136  0.00  0.00    +0.048 C 
ATOM     27  C   UNL     1      37.208 -22.633 -15.470  0.00  0.00    -0.008 C 
ATOM     28  C   UNL     1      35.455 -21.464 -17.862  0.00  0.00    -0.008 C 
ATOM     29  C   UNL     1      37.159 -21.210 -15.946  0.00  0.00    +0.032 C 
ATOM     30  C   UNL     1      36.880 -21.174 -17.439  0.00  0.00    +0.032 C 
ATOM     31  C   UNL     1      36.154 -24.750 -15.008  0.00  0.00    +0.026 C 
ATOM     32  C   UNL     1      33.218 -22.351 -17.711  0.00  0.00    +0.015 C 
ATOM     33  C   UNL     1      38.426 -23.165 -15.011  0.00  0.00    -0.002 C 
ATOM     34  C   UNL     1      35.088 -20.894 -19.107  0.00  0.00    -0.003 C 
ATOM     35  C   UNL     1      37.367 -25.273 -14.556  0.00  0.00    +0.059 C 
ATOM     36  C   UNL     1      32.869 -21.764 -18.929  0.00  0.00    +0.001 C 
ATOM     37  C   UNL     1      38.505 -24.479 -14.555  0.00  0.00    +0.011 C 
ATOM     38  C   UNL     1      33.810 -21.036 -19.633  0.00  0.00    -0.000 C 
ENDBRANCH  22  24
ENDBRANCH  21  22
ENDBRANCH  20  21
ENDBRANCH   1  20
TORSDOF 6
ENDMDL
MODEL 6
REMARK VINA RESULT:      -9.4     10.903     15.478
REMARK  Name = 2793
REMARK  6 active torsions:
REMARK  status: ('A' for Active; 'I' for Inactive)
REMARK    1  A    between atoms: N_1  and  C_20
REMARK    2  A    between atoms: C_2  and  N_8
REMARK    3  A    between atoms: C_2  and  C_17
REMARK    4  A    between atoms: C_20  and  C_21
REMARK    5  A    between atoms: C_21  and  C_22
REMARK    6  A    between atoms: C_22  and  N_24
REMARK                            x       y       z     vdW  Elec       q    Type
REMARK                         _______ _______ _______ _____ _____    ______ ____
ROOT
ATOM      1  N   UNL     1      32.485  -5.910 -25.815  0.00  0.00    +0.387 N 
ATOM      2  C   UNL     1      34.157  -4.018 -27.318  0.00  0.00    +0.024 C 
ATOM      3  C   UNL     1      34.106  -4.037 -25.786  0.00  0.00    -0.033 C 
ATOM      4  C   UNL     1      33.737  -5.381 -27.885  0.00  0.00    -0.033 C 
ATOM      5  C   UNL     1      32.771  -4.579 -25.262  0.00  0.00    -0.079 C 
ATOM      6  C   UNL     1      32.416  -5.871 -27.281  0.00  0.00    -0.079 C 
ATOM      7  H   UNL     1      33.249  -6.531 -25.551  0.00  0.00    -0.080 HD
ENDROOT
BRANCH   2   8
ATOM      8  N   UNL     1      35.510  -3.691 -27.766  0.00  0.00    +0.395 N 
ATOM      9  C   UNL     1      35.959  -4.646 -28.789  0.00  0.00    -0.077 C 
ATOM     10  C   UNL     1      36.437  -3.660 -26.625  0.00  0.00    -0.077 C 
ATOM     11  C   UNL     1      37.354  -4.288 -29.305  0.00  0.00    -0.023 C 
ATOM     12  C   UNL     1      37.847  -3.270 -27.070  0.00  0.00    -0.023 C 
ATOM     13  C   UNL     1      38.362  -4.200 -28.163  0.00  0.00    -0.004 C 
ATOM     14  H   UNL     1      35.500  -2.762 -28.187  0.00  0.00    -0.079 HD
ENDBRANCH   2   8
BRANCH   2  17
ATOM     15  O   UNL     1      32.655  -3.050 -28.917  0.00  0.00    -0.277 OA
ATOM     16  N   UNL     1      33.264  -1.786 -27.093  0.00  0.00    -0.330 N 
ATOM     17  C   UNL     1      33.279  -2.922 -27.866  0.00  0.00    +0.201 C 
ATOM     18  H   UNL     1      32.719  -1.012 -27.366  0.00  0.00    +0.145 HD
ATOM     19  H   UNL     1      33.798  -1.744 -26.268  0.00  0.00    +0.145 HD
ENDBRANCH   2  17
BRANCH   1  20
ATOM     20  C   UNL     1      31.239  -6.438 -25.257  0.00  0.00    -0.076 C 
BRANCH  20  21
ATOM     21  C   UNL     1      31.450  -7.781 -24.553  0.00  0.00    -0.001 C 
BRANCH  21  22
ATOM     22  C   UNL     1      30.424  -8.094 -23.463  0.00  0.00    +0.093 C 
BRANCH  22  24
ATOM     23 CL   UNL     1      33.032 -12.690 -24.248  0.00  0.00    -0.082 Cl
ATOM     24  N   UNL     1      31.094  -8.377 -22.184  0.00  0.00    -0.287 N 
ATOM     25  C   UNL     1      31.443  -9.741 -22.009  0.00  0.00    +0.048 C 
ATOM     26  C   UNL     1      31.439  -7.270 -21.361  0.00  0.00    +0.048 C 
ATOM     27  C   UNL     1      31.234 -10.406 -20.789  0.00  0.00    -0.008 C 
ATOM     28  C   UNL     1      31.704  -7.360 -19.972  0.00  0.00    -0.008 C 
ATOM     29  C   UNL     1      30.630  -9.677 -19.624  0.00  0.00    +0.032 C 
ATOM     30  C   UNL     1      31.593  -8.612 -19.126  0.00  0.00    +0.032 C 
ATOM     31  C   UNL     1      32.007 -10.482 -23.071  0.00  0.00    +0.026 C 
ATOM     32  C   UNL     1      31.581  -5.983 -21.948  0.00  0.00    +0.015 C 
ATOM     33  C   UNL     1      31.578 -11.762 -20.651  0.00  0.00    -0.002 C 
ATOM     34  C   UNL     1      32.117  -6.208 -19.259  0.00  0.00    -0.003 C 
ATOM     35  C   UNL     1      32.349 -11.827 -22.926  0.00  0.00    +0.059 C 
ATOM     36  C   UNL     1      31.970  -4.854 -21.223  0.00  0.00    +0.001 C 
ATOM     37  C   UNL     1      32.132 -12.470 -21.714  0.00  0.00    +0.011 C 
ATOM     38  C   UNL     1      32.245  -4.968 -19.874  0.00  0.00    -0.000 C 
ENDBRANCH  22  24
ENDBRANCH  21  22
ENDBRANCH  20  21
ENDBRANCH   1  20
TORSDOF 6
ENDMDL
MODEL 7
REMARK VINA RESULT:      -8.9      2.173      4.539
REMARK  Name = 2793
REMARK  6 active torsions:
REMARK  status: ('A' for Active; 'I' for Inactive)
REMARK    1  A    between atoms: N_1  and  C_20
REMARK    2  A    between atoms: C_2  and  N_8
REMARK    3  A    between atoms: C_2  and  C_17
REMARK    4  A    between atoms: C_20  and  C_21
REMARK    5  A    between atoms: C_21  and  C_22
REMARK    6  A    between atoms: C_22  and  N_24
REMARK                            x       y       z     vdW  Elec       q    Type
REMARK                         _______ _______ _______ _____ _____    ______ ____
ROOT
ATOM      1  N   UNL     1      34.383 -21.282 -19.459  0.00  0.00    +0.387 N 
ATOM      2  C   UNL     1      34.789 -19.066 -21.345  0.00  0.00    +0.024 C 
ATOM      3  C   UNL     1      35.647 -20.335 -21.368  0.00  0.00    -0.033 C 
ATOM      4  C   UNL     1      33.436 -19.345 -20.677  0.00  0.00    -0.033 C 
ATOM      5  C   UNL     1      35.724 -21.002 -19.989  0.00  0.00    -0.079 C 
ATOM      6  C   UNL     1      33.598 -20.049 -19.324  0.00  0.00    -0.079 C 
ATOM      7  H   UNL     1      33.904 -21.891 -20.122  0.00  0.00    -0.080 HD
ENDROOT
BRANCH   2   8
ATOM      8  N   UNL     1      34.577 -18.584 -22.710  0.00  0.00    +0.395 N 
ATOM      9  C   UNL     1      34.553 -17.115 -22.739  0.00  0.00    -0.077 C 
ATOM     10  C   UNL     1      33.340 -19.147 -23.268  0.00  0.00    -0.077 C 
ATOM     11  C   UNL     1      34.383 -16.594 -24.167  0.00  0.00    -0.023 C 
ATOM     12  C   UNL     1      33.130 -18.693 -24.713  0.00  0.00    -0.023 C 
ATOM     13  C   UNL     1      33.134 -17.172 -24.823  0.00  0.00    -0.004 C 
ATOM     14  H   UNL     1      35.355 -18.897 -23.291  0.00  0.00    -0.079 HD
ENDBRANCH   2   8
BRANCH   2  17
ATOM     15  O   UNL     1      34.948 -16.900 -20.327  0.00  0.00    -0.277 OA
ATOM     16  N   UNL     1      36.836 -18.214 -20.388  0.00  0.00    -0.330 N 
ATOM     17  C   UNL     1      35.510 -17.949 -20.634  0.00  0.00    +0.201 C 
ATOM     18  H   UNL     1      37.395 -17.547 -19.928  0.00  0.00    +0.145 HD
ATOM     19  H   UNL     1      37.228 -19.071 -20.673  0.00  0.00    +0.145 HD
ENDBRANCH   2  17
BRANCH   1  20
ATOM     20  C   UNL     1      34.476 -21.973 -18.172  0.00  0.00    -0.076 C 
BRANCH  20  21
ATOM     21  C   UNL     1      35.796 -21.677 -17.456  0.00  0.00    -0.001 C 
BRANCH  21  22
ATOM     22  C   UNL     1      35.645 -21.270 -15.990  0.00  0.00    +0.093 C 
BRANCH  22  24
ATOM     23 CL   UNL     1      30.655 -23.056 -16.658  0.00  0.00    -0.082 Cl
ATOM     24  N   UNL     1      35.546 -22.458 -15.127  0.00  0.00    -0.287 N 
ATOM     25  C   UNL     1      34.214 -22.807 -14.785  0.00  0.00    +0.048 C 
ATOM     26  C   UNL     1      36.739 -23.184 -14.865  0.00  0.00    +0.048 C 
ATOM     27  C   UNL     1      33.862 -23.182 -13.478  0.00  0.00    -0.008 C 
ATOM     28  C   UNL     1      36.909 -24.073 -13.775  0.00  0.00    -0.008 C 
ATOM     29  C   UNL     1      34.903 -23.226 -12.397  0.00  0.00    +0.032 C 
ATOM     30  C   UNL     1      35.896 -24.340 -12.681  0.00  0.00    +0.032 C 
ATOM     31  C   UNL     1      33.190 -22.777 -15.756  0.00  0.00    +0.026 C 
ATOM     32  C   UNL     1      37.837 -23.068 -15.761  0.00  0.00    +0.015 C 
ATOM     33  C   UNL     1      32.531 -23.511 -13.167  0.00  0.00    -0.002 C 
ATOM     34  C   UNL     1      38.113 -24.809 -13.650  0.00  0.00    -0.003 C 
ATOM     35  C   UNL     1      31.870 -23.107 -15.442  0.00  0.00    +0.059 C 
ATOM     36  C   UNL     1      39.024 -23.788 -15.608  0.00  0.00    +0.001 C 
ATOM     37  C   UNL     1      31.539 -23.473 -14.144  0.00  0.00    +0.011 C 
ATOM     38  C   UNL     1      39.161 -24.666 -14.551  0.00  0.00    -0.000 C 
ENDBRANCH  22  24
ENDBRANCH  21  22
ENDBRANCH  20  21
ENDBRANCH   1  20
TORSDOF 6
ENDMDL
MODEL 8
REMARK VINA RESULT:      -8.9      4.081     11.014
REMARK  Name = 2793
REMARK  6 active torsions:
REMARK  status: ('A' for Active; 'I' for Inactive)
REMARK    1  A    between atoms: N_1  and  C_20
REMARK    2  A    between atoms: C_2  and  N_8
REMARK    3  A    between atoms: C_2  and  C_17
REMARK    4  A    between atoms: C_20  and  C_21
REMARK    5  A    between atoms: C_21  and  C_22
REMARK    6  A    between atoms: C_22  and  N_24
REMARK                            x       y       z     vdW  Elec       q    Type
REMARK                         _______ _______ _______ _____ _____    ______ ____
ROOT
ATOM      1  N   UNL     1      33.686 -15.858 -23.525  0.00  0.00    +0.387 N 
ATOM      2  C   UNL     1      34.712 -18.086 -21.907  0.00  0.00    +0.024 C 
ATOM      3  C   UNL     1      34.799 -16.626 -21.449  0.00  0.00    -0.033 C 
ATOM      4  C   UNL     1      33.583 -18.260 -22.931  0.00  0.00    -0.033 C 
ATOM      5  C   UNL     1      34.836 -15.653 -22.633  0.00  0.00    -0.079 C 
ATOM      6  C   UNL     1      33.667 -17.225 -24.060  0.00  0.00    -0.079 C 
ATOM      7  H   UNL     1      32.836 -15.721 -22.978  0.00  0.00    -0.080 HD
ENDROOT
BRANCH   2   8
ATOM      8  N   UNL     1      34.473 -18.955 -20.754  0.00  0.00    +0.395 N 
ATOM      9  C   UNL     1      35.603 -19.874 -20.560  0.00  0.00    -0.077 C 
ATOM     10  C   UNL     1      33.211 -19.691 -20.917  0.00  0.00    -0.077 C 
ATOM     11  C   UNL     1      35.392 -20.756 -19.328  0.00  0.00    -0.023 C 
ATOM     12  C   UNL     1      32.922 -20.567 -19.698  0.00  0.00    -0.023 C 
ATOM     13  C   UNL     1      34.076 -21.522 -19.414  0.00  0.00    -0.004 C 
ATOM     14  H   UNL     1      34.393 -18.375 -19.918  0.00  0.00    -0.079 HD
ENDBRANCH   2   8
BRANCH   2  17
ATOM     15  O   UNL     1      36.089 -19.309 -23.442  0.00  0.00    -0.277 OA
ATOM     16  N   UNL     1      37.125 -18.032 -21.832  0.00  0.00    -0.330 N 
ATOM     17  C   UNL     1      36.028 -18.541 -22.484  0.00  0.00    +0.201 C 
ATOM     18  H   UNL     1      38.032 -18.270 -22.134  0.00  0.00    +0.145 HD
ATOM     19  H   UNL     1      37.005 -17.431 -21.062  0.00  0.00    +0.145 HD
ENDBRANCH   2  17
BRANCH   1  20
ATOM     20  C   UNL     1      33.704 -14.882 -24.615  0.00  0.00    -0.076 C 
BRANCH  20  21
ATOM     21  C   UNL     1      32.938 -13.606 -24.256  0.00  0.00    -0.001 C 
BRANCH  21  22
ATOM     22  C   UNL     1      33.778 -12.329 -24.294  0.00  0.00    +0.093 C 
BRANCH  22  24
ATOM     23 CL   UNL     1      33.471 -15.043 -19.702  0.00  0.00    -0.082 Cl
ATOM     24  N   UNL     1      33.288 -11.355 -23.306  0.00  0.00    -0.287 N 
ATOM     25  C   UNL     1      32.693 -11.948 -22.163  0.00  0.00    +0.048 C 
ATOM     26  C   UNL     1      33.587  -9.983 -23.528  0.00  0.00    +0.048 C 
ATOM     27  C   UNL     1      31.497 -11.456 -21.614  0.00  0.00    -0.008 C 
ATOM     28  C   UNL     1      32.882  -8.907 -22.936  0.00  0.00    -0.008 C 
ATOM     29  C   UNL     1      30.812 -10.271 -22.231  0.00  0.00    +0.032 C 
ATOM     30  C   UNL     1      31.664  -9.027 -22.043  0.00  0.00    +0.032 C 
ATOM     31  C   UNL     1      33.285 -13.070 -21.543  0.00  0.00    +0.026 C 
ATOM     32  C   UNL     1      34.689  -9.636 -24.356  0.00  0.00    +0.015 C 
ATOM     33  C   UNL     1      30.925 -12.074 -20.488  0.00  0.00    -0.002 C 
ATOM     34  C   UNL     1      33.312  -7.575 -23.161  0.00  0.00    -0.003 C 
ATOM     35  C   UNL     1      32.713 -13.677 -20.424  0.00  0.00    +0.059 C 
ATOM     36  C   UNL     1      35.085  -8.315 -24.582  0.00  0.00    +0.001 C 
ATOM     37  C   UNL     1      31.530 -13.179 -19.896  0.00  0.00    +0.011 C 
ATOM     38  C   UNL     1      34.397  -7.281 -23.978  0.00  0.00    -0.000 C 
ENDBRANCH  22  24
ENDBRANCH  21  22
ENDBRANCH  20  21
ENDBRANCH   1  20
TORSDOF 6
ENDMDL
