MODEL 1
REMARK VINA RESULT:     -11.1      0.000      0.000
REMARK  Name = 5311356
REMARK  5 active torsions:
REMARK  status: ('A' for Active; 'I' for Inactive)
REMARK    1  A    between atoms: C_12  and  O_21
REMARK    2  A    between atoms: C_18  and  O_23
REMARK    3  A    between atoms: O_23  and  C_24
REMARK    4  A    between atoms: C_24  and  C_25
REMARK    5  A    between atoms: C_25  and  N_27
REMARK                            x       y       z     vdW  Elec       q    Type
REMARK                         _______ _______ _______ _____ _____    ______ ____
ROOT
ATOM      1  O   UNL     1      31.264 -10.137 -22.565  0.00  0.00    -0.473 OA
ATOM      2  N   UNL     1      31.209  -4.901 -22.881  0.00  0.00    +0.387 N 
ATOM      3  C   UNL     1      31.110  -7.728 -22.234  0.00  0.00    +0.061 C 
ATOM      4  C   UNL     1      31.411  -6.649 -21.184  0.00  0.00    +0.010 C 
ATOM      5  C   UNL     1      32.169  -5.498 -21.922  0.00  0.00    -0.049 C 
ATOM      6  C   UNL     1      30.626  -9.109 -21.730  0.00  0.00    +0.200 C 
ATOM      7  C   UNL     1      30.195  -7.138 -23.325  0.00  0.00    -0.015 C 
ATOM      8  C   UNL     1      32.402  -8.177 -22.833  0.00  0.00    +0.014 C 
ATOM      9  C   UNL     1      33.523  -5.973 -22.554  0.00  0.00    +0.006 C 
ATOM     10  C   UNL     1      30.745  -5.829 -23.917  0.00  0.00    -0.077 C 
ATOM     11  C   UNL     1      33.518  -7.391 -23.058  0.00  0.00    -0.025 C 
ATOM     12  C   UNL     1      30.894  -9.371 -20.224  0.00  0.00    +0.172 C 
ATOM     13  C   UNL     1      32.141  -7.220 -19.994  0.00  0.00    -0.030 C 
ATOM     14  C   UNL     1      32.396  -9.537 -23.048  0.00  0.00    +0.168 C 
ATOM     15  C   UNL     1      31.913  -8.473 -19.575  0.00  0.00    +0.002 C 
ATOM     16  C   UNL     1      34.625  -8.010 -23.641  0.00  0.00    -0.001 C 
ATOM     17  C   UNL     1      31.673  -3.645 -23.462  0.00  0.00    -0.101 C 
ATOM     18  C   UNL     1      33.473 -10.168 -23.630  0.00  0.00    +0.172 C 
ATOM     19  C   UNL     1      34.591  -9.386 -23.943  0.00  0.00    +0.040 C 
ATOM     20  H   UNL     1      30.394  -4.680 -22.309  0.00  0.00    -0.080 HD
ENDROOT
BRANCH  12  21
ATOM     21  O   UNL     1      31.240 -10.739 -20.024  0.00  0.00    -0.377 OA
ATOM     22  H   UNL     1      31.213 -11.207 -20.874  0.00  0.00    +0.211 HD
ENDBRANCH  12  21
BRANCH  18  23
ATOM     23  O   UNL     1      33.472 -11.503 -23.863  0.00  0.00    -0.475 OA
BRANCH  23  24
ATOM     24  C   UNL     1      32.754 -12.328 -22.942  0.00  0.00    +0.183 C 
BRANCH  24  25
ATOM     25  C   UNL     1      33.753 -13.060 -22.061  0.00  0.00    -0.029 C 
BRANCH  25  27
ATOM     26  O   UNL     1      33.913 -16.973 -23.569  0.00  0.00    -0.358 OA
ATOM     27  N   UNL     1      34.229 -14.275 -22.719  0.00  0.00    +0.393 N 
ATOM     28  C   UNL     1      34.291 -15.393 -21.768  0.00  0.00    -0.044 C 
ATOM     29  C   UNL     1      33.363 -14.627 -23.853  0.00  0.00    -0.044 C 
ATOM     30  C   UNL     1      34.779 -16.652 -22.478  0.00  0.00    +0.119 C 
ATOM     31  C   UNL     1      33.871 -15.905 -24.515  0.00  0.00    +0.119 C 
ATOM     32  H   UNL     1      35.169 -14.093 -23.070  0.00  0.00    -0.079 HD
ENDBRANCH  25  27
ENDBRANCH  24  25
ENDBRANCH  23  24
ENDBRANCH  18  23
TORSDOF 5
ENDMDL
MODEL 2
REMARK VINA RESULT:      -9.3      1.346      1.851
REMARK  Name = 5311356
REMARK  5 active torsions:
REMARK  status: ('A' for Active; 'I' for Inactive)
REMARK    1  A    between atoms: C_12  and  O_21
REMARK    2  A    between atoms: C_18  and  O_23
REMARK    3  A    between atoms: O_23  and  C_24
REMARK    4  A    between atoms: C_24  and  C_25
REMARK    5  A    between atoms: C_25  and  N_27
REMARK                            x       y       z     vdW  Elec       q    Type
REMARK                         _______ _______ _______ _____ _____    ______ ____
ROOT
ATOM      1  O   UNL     1      30.712  -8.825 -21.665  0.00  0.00    -0.473 OA
ATOM      2  N   UNL     1      32.611  -4.857 -24.523  0.00  0.00    +0.387 N 
ATOM      3  C   UNL     1      31.609  -6.744 -22.558  0.00  0.00    +0.061 C 
ATOM      4  C   UNL     1      32.593  -5.620 -22.201  0.00  0.00    +0.010 C 
ATOM      5  C   UNL     1      33.494  -5.390 -23.457  0.00  0.00    -0.049 C 
ATOM      6  C   UNL     1      30.792  -7.379 -21.408  0.00  0.00    +0.200 C 
ATOM      7  C   UNL     1      30.726  -6.293 -23.739  0.00  0.00    -0.015 C 
ATOM      8  C   UNL     1      32.395  -7.956 -22.937  0.00  0.00    +0.014 C 
ATOM      9  C   UNL     1      34.315  -6.664 -23.855  0.00  0.00    +0.006 C 
ATOM     10  C   UNL     1      31.548  -5.781 -24.933  0.00  0.00    -0.077 C 
ATOM     11  C   UNL     1      33.615  -7.970 -23.591  0.00  0.00    -0.025 C 
ATOM     12  C   UNL     1      31.355  -7.097 -19.990  0.00  0.00    +0.172 C 
ATOM     13  C   UNL     1      33.349  -5.927 -20.933  0.00  0.00    -0.030 C 
ATOM     14  C   UNL     1      31.800  -9.097 -22.451  0.00  0.00    +0.168 C 
ATOM     15  C   UNL     1      32.782  -6.621 -19.935  0.00  0.00    +0.002 C 
ATOM     16  C   UNL     1      34.177  -9.219 -23.860  0.00  0.00    -0.001 C 
ATOM     17  C   UNL     1      33.341  -4.341 -25.677  0.00  0.00    -0.101 C 
ATOM     18  C   UNL     1      32.331 -10.341 -22.712  0.00  0.00    +0.172 C 
ATOM     19  C   UNL     1      33.526 -10.396 -23.440  0.00  0.00    +0.040 C 
ATOM     20  H   UNL     1      32.147  -4.063 -24.085  0.00  0.00    -0.080 HD
ENDROOT
BRANCH  12  21
ATOM     21  O   UNL     1      31.182  -8.244 -19.162  0.00  0.00    -0.377 OA
ATOM     22  H   UNL     1      30.470  -8.078 -18.525  0.00  0.00    +0.211 HD
ENDBRANCH  12  21
BRANCH  18  23
ATOM     23  O   UNL     1      31.744 -11.474 -22.254  0.00  0.00    -0.475 OA
BRANCH  23  24
ATOM     24  C   UNL     1      32.259 -12.718 -22.735  0.00  0.00    +0.183 C 
BRANCH  24  25
ATOM     25  C   UNL     1      33.220 -13.282 -21.701  0.00  0.00    -0.029 C 
BRANCH  25  27
ATOM     26  O   UNL     1      35.225 -16.911 -22.353  0.00  0.00    -0.358 OA
ATOM     27  N   UNL     1      33.480 -14.697 -21.955  0.00  0.00    +0.393 N 
ATOM     28  C   UNL     1      34.226 -14.874 -23.209  0.00  0.00    -0.044 C 
ATOM     29  C   UNL     1      34.223 -15.300 -20.840  0.00  0.00    -0.044 C 
ATOM     30  C   UNL     1      34.495 -16.356 -23.448  0.00  0.00    +0.119 C 
ATOM     31  C   UNL     1      34.494 -16.773 -21.134  0.00  0.00    +0.119 C 
ATOM     32  H   UNL     1      32.581 -15.170 -22.042  0.00  0.00    -0.079 HD
ENDBRANCH  25  27
ENDBRANCH  24  25
ENDBRANCH  23  24
ENDBRANCH  18  23
TORSDOF 5
ENDMDL
MODEL 3
REMARK VINA RESULT:      -9.1      1.698      3.382
REMARK  Name = 5311356
REMARK  5 active torsions:
REMARK  status: ('A' for Active; 'I' for Inactive)
REMARK    1  A    between atoms: C_12  and  O_21
REMARK    2  A    between atoms: C_18  and  O_23
REMARK    3  A    between atoms: O_23  and  C_24
REMARK    4  A    between atoms: C_24  and  C_25
REMARK    5  A    between atoms: C_25  and  N_27
REMARK                            x       y       z     vdW  Elec       q    Type
REMARK                         _______ _______ _______ _____ _____    ______ ____
ROOT
ATOM      1  O   UNL     1      34.474  -7.976 -23.304  0.00  0.00    -0.473 OA
ATOM      2  N   UNL     1      31.064  -4.570 -21.232  0.00  0.00    +0.387 N 
ATOM      3  C   UNL     1      33.026  -6.105 -22.722  0.00  0.00    +0.061 C 
ATOM      4  C   UNL     1      32.143  -5.034 -23.377  0.00  0.00    +0.010 C 
ATOM      5  C   UNL     1      30.780  -5.039 -22.611  0.00  0.00    -0.049 C 
ATOM      6  C   UNL     1      34.321  -6.521 -23.458  0.00  0.00    +0.200 C 
ATOM      7  C   UNL     1      33.273  -5.732 -21.246  0.00  0.00    -0.015 C 
ATOM      8  C   UNL     1      32.318  -7.418 -22.808  0.00  0.00    +0.014 C 
ATOM      9  C   UNL     1      30.041  -6.418 -22.699  0.00  0.00    +0.006 C 
ATOM     10  C   UNL     1      31.970  -5.444 -20.481  0.00  0.00    -0.077 C 
ATOM     11  C   UNL     1      30.950  -7.617 -22.740  0.00  0.00    -0.025 C 
ATOM     12  C   UNL     1      34.366  -6.114 -24.955  0.00  0.00    +0.172 C 
ATOM     13  C   UNL     1      32.027  -5.244 -24.865  0.00  0.00    -0.030 C 
ATOM     14  C   UNL     1      33.204  -8.435 -23.080  0.00  0.00    +0.168 C 
ATOM     15  C   UNL     1      33.042  -5.757 -25.576  0.00  0.00    +0.002 C 
ATOM     16  C   UNL     1      30.494  -8.933 -22.833  0.00  0.00    -0.001 C 
ATOM     17  C   UNL     1      29.861  -4.265 -20.464  0.00  0.00    -0.101 C 
ATOM     18  C   UNL     1      32.778  -9.742 -23.167  0.00  0.00    +0.172 C 
ATOM     19  C   UNL     1      31.407  -9.988 -23.024  0.00  0.00    +0.040 C 
ATOM     20  H   UNL     1      31.560  -3.691 -21.369  0.00  0.00    -0.080 HD
ENDROOT
BRANCH  12  21
ATOM     21  O   UNL     1      35.013  -7.130 -25.716  0.00  0.00    -0.377 OA
ATOM     22  H   UNL     1      35.867  -7.344 -25.307  0.00  0.00    +0.211 HD
ENDBRANCH  12  21
BRANCH  18  23
ATOM     23  O   UNL     1      33.644 -10.755 -23.417  0.00  0.00    -0.475 OA
BRANCH  23  24
ATOM     24  C   UNL     1      33.097 -12.072 -23.523  0.00  0.00    +0.183 C 
BRANCH  24  25
ATOM     25  C   UNL     1      33.610 -12.909 -22.363  0.00  0.00    -0.029 C 
BRANCH  25  27
ATOM     26  O   UNL     1      34.046 -16.940 -23.451  0.00  0.00    -0.358 OA
ATOM     27  N   UNL     1      34.188 -14.162 -22.847  0.00  0.00    +0.393 N 
ATOM     28  C   UNL     1      34.188 -15.180 -21.787  0.00  0.00    -0.044 C 
ATOM     29  C   UNL     1      33.454 -14.656 -24.020  0.00  0.00    -0.044 C 
ATOM     30  C   UNL     1      34.785 -16.480 -22.318  0.00  0.00    +0.119 C 
ATOM     31  C   UNL     1      34.067 -15.970 -24.498  0.00  0.00    +0.119 C 
ATOM     32  H   UNL     1      35.153 -13.976 -23.120  0.00  0.00    -0.079 HD
ENDBRANCH  25  27
ENDBRANCH  24  25
ENDBRANCH  23  24
ENDBRANCH  18  23
TORSDOF 5
ENDMDL
MODEL 4
REMARK VINA RESULT:      -9.1      2.413      3.551
REMARK  Name = 5311356
REMARK  5 active torsions:
REMARK  status: ('A' for Active; 'I' for Inactive)
REMARK    1  A    between atoms: C_12  and  O_21
REMARK    2  A    between atoms: C_18  and  O_23
REMARK    3  A    between atoms: O_23  and  C_24
REMARK    4  A    between atoms: C_24  and  C_25
REMARK    5  A    between atoms: C_25  and  N_27
REMARK                            x       y       z     vdW  Elec       q    Type
REMARK                         _______ _______ _______ _____ _____    ______ ____
ROOT
ATOM      1  O   UNL     1      30.123  -6.917 -23.614  0.00  0.00    -0.473 OA
ATOM      2  N   UNL     1      33.841  -4.677 -26.560  0.00  0.00    +0.387 N 
ATOM      3  C   UNL     1      31.708  -5.460 -24.754  0.00  0.00    +0.061 C 
ATOM      4  C   UNL     1      32.611  -4.246 -24.491  0.00  0.00    +0.010 C 
ATOM      5  C   UNL     1      34.014  -4.587 -25.090  0.00  0.00    -0.049 C 
ATOM      6  C   UNL     1      30.349  -5.520 -24.016  0.00  0.00    +0.200 C 
ATOM      7  C   UNL     1      31.571  -5.675 -26.274  0.00  0.00    -0.015 C 
ATOM      8  C   UNL     1      32.333  -6.659 -24.119  0.00  0.00    +0.014 C 
ATOM      9  C   UNL     1      34.666  -5.847 -24.425  0.00  0.00    +0.006 C 
ATOM     10  C   UNL     1      32.931  -5.744 -26.989  0.00  0.00    -0.077 C 
ATOM     11  C   UNL     1      33.688  -6.910 -24.000  0.00  0.00    -0.025 C 
ATOM     12  C   UNL     1      30.239  -4.567 -22.797  0.00  0.00    +0.172 C 
ATOM     13  C   UNL     1      32.626  -3.870 -23.031  0.00  0.00    -0.030 C 
ATOM     14  C   UNL     1      31.375  -7.465 -23.548  0.00  0.00    +0.168 C 
ATOM     15  C   UNL     1      31.543  -4.039 -22.258  0.00  0.00    +0.002 C 
ATOM     16  C   UNL     1      34.062  -8.102 -23.377  0.00  0.00    -0.001 C 
ATOM     17  C   UNL     1      35.102  -4.727 -27.292  0.00  0.00    -0.101 C 
ATOM     18  C   UNL     1      31.719  -8.650 -22.936  0.00  0.00    +0.172 C 
ATOM     19  C   UNL     1      33.079  -8.974 -22.868  0.00  0.00    +0.040 C 
ATOM     20  H   UNL     1      33.388  -3.798 -26.809  0.00  0.00    -0.080 HD
ENDROOT
BRANCH  12  21
ATOM     21  O   UNL     1      29.491  -5.192 -21.758  0.00  0.00    -0.377 OA
ATOM     22  H   UNL     1      29.329  -4.552 -21.046  0.00  0.00    +0.211 HD
ENDBRANCH  12  21
BRANCH  18  23
ATOM     23  O   UNL     1      30.784  -9.463 -22.386  0.00  0.00    -0.475 OA
BRANCH  23  24
ATOM     24  C   UNL     1      31.211 -10.340 -21.341  0.00  0.00    +0.183 C 
BRANCH  24  25
ATOM     25  C   UNL     1      31.064 -11.776 -21.817  0.00  0.00    -0.029 C 
BRANCH  25  27
ATOM     26  O   UNL     1      33.971 -14.800 -21.947  0.00  0.00    -0.358 OA
ATOM     27  N   UNL     1      32.354 -12.463 -21.792  0.00  0.00    +0.393 N 
ATOM     28  C   UNL     1      32.404 -13.437 -20.694  0.00  0.00    -0.044 C 
ATOM     29  C   UNL     1      32.612 -13.135 -23.073  0.00  0.00    -0.044 C 
ATOM     30  C   UNL     1      33.753 -14.149 -20.694  0.00  0.00    +0.119 C 
ATOM     31  C   UNL     1      33.956 -13.856 -23.019  0.00  0.00    +0.119 C 
ATOM     32  H   UNL     1      33.079 -11.762 -21.640  0.00  0.00    -0.079 HD
ENDBRANCH  25  27
ENDBRANCH  24  25
ENDBRANCH  23  24
ENDBRANCH  18  23
TORSDOF 5
ENDMDL
MODEL 5
REMARK VINA RESULT:      -9.1     14.551     17.469
REMARK  Name = 5311356
REMARK  5 active torsions:
REMARK  status: ('A' for Active; 'I' for Inactive)
REMARK    1  A    between atoms: C_12  and  O_21
REMARK    2  A    between atoms: C_18  and  O_23
REMARK    3  A    between atoms: O_23  and  C_24
REMARK    4  A    between atoms: C_24  and  C_25
REMARK    5  A    between atoms: C_25  and  N_27
REMARK                            x       y       z     vdW  Elec       q    Type
REMARK                         _______ _______ _______ _____ _____    ______ ____
ROOT
ATOM      1  O   UNL     1      33.754 -24.140 -14.889  0.00  0.00    -0.473 OA
ATOM      2  N   UNL     1      38.804 -25.436 -14.314  0.00  0.00    +0.387 N 
ATOM      3  C   UNL     1      36.170 -24.430 -15.001  0.00  0.00    +0.061 C 
ATOM      4  C   UNL     1      37.455 -23.629 -15.259  0.00  0.00    +0.010 C 
ATOM      5  C   UNL     1      38.459 -24.006 -14.122  0.00  0.00    -0.049 C 
ATOM      6  C   UNL     1      34.904 -24.038 -15.800  0.00  0.00    +0.200 C 
ATOM      7  C   UNL     1      36.482 -25.937 -15.081  0.00  0.00    -0.015 C 
ATOM      8  C   UNL     1      35.662 -24.082 -13.640  0.00  0.00    +0.014 C 
ATOM      9  C   UNL     1      37.923 -23.643 -12.695  0.00  0.00    +0.006 C 
ATOM     10  C   UNL     1      37.663 -26.347 -14.184  0.00  0.00    -0.077 C 
ATOM     11  C   UNL     1      36.432 -23.774 -12.532  0.00  0.00    -0.025 C 
ATOM     12  C   UNL     1      34.970 -22.634 -16.456  0.00  0.00    +0.172 C 
ATOM     13  C   UNL     1      37.173 -22.153 -15.384  0.00  0.00    -0.030 C 
ATOM     14  C   UNL     1      34.289 -23.993 -13.638  0.00  0.00    +0.168 C 
ATOM     15  C   UNL     1      36.025 -21.707 -15.915  0.00  0.00    +0.002 C 
ATOM     16  C   UNL     1      35.754 -23.485 -11.347  0.00  0.00    -0.001 C 
ATOM     17  C   UNL     1      39.932 -25.875 -13.498  0.00  0.00    -0.101 C 
ATOM     18  C   UNL     1      33.598 -23.719 -12.478  0.00  0.00    +0.172 C 
ATOM     19  C   UNL     1      34.345 -23.480 -11.319  0.00  0.00    +0.040 C 
ATOM     20  H   UNL     1      39.104 -25.488 -15.287  0.00  0.00    -0.080 HD
ENDROOT
BRANCH  12  21
ATOM     21  O   UNL     1      33.689 -22.012 -16.402  0.00  0.00    -0.377 OA
ATOM     22  H   UNL     1      33.436 -21.873 -15.475  0.00  0.00    +0.211 HD
ENDBRANCH  12  21
BRANCH  18  23
ATOM     23  O   UNL     1      32.244 -23.647 -12.459  0.00  0.00    -0.475 OA
BRANCH  23  24
ATOM     24  C   UNL     1      31.525 -24.663 -13.163  0.00  0.00    +0.183 C 
BRANCH  24  25
ATOM     25  C   UNL     1      30.084 -24.211 -13.335  0.00  0.00    -0.029 C 
BRANCH  25  27
ATOM     26  O   UNL     1      28.750 -22.158 -16.745  0.00  0.00    -0.358 OA
ATOM     27  N   UNL     1      29.815 -23.863 -14.729  0.00  0.00    +0.393 N 
ATOM     28  C   UNL     1      28.369 -23.773 -14.975  0.00  0.00    -0.044 C 
ATOM     29  C   UNL     1      30.466 -22.595 -15.085  0.00  0.00    -0.044 C 
ATOM     30  C   UNL     1      28.114 -23.398 -16.431  0.00  0.00    +0.119 C 
ATOM     31  C   UNL     1      30.161 -22.246 -16.540  0.00  0.00    +0.119 C 
ATOM     32  H   UNL     1      30.200 -24.603 -15.316  0.00  0.00    -0.079 HD
ENDBRANCH  25  27
ENDBRANCH  24  25
ENDBRANCH  23  24
ENDBRANCH  18  23
TORSDOF 5
ENDMDL
MODEL 6
REMARK VINA RESULT:      -9.0     10.317     16.390
REMARK  Name = 5311356
REMARK  5 active torsions:
REMARK  status: ('A' for Active; 'I' for Inactive)
REMARK    1  A    between atoms: C_12  and  O_21
REMARK    2  A    between atoms: C_18  and  O_23
REMARK    3  A    between atoms: O_23  and  C_24
REMARK    4  A    between atoms: C_24  and  C_25
REMARK    5  A    between atoms: C_25  and  N_27
REMARK                            x       y       z     vdW  Elec       q    Type
REMARK                         _______ _______ _______ _____ _____    ______ ____
ROOT
ATOM      1  O   UNL     1      34.707 -24.598 -15.756  0.00  0.00    -0.473 OA
ATOM      2  N   UNL     1      35.728 -23.735 -10.684  0.00  0.00    +0.387 N 
ATOM      3  C   UNL     1      35.383 -24.650 -13.416  0.00  0.00    +0.061 C 
ATOM      4  C   UNL     1      36.528 -25.139 -12.518  0.00  0.00    +0.010 C 
ATOM      5  C   UNL     1      36.898 -23.953 -11.569  0.00  0.00    -0.049 C 
ATOM      6  C   UNL     1      35.012 -25.513 -14.646  0.00  0.00    +0.200 C 
ATOM      7  C   UNL     1      34.161 -24.301 -12.543  0.00  0.00    -0.015 C 
ATOM      8  C   UNL     1      35.848 -23.439 -14.156  0.00  0.00    +0.014 C 
ATOM      9  C   UNL     1      37.382 -22.682 -12.348  0.00  0.00    +0.006 C 
ATOM     10  C   UNL     1      34.509 -23.338 -11.395  0.00  0.00    -0.077 C 
ATOM     11  C   UNL     1      36.718 -22.473 -13.682  0.00  0.00    -0.025 C 
ATOM     12  C   UNL     1      36.098 -26.542 -15.057  0.00  0.00    +0.172 C 
ATOM     13  C   UNL     1      37.680 -25.676 -13.330  0.00  0.00    -0.030 C 
ATOM     14  C   UNL     1      35.381 -23.446 -15.451  0.00  0.00    +0.168 C 
ATOM     15  C   UNL     1      37.475 -26.299 -14.500  0.00  0.00    +0.002 C 
ATOM     16  C   UNL     1      37.017 -21.411 -14.538  0.00  0.00    -0.001 C 
ATOM     17  C   UNL     1      36.006 -22.840  -9.564  0.00  0.00    -0.101 C 
ATOM     18  C   UNL     1      35.655 -22.405 -16.310  0.00  0.00    +0.172 C 
ATOM     19  C   UNL     1      36.470 -21.370 -15.836  0.00  0.00    +0.040 C 
ATOM     20  H   UNL     1      35.542 -24.656 -10.289  0.00  0.00    -0.080 HD
ENDROOT
BRANCH  12  21
ATOM     21  O   UNL     1      36.150 -26.653 -16.477  0.00  0.00    -0.377 OA
ATOM     22  H   UNL     1      35.628 -27.420 -16.760  0.00  0.00    +0.211 HD
ENDBRANCH  12  21
BRANCH  18  23
ATOM     23  O   UNL     1      35.185 -22.392 -17.581  0.00  0.00    -0.475 OA
BRANCH  23  24
ATOM     24  C   UNL     1      35.588 -21.304 -18.417  0.00  0.00    +0.183 C 
BRANCH  24  25
ATOM     25  C   UNL     1      34.441 -20.953 -19.350  0.00  0.00    -0.029 C 
BRANCH  25  27
ATOM     26  O   UNL     1      35.731 -18.326 -22.358  0.00  0.00    -0.358 OA
ATOM     27  N   UNL     1      34.734 -19.727 -20.090  0.00  0.00    +0.393 N 
ATOM     28  C   UNL     1      36.176 -19.603 -20.345  0.00  0.00    -0.044 C 
ATOM     29  C   UNL     1      33.995 -19.694 -21.360  0.00  0.00    -0.044 C 
ATOM     30  C   UNL     1      36.456 -18.324 -21.127  0.00  0.00    +0.119 C 
ATOM     31  C   UNL     1      34.326 -18.413 -22.120  0.00  0.00    +0.119 C 
ATOM     32  H   UNL     1      34.436 -18.937 -19.518  0.00  0.00    -0.079 HD
ENDBRANCH  25  27
ENDBRANCH  24  25
ENDBRANCH  23  24
ENDBRANCH  18  23
TORSDOF 5
ENDMDL
MODEL 7
REMARK VINA RESULT:      -8.5      1.746      3.738
REMARK  Name = 5311356
REMARK  5 active torsions:
REMARK  status: ('A' for Active; 'I' for Inactive)
REMARK    1  A    between atoms: C_12  and  O_21
REMARK    2  A    between atoms: C_18  and  O_23
REMARK    3  A    between atoms: O_23  and  C_24
REMARK    4  A    between atoms: C_24  and  C_25
REMARK    5  A    between atoms: C_25  and  N_27
REMARK                            x       y       z     vdW  Elec       q    Type
REMARK                         _______ _______ _______ _____ _____    ______ ____
ROOT
ATOM      1  O   UNL     1      33.228  -7.540 -21.853  0.00  0.00    -0.473 OA
ATOM      2  N   UNL     1      31.450  -3.037 -23.873  0.00  0.00    +0.387 N 
ATOM      3  C   UNL     1      32.820  -5.463 -23.058  0.00  0.00    +0.061 C 
ATOM      4  C   UNL     1      33.000  -4.838 -24.449  0.00  0.00    +0.010 C 
ATOM      5  C   UNL     1      31.641  -4.161 -24.821  0.00  0.00    -0.049 C 
ATOM      6  C   UNL     1      33.907  -6.447 -22.564  0.00  0.00    +0.200 C 
ATOM      7  C   UNL     1      32.511  -4.352 -22.035  0.00  0.00    -0.015 C 
ATOM      8  C   UNL     1      31.686  -6.434 -23.121  0.00  0.00    +0.014 C 
ATOM      9  C   UNL     1      30.453  -5.181 -24.882  0.00  0.00    +0.006 C 
ATOM     10  C   UNL     1      31.342  -3.453 -22.470  0.00  0.00    -0.077 C 
ATOM     11  C   UNL     1      30.548  -6.316 -23.898  0.00  0.00    -0.025 C 
ATOM     12  C   UNL     1      34.828  -6.999 -23.683  0.00  0.00    +0.172 C 
ATOM     13  C   UNL     1      33.493  -5.850 -25.453  0.00  0.00    -0.030 C 
ATOM     14  C   UNL     1      31.961  -7.555 -22.371  0.00  0.00    +0.168 C 
ATOM     15  C   UNL     1      34.313  -6.847 -25.090  0.00  0.00    +0.002 C 
ATOM     16  C   UNL     1      29.601  -7.337 -23.799  0.00  0.00    -0.001 C 
ATOM     17  C   UNL     1      30.362  -2.139 -24.247  0.00  0.00    -0.101 C 
ATOM     18  C   UNL     1      31.038  -8.571 -22.251  0.00  0.00    +0.172 C 
ATOM     19  C   UNL     1      29.840  -8.446 -22.964  0.00  0.00    +0.040 C 
ATOM     20  H   UNL     1      32.316  -2.503 -23.947  0.00  0.00    -0.080 HD
ENDROOT
BRANCH  12  21
ATOM     21  O   UNL     1      35.151  -8.361 -23.418  0.00  0.00    -0.377 OA
ATOM     22  H   UNL     1      34.400  -8.925 -23.664  0.00  0.00    +0.211 HD
ENDBRANCH  12  21
BRANCH  18  23
ATOM     23  O   UNL     1      31.289  -9.672 -21.501  0.00  0.00    -0.475 OA
BRANCH  23  24
ATOM     24  C   UNL     1      31.494 -10.905 -22.196  0.00  0.00    +0.183 C 
BRANCH  24  25
ATOM     25  C   UNL     1      31.704 -12.012 -21.176  0.00  0.00    -0.029 C 
BRANCH  25  27
ATOM     26  O   UNL     1      34.494 -14.553 -23.013  0.00  0.00    -0.358 OA
ATOM     27  N   UNL     1      32.311 -13.184 -21.804  0.00  0.00    +0.393 N 
ATOM     28  C   UNL     1      32.750 -12.875 -23.171  0.00  0.00    -0.044 C 
ATOM     29  C   UNL     1      33.447 -13.672 -21.009  0.00  0.00    -0.044 C 
ATOM     30  C   UNL     1      33.389 -14.108 -23.802  0.00  0.00    +0.119 C 
ATOM     31  C   UNL     1      34.072 -14.887 -21.690  0.00  0.00    +0.119 C 
ATOM     32  H   UNL     1      31.604 -13.918 -21.846  0.00  0.00    -0.079 HD
ENDBRANCH  25  27
ENDBRANCH  24  25
ENDBRANCH  23  24
ENDBRANCH  18  23
TORSDOF 5
ENDMDL
MODEL 8
REMARK VINA RESULT:      -8.2     14.334     16.417
REMARK  Name = 5311356
REMARK  5 active torsions:
REMARK  status: ('A' for Active; 'I' for Inactive)
REMARK    1  A    between atoms: C_12  and  O_21
REMARK    2  A    between atoms: C_18  and  O_23
REMARK    3  A    between atoms: O_23  and  C_24
REMARK    4  A    between atoms: C_24  and  C_25
REMARK    5  A    between atoms: C_25  and  N_27
REMARK                            x       y       z     vdW  Elec       q    Type
REMARK                         _______ _______ _______ _____ _____    ______ ____
ROOT
ATOM      1  O   UNL     1      33.201 -24.355 -14.159  0.00  0.00    -0.473 OA
ATOM      2  N   UNL     1      28.245 -23.877 -15.812  0.00  0.00    +0.387 N 
ATOM      3  C   UNL     1      30.819 -23.953 -14.472  0.00  0.00    +0.061 C 
ATOM      4  C   UNL     1      29.724 -22.942 -14.104  0.00  0.00    +0.010 C 
ATOM      5  C   UNL     1      28.938 -22.627 -15.418  0.00  0.00    -0.049 C 
ATOM      6  C   UNL     1      31.931 -24.222 -13.430  0.00  0.00    +0.200 C 
ATOM      7  C   UNL     1      30.165 -25.248 -14.994  0.00  0.00    -0.015 C 
ATOM      8  C   UNL     1      31.681 -23.349 -15.532  0.00  0.00    +0.014 C 
ATOM      9  C   UNL     1      29.845 -21.997 -16.530  0.00  0.00    +0.006 C 
ATOM     10  C   UNL     1      29.152 -24.988 -16.121  0.00  0.00    -0.077 C 
ATOM     11  C   UNL     1      31.266 -22.494 -16.537  0.00  0.00    -0.025 C 
ATOM     12  C   UNL     1      32.039 -23.147 -12.317  0.00  0.00    +0.172 C 
ATOM     13  C   UNL     1      30.295 -21.732 -13.409  0.00  0.00    -0.030 C 
ATOM     14  C   UNL     1      33.005 -23.666 -15.325  0.00  0.00    +0.168 C 
ATOM     15  C   UNL     1      31.367 -21.831 -12.609  0.00  0.00    +0.002 C 
ATOM     16  C   UNL     1      32.238 -22.050 -17.436  0.00  0.00    -0.001 C 
ATOM     17  C   UNL     1      27.258 -23.686 -16.870  0.00  0.00    -0.101 C 
ATOM     18  C   UNL     1      33.979 -23.247 -16.204  0.00  0.00    +0.172 C 
ATOM     19  C   UNL     1      33.582 -22.443 -17.279  0.00  0.00    +0.040 C 
ATOM     20  H   UNL     1      27.734 -24.150 -14.974  0.00  0.00    -0.080 HD
ENDROOT
BRANCH  12  21
ATOM     21  O   UNL     1      33.406 -22.939 -11.974  0.00  0.00    -0.377 OA
ATOM     22  H   UNL     1      33.518 -22.042 -11.622  0.00  0.00    +0.211 HD
ENDBRANCH  12  21
BRANCH  18  23
ATOM     23  O   UNL     1      35.284 -23.568 -16.021  0.00  0.00    -0.475 OA
BRANCH  23  24
ATOM     24  C   UNL     1      36.182 -22.502 -15.708  0.00  0.00    +0.183 C 
BRANCH  24  25
ATOM     25  C   UNL     1      37.338 -23.060 -14.893  0.00  0.00    -0.029 C 
BRANCH  25  27
ATOM     26  O   UNL     1      37.213 -25.396 -11.408  0.00  0.00    -0.358 OA
ATOM     27  N   UNL     1      36.842 -23.877 -13.787  0.00  0.00    +0.393 N 
ATOM     28  C   UNL     1      37.447 -25.216 -13.816  0.00  0.00    -0.044 C 
ATOM     29  C   UNL     1      37.115 -23.229 -12.496  0.00  0.00    -0.044 C 
ATOM     30  C   UNL     1      36.925 -26.046 -12.648  0.00  0.00    +0.119 C 
ATOM     31  C   UNL     1      36.602 -24.106 -11.357  0.00  0.00    +0.119 C 
ATOM     32  H   UNL     1      35.833 -23.973 -13.896  0.00  0.00    -0.079 HD
ENDBRANCH  25  27
ENDBRANCH  24  25
ENDBRANCH  23  24
ENDBRANCH  18  23
TORSDOF 5
ENDMDL
