MODEL 1
REMARK VINA RESULT:     -11.2      0.000      0.000
REMARK  Name = 9549259
REMARK  5 active torsions:
REMARK  status: ('A' for Active; 'I' for Inactive)
REMARK    1  A    between atoms: N_2  and  C_22
REMARK    2  A    between atoms: C_3  and  N_7
REMARK    3  A    between atoms: N_7  and  S_9
REMARK    4  A    between atoms: S_9  and  C_14
REMARK    5  A    between atoms: C_22  and  C_27
REMARK                            x       y       z     vdW  Elec       q    Type
REMARK                         _______ _______ _______ _____ _____    ______ ____
ROOT
ATOM      1  O   UNL     1      36.259 -21.703 -14.875  0.00  0.00    -0.273 OA
ATOM      2  N   UNL     1      35.115 -23.159 -13.426  0.00  0.00    -0.272 N 
ATOM      3  C   UNL     1      34.070 -22.599 -15.432  0.00  0.00    +0.153 C 
ATOM      4  C   UNL     1      33.438 -23.865 -14.864  0.00  0.00    +0.048 C 
ATOM      5  C   UNL     1      33.840 -23.838 -13.402  0.00  0.00    +0.096 C 
ATOM      6  C   UNL     1      35.305 -22.410 -14.587  0.00  0.00    +0.242 C 
ENDROOT
BRANCH   3   7
ATOM      7  N   UNL     1      34.463 -22.789 -16.833  0.00  0.00    -0.171 NA
ATOM      8  H   UNL     1      35.208 -22.119 -17.032  0.00  0.00    +0.149 HD
BRANCH   7   9
ATOM      9  S   UNL     1      33.263 -22.590 -18.042  0.00  0.00    +0.066 S 
ATOM     10  O   UNL     1      32.054 -22.070 -17.433  0.00  0.00    -0.152 OA
ATOM     11  O   UNL     1      33.236 -23.771 -18.883  0.00  0.00    -0.152 OA
BRANCH   9  14
ATOM     12 CL   UNL     1      34.554 -16.669 -23.405  0.00  0.00    -0.082 Cl
ATOM     13  S   UNL     1      35.497 -21.002 -19.042  0.00  0.00    -0.067 S 
ATOM     14  C   UNL     1      33.836 -21.298 -19.145  0.00  0.00    +0.151 C 
ATOM     15  C   UNL     1      33.189 -20.520 -20.040  0.00  0.00    +0.027 C 
ATOM     16  C   UNL     1      34.082 -19.611 -20.700  0.00  0.00    +0.009 C 
ATOM     17  C   UNL     1      35.394 -19.770 -20.243  0.00  0.00    +0.031 C 
ATOM     18  C   UNL     1      33.832 -18.633 -21.693  0.00  0.00    +0.012 C 
ATOM     19  C   UNL     1      36.449 -18.985 -20.748  0.00  0.00    +0.007 C 
ATOM     20  C   UNL     1      34.877 -17.853 -22.196  0.00  0.00    +0.058 C 
ATOM     21  C   UNL     1      36.171 -18.028 -21.727  0.00  0.00    +0.012 C 
ENDBRANCH   9  14
ENDBRANCH   7   9
ENDBRANCH   3   7
BRANCH   2  22
ATOM     22  C   UNL     1      36.007 -23.184 -12.287  0.00  0.00    +0.152 C 
ATOM     23  C   UNL     1      35.273 -23.012 -10.978  0.00  0.00    +0.031 C 
BRANCH  22  27
ATOM     24  O   UNL     1      39.807 -25.003 -15.068  0.00  0.00    -0.350 OA
ATOM     25  O   UNL     1      36.133 -25.499 -11.796  0.00  0.00    -0.273 OA
ATOM     26  N   UNL     1      37.859 -24.613 -13.070  0.00  0.00    -0.273 N 
ATOM     27  C   UNL     1      36.666 -24.539 -12.356  0.00  0.00    +0.244 C 
ATOM     28  C   UNL     1      38.561 -25.891 -13.191  0.00  0.00    +0.126 C 
ATOM     29  C   UNL     1      38.584 -23.472 -13.639  0.00  0.00    +0.126 C 
ATOM     30  C   UNL     1      39.019 -26.111 -14.626  0.00  0.00    +0.164 C 
ATOM     31  C   UNL     1      39.045 -23.793 -15.055  0.00  0.00    +0.164 C 
ENDBRANCH  22  27
ENDBRANCH   2  22
TORSDOF 5
ENDMDL
MODEL 2
REMARK VINA RESULT:     -10.5      3.716      5.826
REMARK  Name = 9549259
REMARK  5 active torsions:
REMARK  status: ('A' for Active; 'I' for Inactive)
REMARK    1  A    between atoms: N_2  and  C_22
REMARK    2  A    between atoms: C_3  and  N_7
REMARK    3  A    between atoms: N_7  and  S_9
REMARK    4  A    between atoms: S_9  and  C_14
REMARK    5  A    between atoms: C_22  and  C_27
REMARK                            x       y       z     vdW  Elec       q    Type
REMARK                         _______ _______ _______ _____ _____    ______ ____
ROOT
ATOM      1  O   UNL     1      31.947 -20.198 -19.502  0.00  0.00    -0.273 OA
ATOM      2  N   UNL     1      33.594 -21.358 -18.288  0.00  0.00    -0.272 N 
ATOM      3  C   UNL     1      34.242 -20.349 -20.287  0.00  0.00    +0.153 C 
ATOM      4  C   UNL     1      35.474 -20.630 -19.434  0.00  0.00    +0.048 C 
ATOM      5  C   UNL     1      34.994 -21.677 -18.449  0.00  0.00    +0.096 C 
ATOM      6  C   UNL     1      33.093 -20.588 -19.338  0.00  0.00    +0.242 C 
ENDROOT
BRANCH   3   7
ATOM      7  N   UNL     1      34.219 -18.952 -20.737  0.00  0.00    -0.171 NA
ATOM      8  H   UNL     1      33.241 -18.693 -20.868  0.00  0.00    +0.149 HD
BRANCH   7   9
ATOM      9  S   UNL     1      35.050 -18.557 -22.185  0.00  0.00    +0.066 S 
ATOM     10  O   UNL     1      34.616 -19.450 -23.242  0.00  0.00    -0.152 OA
ATOM     11  O   UNL     1      36.456 -18.368 -21.888  0.00  0.00    -0.152 OA
BRANCH   9  14
ATOM     12 CL   UNL     1      32.951 -10.806 -23.183  0.00  0.00    -0.082 Cl
ATOM     13  S   UNL     1      33.886 -16.862 -24.254  0.00  0.00    -0.067 S 
ATOM     14  C   UNL     1      34.498 -16.925 -22.680  0.00  0.00    +0.151 C 
ATOM     15  C   UNL     1      34.483 -15.740 -22.032  0.00  0.00    +0.027 C 
ATOM     16  C   UNL     1      33.941 -14.692 -22.849  0.00  0.00    +0.009 C 
ATOM     17  C   UNL     1      33.568 -15.174 -24.108  0.00  0.00    +0.031 C 
ATOM     18  C   UNL     1      33.741 -13.319 -22.572  0.00  0.00    +0.012 C 
ATOM     19  C   UNL     1      33.009 -14.327 -25.084  0.00  0.00    +0.007 C 
ATOM     20  C   UNL     1      33.187 -12.475 -23.538  0.00  0.00    +0.058 C 
ATOM     21  C   UNL     1      32.825 -12.976 -24.781  0.00  0.00    +0.012 C 
ENDBRANCH   9  14
ENDBRANCH   7   9
ENDBRANCH   3   7
BRANCH   2  22
ATOM     22  C   UNL     1      32.811 -21.909 -17.204  0.00  0.00    +0.152 C 
ATOM     23  C   UNL     1      31.346 -22.024 -17.553  0.00  0.00    +0.031 C 
BRANCH  22  27
ATOM     24  O   UNL     1      36.078 -23.652 -13.772  0.00  0.00    -0.350 OA
ATOM     25  O   UNL     1      33.281 -24.150 -17.819  0.00  0.00    -0.273 OA
ATOM     26  N   UNL     1      34.094 -23.446 -15.762  0.00  0.00    -0.273 N 
ATOM     27  C   UNL     1      33.411 -23.272 -16.964  0.00  0.00    +0.244 C 
ATOM     28  C   UNL     1      34.711 -24.736 -15.452  0.00  0.00    +0.126 C 
ATOM     29  C   UNL     1      34.161 -22.468 -14.671  0.00  0.00    +0.126 C 
ATOM     30  C   UNL     1      36.114 -24.533 -14.897  0.00  0.00    +0.164 C 
ATOM     31  C   UNL     1      35.587 -22.362 -14.145  0.00  0.00    +0.164 C 
ENDBRANCH  22  27
ENDBRANCH   2  22
TORSDOF 5
ENDMDL
MODEL 3
REMARK VINA RESULT:     -10.4      4.886     10.412
REMARK  Name = 9549259
REMARK  5 active torsions:
REMARK  status: ('A' for Active; 'I' for Inactive)
REMARK    1  A    between atoms: N_2  and  C_22
REMARK    2  A    between atoms: C_3  and  N_7
REMARK    3  A    between atoms: N_7  and  S_9
REMARK    4  A    between atoms: S_9  and  C_14
REMARK    5  A    between atoms: C_22  and  C_27
REMARK                            x       y       z     vdW  Elec       q    Type
REMARK                         _______ _______ _______ _____ _____    ______ ____
ROOT
ATOM      1  O   UNL     1      36.550 -18.099 -20.425  0.00  0.00    -0.273 OA
ATOM      2  N   UNL     1      34.723 -17.840 -21.882  0.00  0.00    -0.272 N 
ATOM      3  C   UNL     1      34.974 -19.904 -20.831  0.00  0.00    +0.153 C 
ATOM      4  C   UNL     1      33.543 -19.760 -21.337  0.00  0.00    +0.048 C 
ATOM      5  C   UNL     1      33.643 -18.662 -22.377  0.00  0.00    +0.096 C 
ATOM      6  C   UNL     1      35.543 -18.515 -20.978  0.00  0.00    +0.242 C 
ENDROOT
BRANCH   3   7
ATOM      7  N   UNL     1      34.996 -20.292 -19.416  0.00  0.00    -0.171 NA
ATOM      8  H   UNL     1      35.962 -20.525 -19.181  0.00  0.00    +0.149 HD
BRANCH   7   9
ATOM      9  S   UNL     1      34.019 -21.613 -18.925  0.00  0.00    +0.066 S 
ATOM     10  O   UNL     1      34.316 -22.761 -19.761  0.00  0.00    -0.152 OA
ATOM     11  O   UNL     1      32.658 -21.152 -18.734  0.00  0.00    -0.152 OA
BRANCH   9  14
ATOM     12 CL   UNL     1      37.591 -23.173 -11.834  0.00  0.00    -0.082 Cl
ATOM     13  S   UNL     1      33.333 -22.806 -16.354  0.00  0.00    -0.067 S 
ATOM     14  C   UNL     1      34.545 -22.074 -17.275  0.00  0.00    +0.151 C 
ATOM     15  C   UNL     1      35.726 -21.943 -16.633  0.00  0.00    +0.027 C 
ATOM     16  C   UNL     1      35.668 -22.467 -15.297  0.00  0.00    +0.009 C 
ATOM     17  C   UNL     1      34.399 -22.978 -15.010  0.00  0.00    +0.031 C 
ATOM     18  C   UNL     1      36.661 -22.534 -14.291  0.00  0.00    +0.012 C 
ATOM     19  C   UNL     1      34.102 -23.547 -13.756  0.00  0.00    +0.007 C 
ATOM     20  C   UNL     1      36.370 -23.098 -13.046  0.00  0.00    +0.058 C 
ATOM     21  C   UNL     1      35.103 -23.598 -12.783  0.00  0.00    +0.012 C 
ENDBRANCH   9  14
ENDBRANCH   7   9
ENDBRANCH   3   7
BRANCH   2  22
ATOM     22  C   UNL     1      34.959 -16.509 -22.398  0.00  0.00    +0.152 C 
ATOM     23  C   UNL     1      34.418 -16.329 -23.797  0.00  0.00    +0.031 C 
BRANCH  22  27
ATOM     24  O   UNL     1      32.613 -12.075 -22.962  0.00  0.00    -0.350 OA
ATOM     25  O   UNL     1      34.356 -15.800 -20.218  0.00  0.00    -0.273 OA
ATOM     26  N   UNL     1      33.497 -14.565 -21.985  0.00  0.00    -0.273 N 
ATOM     27  C   UNL     1      34.246 -15.599 -21.429  0.00  0.00    +0.244 C 
ATOM     28  C   UNL     1      32.777 -13.634 -21.117  0.00  0.00    +0.126 C 
ATOM     29  C   UNL     1      33.242 -14.373 -23.417  0.00  0.00    +0.126 C 
ATOM     30  C   UNL     1      32.984 -12.201 -21.587  0.00  0.00    +0.164 C 
ATOM     31  C   UNL     1      33.425 -12.908 -23.793  0.00  0.00    +0.164 C 
ENDBRANCH  22  27
ENDBRANCH   2  22
TORSDOF 5
ENDMDL
MODEL 4
REMARK VINA RESULT:     -10.4      7.268     12.356
REMARK  Name = 9549259
REMARK  5 active torsions:
REMARK  status: ('A' for Active; 'I' for Inactive)
REMARK    1  A    between atoms: N_2  and  C_22
REMARK    2  A    between atoms: C_3  and  N_7
REMARK    3  A    between atoms: N_7  and  S_9
REMARK    4  A    between atoms: S_9  and  C_14
REMARK    5  A    between atoms: C_22  and  C_27
REMARK                            x       y       z     vdW  Elec       q    Type
REMARK                         _______ _______ _______ _____ _____    ______ ____
ROOT
ATOM      1  O   UNL     1      34.212 -14.977 -23.955  0.00  0.00    -0.273 OA
ATOM      2  N   UNL     1      33.502 -13.516 -22.254  0.00  0.00    -0.272 N 
ATOM      3  C   UNL     1      33.991 -15.713 -21.649  0.00  0.00    +0.153 C 
ATOM      4  C   UNL     1      34.011 -14.827 -20.409  0.00  0.00    +0.048 C 
ATOM      5  C   UNL     1      33.231 -13.599 -20.837  0.00  0.00    +0.096 C 
ATOM      6  C   UNL     1      33.943 -14.727 -22.790  0.00  0.00    +0.242 C 
ENDROOT
BRANCH   3   7
ATOM      7  N   UNL     1      35.219 -16.511 -21.747  0.00  0.00    -0.171 NA
ATOM      8  H   UNL     1      35.884 -15.976 -22.307  0.00  0.00    +0.149 HD
BRANCH   7   9
ATOM      9  S   UNL     1      35.111 -18.076 -22.442  0.00  0.00    +0.066 S 
ATOM     10  O   UNL     1      36.432 -18.506 -22.855  0.00  0.00    -0.152 OA
ATOM     11  O   UNL     1      33.986 -18.113 -23.357  0.00  0.00    -0.152 OA
BRANCH   9  14
ATOM     12 CL   UNL     1      31.667 -22.915 -16.947  0.00  0.00    -0.082 Cl
ATOM     13  S   UNL     1      35.932 -19.830 -20.261  0.00  0.00    -0.067 S 
ATOM     14  C   UNL     1      34.629 -19.201 -21.133  0.00  0.00    +0.151 C 
ATOM     15  C   UNL     1      33.421 -19.641 -20.718  0.00  0.00    +0.027 C 
ATOM     16  C   UNL     1      33.535 -20.552 -19.615  0.00  0.00    +0.009 C 
ATOM     17  C   UNL     1      34.873 -20.748 -19.257  0.00  0.00    +0.031 C 
ATOM     18  C   UNL     1      32.539 -21.239 -18.881  0.00  0.00    +0.012 C 
ATOM     19  C   UNL     1      35.234 -21.603 -18.198  0.00  0.00    +0.007 C 
ATOM     20  C   UNL     1      32.893 -22.089 -17.830  0.00  0.00    +0.058 C 
ATOM     21  C   UNL     1      34.228 -22.267 -17.493  0.00  0.00    +0.012 C 
ENDBRANCH   9  14
ENDBRANCH   7   9
ENDBRANCH   3   7
BRANCH   2  22
ATOM     22  C   UNL     1      33.209 -12.320 -23.012  0.00  0.00    +0.152 C 
ATOM     23  C   UNL     1      32.832 -12.624 -24.443  0.00  0.00    +0.031 C 
BRANCH  22  27
ATOM     24  O   UNL     1      31.877  -7.513 -22.232  0.00  0.00    -0.350 OA
ATOM     25  O   UNL     1      31.344 -12.382 -21.550  0.00  0.00    -0.273 OA
ATOM     26  N   UNL     1      31.866 -10.320 -22.480  0.00  0.00    -0.273 N 
ATOM     27  C   UNL     1      32.053 -11.686 -22.280  0.00  0.00    +0.244 C 
ATOM     28  C   UNL     1      30.771  -9.625 -21.803  0.00  0.00    +0.126 C 
ATOM     29  C   UNL     1      32.609  -9.489 -23.434  0.00  0.00    +0.126 C 
ATOM     30  C   UNL     1      31.261  -8.308 -21.216  0.00  0.00    +0.164 C 
ATOM     31  C   UNL     1      33.019  -8.175 -22.780  0.00  0.00    +0.164 C 
ENDBRANCH  22  27
ENDBRANCH   2  22
TORSDOF 5
ENDMDL
MODEL 5
REMARK VINA RESULT:     -10.3      4.416      9.940
REMARK  Name = 9549259
REMARK  5 active torsions:
REMARK  status: ('A' for Active; 'I' for Inactive)
REMARK    1  A    between atoms: N_2  and  C_22
REMARK    2  A    between atoms: C_3  and  N_7
REMARK    3  A    between atoms: N_7  and  S_9
REMARK    4  A    between atoms: S_9  and  C_14
REMARK    5  A    between atoms: C_22  and  C_27
REMARK                            x       y       z     vdW  Elec       q    Type
REMARK                         _______ _______ _______ _____ _____    ______ ____
ROOT
ATOM      1  O   UNL     1      36.063 -20.572 -19.884  0.00  0.00    -0.273 OA
ATOM      2  N   UNL     1      34.392 -19.464 -21.114  0.00  0.00    -0.272 N 
ATOM      3  C   UNL     1      33.714 -21.150 -19.654  0.00  0.00    +0.153 C 
ATOM      4  C   UNL     1      32.524 -20.258 -19.991  0.00  0.00    +0.048 C 
ATOM      5  C   UNL     1      32.957 -19.552 -21.261  0.00  0.00    +0.096 C 
ATOM      6  C   UNL     1      34.896 -20.382 -20.192  0.00  0.00    +0.242 C 
ENDROOT
BRANCH   3   7
ATOM      7  N   UNL     1      33.857 -21.312 -18.203  0.00  0.00    -0.171 NA
ATOM      8  H   UNL     1      34.849 -21.462 -18.011  0.00  0.00    +0.149 HD
BRANCH   7   9
ATOM      9  S   UNL     1      32.994 -22.583 -17.443  0.00  0.00    +0.066 S 
ATOM     10  O   UNL     1      33.206 -23.812 -18.182  0.00  0.00    -0.152 OA
ATOM     11  O   UNL     1      31.658 -22.122 -17.117  0.00  0.00    -0.152 OA
BRANCH   9  14
ATOM     12 CL   UNL     1      35.198 -24.260  -9.840  0.00  0.00    -0.082 Cl
ATOM     13  S   UNL     1      35.379 -22.403 -15.774  0.00  0.00    -0.067 S 
ATOM     14  C   UNL     1      33.751 -22.851 -15.840  0.00  0.00    +0.151 C 
ATOM     15  C   UNL     1      33.264 -23.345 -14.681  0.00  0.00    +0.027 C 
ATOM     16  C   UNL     1      34.264 -23.371 -13.651  0.00  0.00    +0.009 C 
ATOM     17  C   UNL     1      35.485 -22.876 -14.119  0.00  0.00    +0.031 C 
ATOM     18  C   UNL     1      34.188 -23.802 -12.305  0.00  0.00    +0.012 C 
ATOM     19  C   UNL     1      36.618 -22.804 -13.285  0.00  0.00    +0.007 C 
ATOM     20  C   UNL     1      35.310 -23.732 -11.475  0.00  0.00    +0.058 C 
ATOM     21  C   UNL     1      36.511 -23.237 -11.962  0.00  0.00    +0.012 C 
ENDBRANCH   9  14
ENDBRANCH   7   9
ENDBRANCH   3   7
BRANCH   2  22
ATOM     22  C   UNL     1      35.187 -18.592 -21.950  0.00  0.00    +0.152 C 
ATOM     23  C   UNL     1      34.867 -18.753 -23.417  0.00  0.00    +0.031 C 
BRANCH  22  27
ATOM     24  O   UNL     1      33.527 -14.476 -24.358  0.00  0.00    -0.350 OA
ATOM     25  O   UNL     1      35.155 -16.853 -20.338  0.00  0.00    -0.273 OA
ATOM     26  N   UNL     1      34.172 -16.386 -22.389  0.00  0.00    -0.273 N 
ATOM     27  C   UNL     1      34.839 -17.202 -21.478  0.00  0.00    +0.244 C 
ATOM     28  C   UNL     1      33.802 -15.021 -22.014  0.00  0.00    +0.126 C 
ATOM     29  C   UNL     1      33.670 -16.807 -23.701  0.00  0.00    +0.126 C 
ATOM     30  C   UNL     1      34.140 -14.052 -23.138  0.00  0.00    +0.164 C 
ATOM     31  C   UNL     1      34.010 -15.761 -24.756  0.00  0.00    +0.164 C 
ENDBRANCH  22  27
ENDBRANCH   2  22
TORSDOF 5
ENDMDL
MODEL 6
REMARK VINA RESULT:     -10.2      2.371      3.660
REMARK  Name = 9549259
REMARK  5 active torsions:
REMARK  status: ('A' for Active; 'I' for Inactive)
REMARK    1  A    between atoms: N_2  and  C_22
REMARK    2  A    between atoms: C_3  and  N_7
REMARK    3  A    between atoms: N_7  and  S_9
REMARK    4  A    between atoms: S_9  and  C_14
REMARK    5  A    between atoms: C_22  and  C_27
REMARK                            x       y       z     vdW  Elec       q    Type
REMARK                         _______ _______ _______ _____ _____    ______ ____
ROOT
ATOM      1  O   UNL     1      33.765 -22.115 -17.649  0.00  0.00    -0.273 OA
ATOM      2  N   UNL     1      35.272 -22.150 -15.843  0.00  0.00    -0.272 N 
ATOM      3  C   UNL     1      36.050 -21.318 -17.877  0.00  0.00    +0.153 C 
ATOM      4  C   UNL     1      36.960 -20.844 -16.750  0.00  0.00    +0.048 C 
ATOM      5  C   UNL     1      36.657 -21.806 -15.619  0.00  0.00    +0.096 C 
ATOM      6  C   UNL     1      34.859 -21.894 -17.151  0.00  0.00    +0.242 C 
ENDROOT
BRANCH   3   7
ATOM      7  N   UNL     1      35.613 -20.193 -18.712  0.00  0.00    -0.171 NA
ATOM      8  H   UNL     1      34.904 -19.682 -18.185  0.00  0.00    +0.149 HD
BRANCH   7   9
ATOM      9  S   UNL     1      34.948 -20.542 -20.254  0.00  0.00    +0.066 S 
ATOM     10  O   UNL     1      33.621 -21.101 -20.085  0.00  0.00    -0.152 OA
ATOM     11  O   UNL     1      35.950 -21.210 -21.062  0.00  0.00    -0.152 OA
BRANCH   9  14
ATOM     12 CL   UNL     1      33.973 -12.923 -22.797  0.00  0.00    -0.082 Cl
ATOM     13  S   UNL     1      34.495 -19.121 -22.760  0.00  0.00    -0.067 S 
ATOM     14  C   UNL     1      34.705 -18.976 -21.090  0.00  0.00    +0.151 C 
ATOM     15  C   UNL     1      34.661 -17.705 -20.635  0.00  0.00    +0.027 C 
ATOM     16  C   UNL     1      34.442 -16.765 -21.697  0.00  0.00    +0.009 C 
ATOM     17  C   UNL     1      34.331 -17.414 -22.931  0.00  0.00    +0.031 C 
ATOM     18  C   UNL     1      34.328 -15.354 -21.670  0.00  0.00    +0.012 C 
ATOM     19  C   UNL     1      34.112 -16.695 -24.123  0.00  0.00    +0.007 C 
ATOM     20  C   UNL     1      34.111 -14.639 -22.850  0.00  0.00    +0.058 C 
ATOM     21  C   UNL     1      34.005 -15.304 -24.063  0.00  0.00    +0.012 C 
ENDBRANCH   9  14
ENDBRANCH   7   9
ENDBRANCH   3   7
BRANCH   2  22
ATOM     22  C   UNL     1      34.480 -22.804 -14.826  0.00  0.00    +0.152 C 
ATOM     23  C   UNL     1      33.087 -23.137 -15.307  0.00  0.00    +0.031 C 
BRANCH  22  27
ATOM     24  O   UNL     1      37.340 -24.152 -10.890  0.00  0.00    -0.350 OA
ATOM     25  O   UNL     1      35.418 -24.909 -15.383  0.00  0.00    -0.273 OA
ATOM     26  N   UNL     1      35.729 -24.179 -13.201  0.00  0.00    -0.273 N 
ATOM     27  C   UNL     1      35.248 -24.062 -14.503  0.00  0.00    +0.244 C 
ATOM     28  C   UNL     1      36.489 -25.364 -12.806  0.00  0.00    +0.126 C 
ATOM     29  C   UNL     1      35.439 -23.254 -12.100  0.00  0.00    +0.126 C 
ATOM     30  C   UNL     1      37.719 -24.963 -12.004  0.00  0.00    +0.164 C 
ATOM     31  C   UNL     1      36.713 -22.943 -11.324  0.00  0.00    +0.164 C 
ENDBRANCH  22  27
ENDBRANCH   2  22
TORSDOF 5
ENDMDL
MODEL 7
REMARK VINA RESULT:     -10.2      7.467     12.622
REMARK  Name = 9549259
REMARK  5 active torsions:
REMARK  status: ('A' for Active; 'I' for Inactive)
REMARK    1  A    between atoms: N_2  and  C_22
REMARK    2  A    between atoms: C_3  and  N_7
REMARK    3  A    between atoms: N_7  and  S_9
REMARK    4  A    between atoms: S_9  and  C_14
REMARK    5  A    between atoms: C_22  and  C_27
REMARK                            x       y       z     vdW  Elec       q    Type
REMARK                         _______ _______ _______ _____ _____    ______ ____
ROOT
ATOM      1  O   UNL     1      33.894 -13.731 -20.780  0.00  0.00    -0.273 OA
ATOM      2  N   UNL     1      32.832 -13.605 -22.874  0.00  0.00    -0.272 N 
ATOM      3  C   UNL     1      34.498 -15.214 -22.609  0.00  0.00    +0.153 C 
ATOM      4  C   UNL     1      33.628 -15.574 -23.807  0.00  0.00    +0.048 C 
ATOM      5  C   UNL     1      32.941 -14.267 -24.154  0.00  0.00    +0.096 C 
ATOM      6  C   UNL     1      33.725 -14.110 -21.929  0.00  0.00    +0.242 C 
ENDROOT
BRANCH   3   7
ATOM      7  N   UNL     1      34.629 -16.352 -21.691  0.00  0.00    -0.171 NA
ATOM      8  H   UNL     1      35.428 -16.162 -21.085  0.00  0.00    +0.149 HD
BRANCH   7   9
ATOM      9  S   UNL     1      34.863 -17.911 -22.367  0.00  0.00    +0.066 S 
ATOM     10  O   UNL     1      36.269 -18.095 -22.666  0.00  0.00    -0.152 OA
ATOM     11  O   UNL     1      33.842 -18.151 -23.369  0.00  0.00    -0.152 OA
BRANCH   9  14
ATOM     12 CL   UNL     1      31.866 -23.107 -16.936  0.00  0.00    -0.082 Cl
ATOM     13  S   UNL     1      35.849 -19.693 -20.280  0.00  0.00    -0.067 S 
ATOM     14  C   UNL     1      34.485 -19.104 -21.084  0.00  0.00    +0.151 C 
ATOM     15  C   UNL     1      33.316 -19.619 -20.644  0.00  0.00    +0.027 C 
ATOM     16  C   UNL     1      33.516 -20.560 -19.579  0.00  0.00    +0.009 C 
ATOM     17  C   UNL     1      34.874 -20.698 -19.274  0.00  0.00    +0.031 C 
ATOM     18  C   UNL     1      32.582 -21.323 -18.837  0.00  0.00    +0.012 C 
ATOM     19  C   UNL     1      35.315 -21.569 -18.259  0.00  0.00    +0.007 C 
ATOM     20  C   UNL     1      33.016 -22.188 -17.830  0.00  0.00    +0.058 C 
ATOM     21  C   UNL     1      34.369 -22.309 -17.545  0.00  0.00    +0.012 C 
ENDBRANCH   9  14
ENDBRANCH   7   9
ENDBRANCH   3   7
BRANCH   2  22
ATOM     22  C   UNL     1      31.966 -12.462 -22.684  0.00  0.00    +0.152 C 
ATOM     23  C   UNL     1      31.534 -12.301 -21.246  0.00  0.00    +0.031 C 
BRANCH  22  27
ATOM     24  O   UNL     1      31.112  -7.487 -22.703  0.00  0.00    -0.350 OA
ATOM     25  O   UNL     1      33.821 -11.480 -23.787  0.00  0.00    -0.273 OA
ATOM     26  N   UNL     1      32.336 -10.024 -22.754  0.00  0.00    -0.273 N 
ATOM     27  C   UNL     1      32.798 -11.284 -23.127  0.00  0.00    +0.244 C 
ATOM     28  C   UNL     1      33.080  -8.827 -23.147  0.00  0.00    +0.126 C 
ATOM     29  C   UNL     1      31.198  -9.762 -21.867  0.00  0.00    +0.126 C 
ATOM     30  C   UNL     1      32.129  -7.759 -23.670  0.00  0.00    +0.164 C 
ATOM     31  C   UNL     1      30.327  -8.652 -22.441  0.00  0.00    +0.164 C 
ENDBRANCH  22  27
ENDBRANCH   2  22
TORSDOF 5
ENDMDL
MODEL 8
REMARK VINA RESULT:     -10.2     12.437     17.255
REMARK  Name = 9549259
REMARK  5 active torsions:
REMARK  status: ('A' for Active; 'I' for Inactive)
REMARK    1  A    between atoms: N_2  and  C_22
REMARK    2  A    between atoms: C_3  and  N_7
REMARK    3  A    between atoms: N_7  and  S_9
REMARK    4  A    between atoms: S_9  and  C_14
REMARK    5  A    between atoms: C_22  and  C_27
REMARK                            x       y       z     vdW  Elec       q    Type
REMARK                         _______ _______ _______ _____ _____    ______ ____
ROOT
ATOM      1  O   UNL     1      31.192  -7.602 -24.077  0.00  0.00    -0.273 OA
ATOM      2  N   UNL     1      31.693  -5.775 -22.683  0.00  0.00    -0.272 N 
ATOM      3  C   UNL     1      31.187  -7.805 -21.656  0.00  0.00    +0.153 C 
ATOM      4  C   UNL     1      31.921  -6.903 -20.670  0.00  0.00    +0.048 C 
ATOM      5  C   UNL     1      31.754  -5.518 -21.263  0.00  0.00    +0.096 C 
ATOM      6  C   UNL     1      31.357  -7.097 -22.977  0.00  0.00    +0.242 C 
ENDROOT
BRANCH   3   7
ATOM      7  N   UNL     1      31.817  -9.129 -21.729  0.00  0.00    -0.171 NA
ATOM      8  H   UNL     1      31.874  -9.383 -22.716  0.00  0.00    +0.149 HD
BRANCH   7   9
ATOM      9  S   UNL     1      31.057 -10.431 -20.911  0.00  0.00    +0.066 S 
ATOM     10  O   UNL     1      29.754 -10.669 -21.501  0.00  0.00    -0.152 OA
ATOM     11  O   UNL     1      31.214 -10.249 -19.480  0.00  0.00    -0.152 OA
BRANCH   9  14
ATOM     12 CL   UNL     1      35.263 -17.339 -21.156  0.00  0.00    -0.082 Cl
ATOM     13  S   UNL     1      32.453 -12.065 -22.882  0.00  0.00    -0.067 S 
ATOM     14  C   UNL     1      32.017 -11.904 -21.258  0.00  0.00    +0.151 C 
ATOM     15  C   UNL     1      32.453 -12.907 -20.465  0.00  0.00    +0.027 C 
ATOM     16  C   UNL     1      33.196 -13.887 -21.205  0.00  0.00    +0.009 C 
ATOM     17  C   UNL     1      33.275 -13.545 -22.559  0.00  0.00    +0.031 C 
ATOM     18  C   UNL     1      33.824 -15.081 -20.778  0.00  0.00    +0.012 C 
ATOM     19  C   UNL     1      33.957 -14.359 -23.484  0.00  0.00    +0.007 C 
ATOM     20  C   UNL     1      34.502 -15.890 -21.694  0.00  0.00    +0.058 C 
ATOM     21  C   UNL     1      34.567 -15.531 -23.033  0.00  0.00    +0.012 C 
ENDBRANCH   9  14
ENDBRANCH   7   9
ENDBRANCH   3   7
BRANCH   2  22
ATOM     22  C   UNL     1      31.845  -4.713 -23.653  0.00  0.00    +0.152 C 
ATOM     23  C   UNL     1      31.520  -3.356 -23.074  0.00  0.00    +0.031 C 
BRANCH  22  27
ATOM     24  O   UNL     1      34.191  -3.985 -28.063  0.00  0.00    -0.350 OA
ATOM     25  O   UNL     1      34.118  -5.280 -23.291  0.00  0.00    -0.273 OA
ATOM     26  N   UNL     1      33.609  -4.277 -25.322  0.00  0.00    -0.273 N 
ATOM     27  C   UNL     1      33.294  -4.785 -24.063  0.00  0.00    +0.244 C 
ATOM     28  C   UNL     1      34.991  -4.313 -25.800  0.00  0.00    +0.126 C 
ATOM     29  C   UNL     1      32.681  -3.569 -26.211  0.00  0.00    +0.126 C 
ATOM     30  C   UNL     1      35.040  -4.793 -27.244  0.00  0.00    +0.164 C 
ATOM     31  C   UNL     1      32.829  -4.077 -27.639  0.00  0.00    +0.164 C 
ENDBRANCH  22  27
ENDBRANCH   2  22
TORSDOF 5
ENDMDL
MODEL 9
REMARK VINA RESULT:      -9.1      3.212      5.615
REMARK  Name = 9549259
REMARK  5 active torsions:
REMARK  status: ('A' for Active; 'I' for Inactive)
REMARK    1  A    between atoms: N_2  and  C_22
REMARK    2  A    between atoms: C_3  and  N_7
REMARK    3  A    between atoms: N_7  and  S_9
REMARK    4  A    between atoms: S_9  and  C_14
REMARK    5  A    between atoms: C_22  and  C_27
REMARK                            x       y       z     vdW  Elec       q    Type
REMARK                         _______ _______ _______ _____ _____    ______ ____
ROOT
ATOM      1  O   UNL     1      31.694 -23.583 -16.751  0.00  0.00    -0.273 OA
ATOM      2  N   UNL     1      32.415 -23.753 -14.519  0.00  0.00    -0.272 N 
ATOM      3  C   UNL     1      34.030 -23.313 -16.140  0.00  0.00    +0.153 C 
ATOM      4  C   UNL     1      34.569 -22.930 -14.766  0.00  0.00    +0.048 C 
ATOM      5  C   UNL     1      33.671 -23.688 -13.808  0.00  0.00    +0.096 C 
ATOM      6  C   UNL     1      32.561 -23.549 -15.891  0.00  0.00    +0.242 C 
ENDROOT
BRANCH   3   7
ATOM      7  N   UNL     1      34.191 -22.210 -17.095  0.00  0.00    -0.171 NA
ATOM      8  H   UNL     1      33.979 -21.345 -16.598  0.00  0.00    +0.149 HD
BRANCH   7   9
ATOM      9  S   UNL     1      33.232 -22.228 -18.517  0.00  0.00    +0.066 S 
ATOM     10  O   UNL     1      31.875 -21.843 -18.182  0.00  0.00    -0.152 OA
ATOM     11  O   UNL     1      33.509 -23.441 -19.261  0.00  0.00    -0.152 OA
BRANCH   9  14
ATOM     12 CL   UNL     1      34.725 -16.217 -23.724  0.00  0.00    -0.082 Cl
ATOM     13  S   UNL     1      35.517 -20.683 -19.467  0.00  0.00    -0.067 S 
ATOM     14  C   UNL     1      33.849 -20.927 -19.585  0.00  0.00    +0.151 C 
ATOM     15  C   UNL     1      33.230 -20.108 -20.462  0.00  0.00    +0.027 C 
ATOM     16  C   UNL     1      34.153 -19.209 -21.096  0.00  0.00    +0.009 C 
ATOM     17  C   UNL     1      35.457 -19.418 -20.637  0.00  0.00    +0.031 C 
ATOM     18  C   UNL     1      33.937 -18.200 -22.065  0.00  0.00    +0.012 C 
ATOM     19  C   UNL     1      36.537 -18.653 -21.118  0.00  0.00    +0.007 C 
ATOM     20  C   UNL     1      35.006 -17.439 -22.544  0.00  0.00    +0.058 C 
ATOM     21  C   UNL     1      36.293 -17.664 -22.074  0.00  0.00    +0.012 C 
ENDBRANCH   9  14
ENDBRANCH   7   9
ENDBRANCH   3   7
BRANCH   2  22
ATOM     22  C   UNL     1      31.185 -24.121 -13.852  0.00  0.00    +0.152 C 
ATOM     23  C   UNL     1      31.401 -24.467 -12.398  0.00  0.00    +0.031 C 
BRANCH  22  27
ATOM     24  O   UNL     1      27.058 -23.157 -16.595  0.00  0.00    -0.350 OA
ATOM     25  O   UNL     1      30.688 -21.828 -13.512  0.00  0.00    -0.273 OA
ATOM     26  N   UNL     1      29.099 -23.076 -14.655  0.00  0.00    -0.273 N 
ATOM     27  C   UNL     1      30.307 -22.901 -13.985  0.00  0.00    +0.244 C 
ATOM     28  C   UNL     1      28.190 -21.943 -14.833  0.00  0.00    +0.126 C 
ATOM     29  C   UNL     1      28.559 -24.359 -15.117  0.00  0.00    +0.126 C 
ATOM     30  C   UNL     1      27.661 -21.906 -16.259  0.00  0.00    +0.164 C 
ATOM     31  C   UNL     1      28.010 -24.221 -16.531  0.00  0.00    +0.164 C 
ENDBRANCH  22  27
ENDBRANCH   2  22
TORSDOF 5
ENDMDL
