MODEL 1
REMARK VINA RESULT:     -11.1      0.000      0.000
REMARK  Name = 9832687
REMARK  5 active torsions:
REMARK  status: ('A' for Active; 'I' for Inactive)
REMARK    1  A    between atoms: C_4  and  C_10
REMARK    2  A    between atoms: C_5  and  C_20
REMARK    3  A    between atoms: C_11  and  S_16
REMARK    4  A    between atoms: C_25  and  O_26
REMARK    5  A    between atoms: O_26  and  C_27
REMARK                            x       y       z     vdW  Elec       q    Type
REMARK                         _______ _______ _______ _____ _____    ______ ____
ROOT
ATOM      1  N   UNL     1      35.031 -24.095 -12.137  0.00  0.00    -0.123 N 
ATOM      2  N   UNL     1      33.684 -24.173 -12.182  0.00  0.00    -0.163 NA
ATOM      3  N   UNL     1      35.712 -24.513 -11.033  0.00  0.00    -0.125 NA
ATOM      4  C   UNL     1      34.512 -23.293 -14.124  0.00  0.00    +0.103 C 
ATOM      5  C   UNL     1      33.379 -23.685 -13.387  0.00  0.00    +0.087 C 
ATOM      6  C   UNL     1      35.570 -23.568 -13.293  0.00  0.00    +0.078 C 
ATOM      7  C   UNL     1      36.974 -23.437 -13.365  0.00  0.00    +0.016 C 
ATOM      8  C   UNL     1      37.719 -23.823 -12.322  0.00  0.00    +0.021 C 
ATOM      9  C   UNL     1      36.997 -24.371 -11.148  0.00  0.00    +0.106 C 
ENDROOT
BRANCH   4  10
ATOM     10  C   UNL     1      34.637 -22.729 -15.437  0.00  0.00    -0.011 C 
ATOM     11  C   UNL     1      34.880 -21.632 -17.992  0.00  0.00    +0.106 C 
ATOM     12  C   UNL     1      33.592 -22.855 -16.355  0.00  0.00    -0.002 C 
ATOM     13  C   UNL     1      35.802 -22.054 -15.799  0.00  0.00    -0.002 C 
ATOM     14  C   UNL     1      33.714 -22.307 -17.631  0.00  0.00    +0.018 C 
ATOM     15  C   UNL     1      35.925 -21.506 -17.076  0.00  0.00    +0.018 C 
BRANCH  11  16
ATOM     16  S   UNL     1      35.031 -20.945 -19.590  0.00  0.00    +0.010 S 
ATOM     17  O   UNL     1      35.966 -19.832 -19.512  0.00  0.00    -0.169 OA
ATOM     18  O   UNL     1      35.265 -22.019 -20.546  0.00  0.00    -0.169 OA
ATOM     19  C   UNL     1      33.418 -20.281 -19.940  0.00  0.00    +0.182 C 
ENDBRANCH  11  16
ENDBRANCH   4  10
BRANCH   5  20
ATOM     20  C   UNL     1      32.002 -23.609 -13.803  0.00  0.00    +0.016 C 
ATOM     21  C   UNL     1      31.425 -22.370 -14.067  0.00  0.00    +0.004 C 
ATOM     22  C   UNL     1      31.254 -24.776 -13.938  0.00  0.00    +0.004 C 
ATOM     23  C   UNL     1      30.092 -22.297 -14.470  0.00  0.00    +0.037 C 
ATOM     24  C   UNL     1      29.920 -24.703 -14.341  0.00  0.00    +0.037 C 
ATOM     25  C   UNL     1      29.339 -23.463 -14.606  0.00  0.00    +0.139 C 
BRANCH  25  26
ATOM     26  O   UNL     1      28.038 -23.392 -14.999  0.00  0.00    -0.475 OA
BRANCH  26  27
ATOM     27  C   UNL     1      27.788 -23.313 -16.402  0.00  0.00    +0.206 C 
ATOM     28  C   UNL     1      27.030 -22.035 -16.696  0.00  0.00    +0.051 C 
ENDBRANCH  26  27
ENDBRANCH  25  26
ENDBRANCH   5  20
TORSDOF 5
ENDMDL
MODEL 2
REMARK VINA RESULT:      -9.6      3.845      7.480
REMARK  Name = 9832687
REMARK  5 active torsions:
REMARK  status: ('A' for Active; 'I' for Inactive)
REMARK    1  A    between atoms: C_4  and  C_10
REMARK    2  A    between atoms: C_5  and  C_20
REMARK    3  A    between atoms: C_11  and  S_16
REMARK    4  A    between atoms: C_25  and  O_26
REMARK    5  A    between atoms: O_26  and  C_27
REMARK                            x       y       z     vdW  Elec       q    Type
REMARK                         _______ _______ _______ _____ _____    ______ ____
ROOT
ATOM      1  N   UNL     1      35.476 -20.867 -18.725  0.00  0.00    -0.123 N 
ATOM      2  N   UNL     1      36.387 -21.193 -17.783  0.00  0.00    -0.163 NA
ATOM      3  N   UNL     1      35.851 -20.185 -19.844  0.00  0.00    -0.125 NA
ATOM      4  C   UNL     1      34.307 -21.936 -17.192  0.00  0.00    +0.103 C 
ATOM      5  C   UNL     1      35.670 -21.839 -16.860  0.00  0.00    +0.087 C 
ATOM      6  C   UNL     1      34.205 -21.298 -18.405  0.00  0.00    +0.078 C 
ATOM      7  C   UNL     1      33.165 -21.015 -19.315  0.00  0.00    +0.016 C 
ATOM      8  C   UNL     1      33.446 -20.347 -20.440  0.00  0.00    +0.021 C 
ATOM      9  C   UNL     1      34.860 -19.949 -20.647  0.00  0.00    +0.106 C 
ENDROOT
BRANCH   4  10
ATOM     10  C   UNL     1      33.205 -22.536 -16.497  0.00  0.00    -0.011 C 
ATOM     11  C   UNL     1      31.059 -23.702 -15.144  0.00  0.00    +0.106 C 
ATOM     12  C   UNL     1      31.896 -22.292 -16.918  0.00  0.00    -0.002 C 
ATOM     13  C   UNL     1      33.438 -23.363 -15.398  0.00  0.00    -0.002 C 
ATOM     14  C   UNL     1      30.824 -22.875 -16.242  0.00  0.00    +0.018 C 
ATOM     15  C   UNL     1      32.366 -23.946 -14.722  0.00  0.00    +0.018 C 
BRANCH  11  16
ATOM     16  S   UNL     1      29.718 -24.432 -14.299  0.00  0.00    +0.010 S 
ATOM     17  O   UNL     1      29.641 -25.829 -14.702  0.00  0.00    -0.169 OA
ATOM     18  O   UNL     1      29.809 -24.092 -12.885  0.00  0.00    -0.169 OA
ATOM     19  C   UNL     1      28.284 -23.598 -14.941  0.00  0.00    +0.182 C 
ENDBRANCH  11  16
ENDBRANCH   4  10
BRANCH   5  20
ATOM     20  C   UNL     1      36.316 -22.350 -15.678  0.00  0.00    +0.016 C 
ATOM     21  C   UNL     1      37.479 -23.107 -15.795  0.00  0.00    +0.004 C 
ATOM     22  C   UNL     1      35.774 -22.083 -14.423  0.00  0.00    +0.004 C 
ATOM     23  C   UNL     1      38.103 -23.600 -14.651  0.00  0.00    +0.037 C 
ATOM     24  C   UNL     1      36.399 -22.576 -13.278  0.00  0.00    +0.037 C 
ATOM     25  C   UNL     1      37.564 -23.336 -13.391  0.00  0.00    +0.139 C 
BRANCH  25  26
ATOM     26  O   UNL     1      38.174 -23.817 -12.274  0.00  0.00    -0.475 OA
BRANCH  26  27
ATOM     27  C   UNL     1      37.386 -24.624 -11.401  0.00  0.00    +0.206 C 
ATOM     28  C   UNL     1      36.984 -25.890 -12.129  0.00  0.00    +0.051 C 
ENDBRANCH  26  27
ENDBRANCH  25  26
ENDBRANCH   5  20
TORSDOF 5
ENDMDL
MODEL 3
REMARK VINA RESULT:      -9.1      3.979      5.690
REMARK  Name = 9832687
REMARK  5 active torsions:
REMARK  status: ('A' for Active; 'I' for Inactive)
REMARK    1  A    between atoms: C_4  and  C_10
REMARK    2  A    between atoms: C_5  and  C_20
REMARK    3  A    between atoms: C_11  and  S_16
REMARK    4  A    between atoms: C_25  and  O_26
REMARK    5  A    between atoms: O_26  and  C_27
REMARK                            x       y       z     vdW  Elec       q    Type
REMARK                         _______ _______ _______ _____ _____    ______ ____
ROOT
ATOM      1  N   UNL     1      33.396 -21.266 -18.820  0.00  0.00    -0.123 N 
ATOM      2  N   UNL     1      32.270 -21.630 -18.167  0.00  0.00    -0.163 NA
ATOM      3  N   UNL     1      33.324 -20.627 -20.021  0.00  0.00    -0.125 NA
ATOM      4  C   UNL     1      34.129 -22.235 -16.980  0.00  0.00    +0.103 C 
ATOM      5  C   UNL     1      32.724 -22.215 -17.056  0.00  0.00    +0.087 C 
ATOM      6  C   UNL     1      34.541 -21.615 -18.134  0.00  0.00    +0.078 C 
ATOM      7  C   UNL     1      35.784 -21.286 -18.718  0.00  0.00    +0.016 C 
ATOM      8  C   UNL     1      35.803 -20.658 -19.899  0.00  0.00    +0.021 C 
ATOM      9  C   UNL     1      34.490 -20.348 -20.516  0.00  0.00    +0.106 C 
ENDROOT
BRANCH   4  10
ATOM     10  C   UNL     1      35.014 -22.756 -15.978  0.00  0.00    -0.011 C 
ATOM     11  C   UNL     1      36.735 -23.771 -14.029  0.00  0.00    +0.106 C 
ATOM     12  C   UNL     1      34.989 -24.115 -15.662  0.00  0.00    -0.002 C 
ATOM     13  C   UNL     1      35.901 -21.905 -15.318  0.00  0.00    -0.002 C 
ATOM     14  C   UNL     1      35.850 -24.622 -14.688  0.00  0.00    +0.018 C 
ATOM     15  C   UNL     1      36.761 -22.411 -14.343  0.00  0.00    +0.018 C 
BRANCH  11  16
ATOM     16  S   UNL     1      37.813 -24.405 -12.811  0.00  0.00    +0.010 S 
ATOM     17  O   UNL     1      38.232 -23.300 -11.963  0.00  0.00    -0.169 OA
ATOM     18  O   UNL     1      37.204 -25.586 -12.211  0.00  0.00    -0.169 OA
ATOM     19  C   UNL     1      39.233 -24.963 -13.725  0.00  0.00    +0.182 C 
ENDBRANCH  11  16
ENDBRANCH   4  10
BRANCH   5  20
ATOM     20  C   UNL     1      31.793 -22.742 -16.091  0.00  0.00    +0.016 C 
ATOM     21  C   UNL     1      30.424 -22.589 -16.294  0.00  0.00    +0.004 C 
ATOM     22  C   UNL     1      32.267 -23.401 -14.960  0.00  0.00    +0.004 C 
ATOM     23  C   UNL     1      29.524 -23.099 -15.360  0.00  0.00    +0.037 C 
ATOM     24  C   UNL     1      31.366 -23.911 -14.025  0.00  0.00    +0.037 C 
ATOM     25  C   UNL     1      29.994 -23.760 -14.225  0.00  0.00    +0.139 C 
BRANCH  25  26
ATOM     26  O   UNL     1      29.114 -24.258 -13.313  0.00  0.00    -0.475 OA
BRANCH  26  27
ATOM     27  C   UNL     1      28.358 -25.404 -13.702  0.00  0.00    +0.206 C 
ATOM     28  C   UNL     1      28.888 -25.919 -15.024  0.00  0.00    +0.051 C 
ENDBRANCH  26  27
ENDBRANCH  25  26
ENDBRANCH   5  20
TORSDOF 5
ENDMDL
MODEL 4
REMARK VINA RESULT:      -8.9     16.159     19.704
REMARK  Name = 9832687
REMARK  5 active torsions:
REMARK  status: ('A' for Active; 'I' for Inactive)
REMARK    1  A    between atoms: C_4  and  C_10
REMARK    2  A    between atoms: C_5  and  C_20
REMARK    3  A    between atoms: C_11  and  S_16
REMARK    4  A    between atoms: C_25  and  O_26
REMARK    5  A    between atoms: O_26  and  C_27
REMARK                            x       y       z     vdW  Elec       q    Type
REMARK                         _______ _______ _______ _____ _____    ______ ____
ROOT
ATOM      1  N   UNL     1      30.841  -4.406 -22.316  0.00  0.00    -0.123 N 
ATOM      2  N   UNL     1      31.042  -5.721 -22.081  0.00  0.00    -0.163 NA
ATOM      3  N   UNL     1      30.055  -3.666 -21.484  0.00  0.00    -0.125 NA
ATOM      4  C   UNL     1      32.165  -5.051 -23.957  0.00  0.00    +0.103 C 
ATOM      5  C   UNL     1      31.844  -6.101 -23.079  0.00  0.00    +0.087 C 
ATOM      6  C   UNL     1      31.503  -3.962 -23.442  0.00  0.00    +0.078 C 
ATOM      7  C   UNL     1      31.369  -2.602 -23.792  0.00  0.00    +0.016 C 
ATOM      8  C   UNL     1      30.613  -1.804 -23.028  0.00  0.00    +0.021 C 
ATOM      9  C   UNL     1      29.963  -2.424 -21.848  0.00  0.00    +0.106 C 
ENDROOT
BRANCH   4  10
ATOM     10  C   UNL     1      32.980  -5.020 -25.137  0.00  0.00    -0.011 C 
ATOM     11  C   UNL     1      34.565  -4.963 -27.434  0.00  0.00    +0.106 C 
ATOM     12  C   UNL     1      32.466  -5.475 -26.353  0.00  0.00    -0.002 C 
ATOM     13  C   UNL     1      34.287  -4.537 -25.072  0.00  0.00    -0.002 C 
ATOM     14  C   UNL     1      33.258  -5.446 -27.501  0.00  0.00    +0.018 C 
ATOM     15  C   UNL     1      35.080  -4.509 -26.220  0.00  0.00    +0.018 C 
BRANCH  11  16
ATOM     16  S   UNL     1      35.555  -4.926 -28.871  0.00  0.00    +0.010 S 
ATOM     17  O   UNL     1      36.869  -5.449 -28.524  0.00  0.00    -0.169 OA
ATOM     18  O   UNL     1      34.810  -5.519 -29.974  0.00  0.00    -0.169 OA
ATOM     19  C   UNL     1      35.735  -3.195 -29.239  0.00  0.00    +0.182 C 
ENDBRANCH  11  16
ENDBRANCH   4  10
BRANCH   5  20
ATOM     20  C   UNL     1      32.284  -7.471 -23.163  0.00  0.00    +0.016 C 
ATOM     21  C   UNL     1      33.624  -7.754 -23.410  0.00  0.00    +0.004 C 
ATOM     22  C   UNL     1      31.365  -8.504 -22.996  0.00  0.00    +0.004 C 
ATOM     23  C   UNL     1      34.049  -9.080 -23.491  0.00  0.00    +0.037 C 
ATOM     24  C   UNL     1      31.790  -9.830 -23.077  0.00  0.00    +0.037 C 
ATOM     25  C   UNL     1      33.132 -10.119 -23.325  0.00  0.00    +0.139 C 
BRANCH  25  26
ATOM     26  O   UNL     1      33.547 -11.412 -23.403  0.00  0.00    -0.475 OA
BRANCH  26  27
ATOM     27  C   UNL     1      32.796 -12.380 -22.671  0.00  0.00    +0.206 C 
ATOM     28  C   UNL     1      33.719 -13.504 -22.250  0.00  0.00    +0.051 C 
ENDBRANCH  26  27
ENDBRANCH  25  26
ENDBRANCH   5  20
TORSDOF 5
ENDMDL
MODEL 5
REMARK VINA RESULT:      -8.8      3.810      7.145
REMARK  Name = 9832687
REMARK  5 active torsions:
REMARK  status: ('A' for Active; 'I' for Inactive)
REMARK    1  A    between atoms: C_4  and  C_10
REMARK    2  A    between atoms: C_5  and  C_20
REMARK    3  A    between atoms: C_11  and  S_16
REMARK    4  A    between atoms: C_25  and  O_26
REMARK    5  A    between atoms: O_26  and  C_27
REMARK                            x       y       z     vdW  Elec       q    Type
REMARK                         _______ _______ _______ _____ _____    ______ ____
ROOT
ATOM      1  N   UNL     1      35.292 -21.223 -18.443  0.00  0.00    -0.123 N 
ATOM      2  N   UNL     1      35.895 -21.794 -17.378  0.00  0.00    -0.163 NA
ATOM      3  N   UNL     1      36.029 -20.589 -19.398  0.00  0.00    -0.125 NA
ATOM      4  C   UNL     1      33.627 -22.073 -17.274  0.00  0.00    +0.103 C 
ATOM      5  C   UNL     1      34.879 -22.305 -16.677  0.00  0.00    +0.087 C 
ATOM      6  C   UNL     1      33.920 -21.370 -18.417  0.00  0.00    +0.078 C 
ATOM      7  C   UNL     1      33.178 -20.813 -19.481  0.00  0.00    +0.016 C 
ATOM      8  C   UNL     1      33.825 -20.171 -20.461  0.00  0.00    +0.021 C 
ATOM      9  C   UNL     1      35.302 -20.094 -20.352  0.00  0.00    +0.106 C 
ENDROOT
BRANCH   4  10
ATOM     10  C   UNL     1      32.302 -22.441 -16.866  0.00  0.00    -0.011 C 
ATOM     11  C   UNL     1      29.724 -23.157 -16.071  0.00  0.00    +0.106 C 
ATOM     12  C   UNL     1      32.118 -23.414 -15.882  0.00  0.00    -0.002 C 
ATOM     13  C   UNL     1      31.195 -21.827 -17.452  0.00  0.00    -0.002 C 
ATOM     14  C   UNL     1      30.830 -23.771 -15.485  0.00  0.00    +0.018 C 
ATOM     15  C   UNL     1      29.906 -22.185 -17.055  0.00  0.00    +0.018 C 
BRANCH  11  16
ATOM     16  S   UNL     1      28.112 -23.604 -15.573  0.00  0.00    +0.010 S 
ATOM     17  O   UNL     1      27.515 -22.458 -14.904  0.00  0.00    -0.169 OA
ATOM     18  O   UNL     1      27.424 -24.222 -16.700  0.00  0.00    -0.169 OA
ATOM     19  C   UNL     1      28.362 -24.878 -14.357  0.00  0.00    +0.182 C 
ENDBRANCH  11  16
ENDBRANCH   4  10
BRANCH   5  20
ATOM     20  C   UNL     1      35.139 -23.007 -15.446  0.00  0.00    +0.016 C 
ATOM     21  C   UNL     1      35.090 -22.324 -14.234  0.00  0.00    +0.004 C 
ATOM     22  C   UNL     1      35.439 -24.367 -15.475  0.00  0.00    +0.004 C 
ATOM     23  C   UNL     1      35.341 -23.004 -13.044  0.00  0.00    +0.037 C 
ATOM     24  C   UNL     1      35.691 -25.048 -14.283  0.00  0.00    +0.037 C 
ATOM     25  C   UNL     1      35.643 -24.366 -13.067  0.00  0.00    +0.139 C 
BRANCH  25  26
ATOM     26  O   UNL     1      35.887 -25.030 -11.905  0.00  0.00    -0.475 OA
BRANCH  26  27
ATOM     27  C   UNL     1      36.744 -24.390 -10.960  0.00  0.00    +0.206 C 
ATOM     28  C   UNL     1      38.079 -24.108 -11.617  0.00  0.00    +0.051 C 
ENDBRANCH  26  27
ENDBRANCH  25  26
ENDBRANCH   5  20
TORSDOF 5
ENDMDL
MODEL 6
REMARK VINA RESULT:      -8.2     16.210     19.810
REMARK  Name = 9832687
REMARK  5 active torsions:
REMARK  status: ('A' for Active; 'I' for Inactive)
REMARK    1  A    between atoms: C_4  and  C_10
REMARK    2  A    between atoms: C_5  and  C_20
REMARK    3  A    between atoms: C_11  and  S_16
REMARK    4  A    between atoms: C_25  and  O_26
REMARK    5  A    between atoms: O_26  and  C_27
REMARK                            x       y       z     vdW  Elec       q    Type
REMARK                         _______ _______ _______ _____ _____    ______ ____
ROOT
ATOM      1  N   UNL     1      30.715  -4.494 -22.514  0.00  0.00    -0.123 N 
ATOM      2  N   UNL     1      30.956  -5.801 -22.271  0.00  0.00    -0.163 NA
ATOM      3  N   UNL     1      29.878  -3.783 -21.708  0.00  0.00    -0.125 NA
ATOM      4  C   UNL     1      32.113  -5.091 -24.111  0.00  0.00    +0.103 C 
ATOM      5  C   UNL     1      31.802  -6.152 -23.243  0.00  0.00    +0.087 C 
ATOM      6  C   UNL     1      31.397  -4.027 -23.619  0.00  0.00    +0.078 C 
ATOM      7  C   UNL     1      31.225  -2.672 -23.974  0.00  0.00    +0.016 C 
ATOM      8  C   UNL     1      30.418  -1.901 -23.235  0.00  0.00    +0.021 C 
ATOM      9  C   UNL     1      29.753  -2.545 -22.076  0.00  0.00    +0.106 C 
ENDROOT
BRANCH   4  10
ATOM     10  C   UNL     1      32.963  -5.031 -25.265  0.00  0.00    -0.011 C 
ATOM     11  C   UNL     1      34.617  -4.914 -27.511  0.00  0.00    +0.106 C 
ATOM     12  C   UNL     1      34.279  -4.581 -25.142  0.00  0.00    -0.002 C 
ATOM     13  C   UNL     1      32.476  -5.422 -26.513  0.00  0.00    -0.002 C 
ATOM     14  C   UNL     1      35.105  -4.523 -26.265  0.00  0.00    +0.018 C 
ATOM     15  C   UNL     1      33.303  -5.363 -27.635  0.00  0.00    +0.018 C 
BRANCH  11  16
ATOM     16  S   UNL     1      35.653  -4.842 -28.915  0.00  0.00    +0.010 S 
ATOM     17  O   UNL     1      37.018  -5.095 -28.479  0.00  0.00    -0.169 OA
ATOM     18  O   UNL     1      35.070  -5.657 -29.973  0.00  0.00    -0.169 OA
ATOM     19  C   UNL     1      35.553  -3.149 -29.451  0.00  0.00    +0.182 C 
ENDBRANCH  11  16
ENDBRANCH   4  10
BRANCH   5  20
ATOM     20  C   UNL     1      32.293  -7.505 -23.312  0.00  0.00    +0.016 C 
ATOM     21  C   UNL     1      31.394  -8.565 -23.404  0.00  0.00    +0.004 C 
ATOM     22  C   UNL     1      33.664  -7.746 -23.286  0.00  0.00    +0.004 C 
ATOM     23  C   UNL     1      31.870  -9.873 -23.471  0.00  0.00    +0.037 C 
ATOM     24  C   UNL     1      34.140  -9.056 -23.353  0.00  0.00    +0.037 C 
ATOM     25  C   UNL     1      33.243 -10.120 -23.445  0.00  0.00    +0.139 C 
BRANCH  25  26
ATOM     26  O   UNL     1      33.707 -11.397 -23.511  0.00  0.00    -0.475 OA
BRANCH  26  27
ATOM     27  C   UNL     1      32.891 -12.350 -24.192  0.00  0.00    +0.206 C 
ATOM     28  C   UNL     1      32.411 -13.387 -23.198  0.00  0.00    +0.051 C 
ENDBRANCH  26  27
ENDBRANCH  25  26
ENDBRANCH   5  20
TORSDOF 5
ENDMDL
