MODEL 1
REMARK VINA RESULT:     -11.9      0.000      0.000
REMARK  Name = 445951
REMARK  8 active torsions:
REMARK  status: ('A' for Active; 'I' for Inactive)
REMARK    1  A    between atoms: N_1  and  C_20
REMARK    2  A    between atoms: N_3  and  C_13
REMARK    3  A    between atoms: C_19  and  O_25
REMARK    4  A    between atoms: O_25  and  C_26
REMARK    5  A    between atoms: C_26  and  C_27
REMARK    6  A    between atoms: C_27  and  O_28
REMARK    7  A    between atoms: C_27  and  C_30
REMARK    8  A    between atoms: C_30  and  N_31
REMARK                            x       y       z     vdW  Elec       q    Type
REMARK                         _______ _______ _______ _____ _____    ______ ____
ROOT
ATOM      1  N   UNL     1      34.497 -20.895 -19.749  0.00  0.00    -0.301 N 
ATOM      2  H   UNL     1      33.791 -21.379 -20.233  0.00  0.00    +0.153 HD
ATOM      3  N   UNL     1      33.784 -17.305 -22.822  0.00  0.00    -0.298 N 
ATOM      4  N   UNL     1      36.277 -19.395 -20.252  0.00  0.00    -0.233 NA
ATOM      5  N   UNL     1      35.917 -17.584 -21.802  0.00  0.00    -0.233 NA
ATOM      6  C   UNL     1      34.991 -19.772 -20.441  0.00  0.00    +0.113 C 
ATOM      7  C   UNL     1      34.124 -19.105 -21.287  0.00  0.00    +0.122 C 
ATOM      8  C   UNL     1      34.646 -18.011 -21.947  0.00  0.00    +0.113 C 
ATOM      9  C   UNL     1      36.667 -18.312 -20.952  0.00  0.00    +0.252 C 
ATOM     10  H   UNL     1      33.091 -17.868 -23.238  0.00  0.00    +0.153 HD
ENDROOT
BRANCH   3  13
ATOM     11  F   UNL     1      33.232 -16.580 -25.450  0.00  0.00    -0.203 F 
ATOM     12  F   UNL     1      34.217 -15.251 -20.998  0.00  0.00    -0.203 F 
ATOM     13  C   UNL     1      33.726 -15.957 -23.212  0.00  0.00    +0.105 C 
ATOM     14  C   UNL     1      33.448 -15.620 -24.540  0.00  0.00    +0.156 C 
ATOM     15  C   UNL     1      33.949 -14.943 -22.275  0.00  0.00    +0.156 C 
ATOM     16  C   UNL     1      33.392 -14.281 -24.928  0.00  0.00    +0.031 C 
ATOM     17  C   UNL     1      33.893 -13.604 -22.663  0.00  0.00    +0.031 C 
ATOM     18  C   UNL     1      33.615 -13.273 -23.989  0.00  0.00    +0.005 C 
ENDBRANCH   3  13
BRANCH   1  20
ATOM     19  C   UNL     1      35.445 -22.580 -16.029  0.00  0.00    +0.139 C 
ATOM     20  C   UNL     1      34.816 -21.462 -18.498  0.00  0.00    +0.049 C 
ATOM     21  C   UNL     1      34.168 -22.746 -16.556  0.00  0.00    +0.038 C 
ATOM     22  C   UNL     1      36.410 -21.861 -16.726  0.00  0.00    +0.038 C 
ATOM     23  C   UNL     1      33.853 -22.186 -17.794  0.00  0.00    +0.018 C 
ATOM     24  C   UNL     1      36.095 -21.300 -17.964  0.00  0.00    +0.018 C 
BRANCH  19  25
ATOM     25  O   UNL     1      35.754 -23.130 -14.815  0.00  0.00    -0.473 OA
BRANCH  25  26
ATOM     26  C   UNL     1      35.287 -24.455 -14.575  0.00  0.00    +0.232 C 
BRANCH  26  27
ATOM     27  C   UNL     1      36.453 -25.427 -14.743  0.00  0.00    +0.133 C 
BRANCH  27  28
ATOM     28  O   UNL     1      36.082 -26.422 -15.701  0.00  0.00    -0.383 OA
ATOM     29  H   UNL     1      36.238 -26.084 -16.596  0.00  0.00    +0.210 HD
ENDBRANCH  27  28
BRANCH  27  30
ATOM     30  C   UNL     1      36.842 -26.136 -13.443  0.00  0.00    -0.044 C 
BRANCH  30  31
ATOM     31  N   UNL     1      38.091 -25.626 -12.893  0.00  0.00    +0.386 N 
ATOM     32  C   UNL     1      37.839 -24.483 -12.013  0.00  0.00    -0.101 C 
ATOM     33  C   UNL     1      39.012 -25.245 -13.966  0.00  0.00    -0.101 C 
ATOM     34  H   UNL     1      38.521 -26.369 -12.344  0.00  0.00    -0.080 HD
ENDBRANCH  30  31
ENDBRANCH  27  30
ENDBRANCH  26  27
ENDBRANCH  25  26
ENDBRANCH  19  25
ENDBRANCH   1  20
TORSDOF 8
ENDMDL
MODEL 2
REMARK VINA RESULT:     -11.9      0.059      1.512
REMARK  Name = 445951
REMARK  8 active torsions:
REMARK  status: ('A' for Active; 'I' for Inactive)
REMARK    1  A    between atoms: N_1  and  C_20
REMARK    2  A    between atoms: N_3  and  C_13
REMARK    3  A    between atoms: C_19  and  O_25
REMARK    4  A    between atoms: O_25  and  C_26
REMARK    5  A    between atoms: C_26  and  C_27
REMARK    6  A    between atoms: C_27  and  O_28
REMARK    7  A    between atoms: C_27  and  C_30
REMARK    8  A    between atoms: C_30  and  N_31
REMARK                            x       y       z     vdW  Elec       q    Type
REMARK                         _______ _______ _______ _____ _____    ______ ____
ROOT
ATOM      1  N   UNL     1      34.481 -20.885 -19.749  0.00  0.00    -0.301 N 
ATOM      2  H   UNL     1      33.775 -21.368 -20.235  0.00  0.00    +0.153 HD
ATOM      3  N   UNL     1      33.793 -17.299 -22.831  0.00  0.00    -0.298 N 
ATOM      4  N   UNL     1      36.268 -19.393 -20.248  0.00  0.00    -0.233 NA
ATOM      5  N   UNL     1      35.921 -17.584 -21.803  0.00  0.00    -0.233 NA
ATOM      6  C   UNL     1      34.982 -19.766 -20.442  0.00  0.00    +0.113 C 
ATOM      7  C   UNL     1      34.121 -19.098 -21.292  0.00  0.00    +0.122 C 
ATOM      8  C   UNL     1      34.649 -18.006 -21.951  0.00  0.00    +0.113 C 
ATOM      9  C   UNL     1      36.665 -18.312 -20.948  0.00  0.00    +0.252 C 
ATOM     10  H   UNL     1      33.100 -17.860 -23.249  0.00  0.00    +0.153 HD
ENDROOT
BRANCH   3  13
ATOM     11  F   UNL     1      34.232 -15.241 -21.012  0.00  0.00    -0.203 F 
ATOM     12  F   UNL     1      33.248 -16.579 -25.461  0.00  0.00    -0.203 F 
ATOM     13  C   UNL     1      33.742 -15.951 -23.224  0.00  0.00    +0.105 C 
ATOM     14  C   UNL     1      33.966 -14.936 -22.289  0.00  0.00    +0.156 C 
ATOM     15  C   UNL     1      33.465 -15.616 -24.553  0.00  0.00    +0.156 C 
ATOM     16  C   UNL     1      33.914 -13.598 -22.680  0.00  0.00    +0.031 C 
ATOM     17  C   UNL     1      33.413 -14.278 -24.943  0.00  0.00    +0.031 C 
ATOM     18  C   UNL     1      33.637 -13.269 -24.007  0.00  0.00    +0.005 C 
ENDBRANCH   3  13
BRANCH   1  20
ATOM     19  C   UNL     1      35.409 -22.567 -16.022  0.00  0.00    +0.139 C 
ATOM     20  C   UNL     1      34.794 -21.451 -18.495  0.00  0.00    +0.049 C 
ATOM     21  C   UNL     1      34.137 -22.738 -16.558  0.00  0.00    +0.038 C 
ATOM     22  C   UNL     1      36.376 -21.844 -16.712  0.00  0.00    +0.038 C 
ATOM     23  C   UNL     1      33.828 -22.179 -17.799  0.00  0.00    +0.018 C 
ATOM     24  C   UNL     1      36.068 -21.285 -17.952  0.00  0.00    +0.018 C 
BRANCH  19  25
ATOM     25  O   UNL     1      35.711 -23.116 -14.806  0.00  0.00    -0.473 OA
BRANCH  25  26
ATOM     26  C   UNL     1      35.266 -24.451 -14.577  0.00  0.00    +0.232 C 
BRANCH  26  27
ATOM     27  C   UNL     1      36.450 -25.400 -14.738  0.00  0.00    +0.133 C 
BRANCH  27  28
ATOM     28  O   UNL     1      36.094 -26.418 -15.679  0.00  0.00    -0.383 OA
ATOM     29  H   UNL     1      36.881 -26.688 -16.177  0.00  0.00    +0.210 HD
ENDBRANCH  27  28
BRANCH  27  30
ATOM     30  C   UNL     1      36.862 -26.082 -13.431  0.00  0.00    -0.044 C 
BRANCH  30  31
ATOM     31  N   UNL     1      38.149 -25.604 -12.945  0.00  0.00    +0.386 N 
ATOM     32  C   UNL     1      37.982 -24.380 -12.158  0.00  0.00    -0.101 C 
ATOM     33  C   UNL     1      39.067 -25.366 -14.061  0.00  0.00    -0.101 C 
ATOM     34  H   UNL     1      38.548 -26.325 -12.344  0.00  0.00    -0.080 HD
ENDBRANCH  30  31
ENDBRANCH  27  30
ENDBRANCH  26  27
ENDBRANCH  25  26
ENDBRANCH  19  25
ENDBRANCH   1  20
TORSDOF 8
ENDMDL
MODEL 3
REMARK VINA RESULT:     -11.8      1.644      2.253
REMARK  Name = 445951
REMARK  8 active torsions:
REMARK  status: ('A' for Active; 'I' for Inactive)
REMARK    1  A    between atoms: N_1  and  C_20
REMARK    2  A    between atoms: N_3  and  C_13
REMARK    3  A    between atoms: C_19  and  O_25
REMARK    4  A    between atoms: O_25  and  C_26
REMARK    5  A    between atoms: C_26  and  C_27
REMARK    6  A    between atoms: C_27  and  O_28
REMARK    7  A    between atoms: C_27  and  C_30
REMARK    8  A    between atoms: C_30  and  N_31
REMARK                            x       y       z     vdW  Elec       q    Type
REMARK                         _______ _______ _______ _____ _____    ______ ____
ROOT
ATOM      1  N   UNL     1      33.813 -22.040 -18.359  0.00  0.00    -0.301 N 
ATOM      2  H   UNL     1      33.153 -22.550 -18.881  0.00  0.00    +0.153 HD
ATOM      3  N   UNL     1      33.930 -18.954 -22.006  0.00  0.00    -0.298 N 
ATOM      4  N   UNL     1      35.778 -20.758 -18.764  0.00  0.00    -0.233 NA
ATOM      5  N   UNL     1      35.838 -19.202 -20.603  0.00  0.00    -0.233 NA
ATOM      6  C   UNL     1      34.511 -21.078 -19.114  0.00  0.00    +0.113 C 
ATOM      7  C   UNL     1      33.855 -20.502 -20.187  0.00  0.00    +0.122 C 
ATOM      8  C   UNL     1      34.573 -19.564 -20.900  0.00  0.00    +0.113 C 
ATOM      9  C   UNL     1      36.372 -19.829 -19.538  0.00  0.00    +0.252 C 
ATOM     10  H   UNL     1      33.266 -19.532 -22.448  0.00  0.00    +0.153 HD
ENDROOT
BRANCH   3  13
ATOM     11  F   UNL     1      33.569 -18.584 -24.739  0.00  0.00    -0.203 F 
ATOM     12  F   UNL     1      34.557 -16.710 -20.489  0.00  0.00    -0.203 F 
ATOM     13  C   UNL     1      34.058 -17.686 -22.596  0.00  0.00    +0.105 C 
ATOM     14  C   UNL     1      33.872 -17.528 -23.972  0.00  0.00    +0.156 C 
ATOM     15  C   UNL     1      34.375 -16.574 -21.810  0.00  0.00    +0.156 C 
ATOM     16  C   UNL     1      34.000 -16.268 -24.558  0.00  0.00    +0.031 C 
ATOM     17  C   UNL     1      34.503 -15.314 -22.396  0.00  0.00    +0.031 C 
ATOM     18  C   UNL     1      34.317 -15.161 -23.769  0.00  0.00    +0.005 C 
ENDBRANCH   3  13
BRANCH   1  20
ATOM     19  C   UNL     1      33.995 -23.161 -14.323  0.00  0.00    +0.139 C 
ATOM     20  C   UNL     1      33.874 -22.418 -17.001  0.00  0.00    +0.049 C 
ATOM     21  C   UNL     1      32.782 -23.223 -15.002  0.00  0.00    +0.038 C 
ATOM     22  C   UNL     1      35.147 -22.731 -14.972  0.00  0.00    +0.038 C 
ATOM     23  C   UNL     1      32.722 -22.851 -16.346  0.00  0.00    +0.018 C 
ATOM     24  C   UNL     1      35.087 -22.358 -16.314  0.00  0.00    +0.018 C 
BRANCH  19  25
ATOM     25  O   UNL     1      34.053 -23.527 -13.006  0.00  0.00    -0.473 OA
BRANCH  25  26
ATOM     26  C   UNL     1      35.281 -23.279 -12.327  0.00  0.00    +0.232 C 
BRANCH  26  27
ATOM     27  C   UNL     1      35.937 -24.616 -11.991  0.00  0.00    +0.133 C 
BRANCH  27  28
ATOM     28  O   UNL     1      35.588 -24.971 -10.649  0.00  0.00    -0.383 OA
ATOM     29  H   UNL     1      35.756 -25.915 -10.509  0.00  0.00    +0.210 HD
ENDBRANCH  27  28
BRANCH  27  30
ATOM     30  C   UNL     1      37.464 -24.585 -12.095  0.00  0.00    -0.044 C 
BRANCH  30  31
ATOM     31  N   UNL     1      37.986 -25.722 -12.841  0.00  0.00    +0.386 N 
ATOM     32  C   UNL     1      39.175 -25.336 -13.604  0.00  0.00    -0.101 C 
ATOM     33  C   UNL     1      36.964 -26.265 -13.738  0.00  0.00    -0.101 C 
ATOM     34  H   UNL     1      38.249 -26.445 -12.172  0.00  0.00    -0.080 HD
ENDBRANCH  30  31
ENDBRANCH  27  30
ENDBRANCH  26  27
ENDBRANCH  25  26
ENDBRANCH  19  25
ENDBRANCH   1  20
TORSDOF 8
ENDMDL
MODEL 4
REMARK VINA RESULT:     -11.5      4.978     11.386
REMARK  Name = 445951
REMARK  8 active torsions:
REMARK  status: ('A' for Active; 'I' for Inactive)
REMARK    1  A    between atoms: N_1  and  C_20
REMARK    2  A    between atoms: N_3  and  C_13
REMARK    3  A    between atoms: C_19  and  O_25
REMARK    4  A    between atoms: O_25  and  C_26
REMARK    5  A    between atoms: C_26  and  C_27
REMARK    6  A    between atoms: C_27  and  O_28
REMARK    7  A    between atoms: C_27  and  C_30
REMARK    8  A    between atoms: C_30  and  N_31
REMARK                            x       y       z     vdW  Elec       q    Type
REMARK                         _______ _______ _______ _____ _____    ______ ____
ROOT
ATOM      1  N   UNL     1      34.969 -18.692 -21.778  0.00  0.00    -0.301 N 
ATOM      2  H   UNL     1      35.843 -19.044 -22.058  0.00  0.00    +0.153 HD
ATOM      3  N   UNL     1      35.166 -21.808 -18.159  0.00  0.00    -0.298 N 
ATOM      4  N   UNL     1      32.953 -19.524 -20.819  0.00  0.00    -0.233 NA
ATOM      5  N   UNL     1      33.053 -21.095 -18.994  0.00  0.00    -0.233 NA
ATOM      6  C   UNL     1      34.306 -19.505 -20.837  0.00  0.00    +0.113 C 
ATOM      7  C   UNL     1      35.084 -20.249 -19.970  0.00  0.00    +0.122 C 
ATOM      8  C   UNL     1      34.398 -21.032 -19.063  0.00  0.00    +0.113 C 
ATOM      9  C   UNL     1      32.402 -20.327 -19.888  0.00  0.00    +0.252 C 
ATOM     10  H   UNL     1      36.038 -22.090 -18.519  0.00  0.00    +0.153 HD
ENDROOT
BRANCH   3  13
ATOM     11  F   UNL     1      32.963 -23.395 -17.554  0.00  0.00    -0.203 F 
ATOM     12  F   UNL     1      36.867 -21.139 -16.064  0.00  0.00    -0.203 F 
ATOM     13  C   UNL     1      34.923 -22.253 -16.850  0.00  0.00    +0.105 C 
ATOM     14  C   UNL     1      33.808 -23.050 -16.573  0.00  0.00    +0.156 C 
ATOM     15  C   UNL     1      35.794 -21.902 -15.814  0.00  0.00    +0.156 C 
ATOM     16  C   UNL     1      33.566 -23.492 -15.272  0.00  0.00    +0.031 C 
ATOM     17  C   UNL     1      35.552 -22.343 -14.513  0.00  0.00    +0.031 C 
ATOM     18  C   UNL     1      34.438 -23.138 -14.241  0.00  0.00    +0.005 C 
ENDBRANCH   3  13
BRANCH   1  20
ATOM     19  C   UNL     1      33.943 -15.070 -23.623  0.00  0.00    +0.139 C 
ATOM     20  C   UNL     1      34.623 -17.474 -22.398  0.00  0.00    +0.049 C 
ATOM     21  C   UNL     1      33.918 -16.250 -24.359  0.00  0.00    +0.038 C 
ATOM     22  C   UNL     1      34.305 -15.082 -22.280  0.00  0.00    +0.038 C 
ATOM     23  C   UNL     1      34.258 -17.456 -23.744  0.00  0.00    +0.018 C 
ATOM     24  C   UNL     1      34.646 -16.287 -21.666  0.00  0.00    +0.018 C 
BRANCH  19  25
ATOM     25  O   UNL     1      33.608 -13.888 -24.226  0.00  0.00    -0.473 OA
BRANCH  25  26
ATOM     26  C   UNL     1      32.361 -13.310 -23.853  0.00  0.00    +0.232 C 
BRANCH  26  27
ATOM     27  C   UNL     1      32.609 -11.901 -23.321  0.00  0.00    +0.133 C 
BRANCH  27  28
ATOM     28  O   UNL     1      34.021 -11.696 -23.215  0.00  0.00    -0.383 OA
ATOM     29  H   UNL     1      34.195 -10.901 -22.688  0.00  0.00    +0.210 HD
ENDBRANCH  27  28
BRANCH  27  30
ATOM     30  C   UNL     1      31.986 -11.654 -21.945  0.00  0.00    -0.044 C 
BRANCH  30  31
ATOM     31  N   UNL     1      31.022 -10.562 -21.968  0.00  0.00    +0.386 N 
ATOM     32  C   UNL     1      31.530  -9.442 -22.763  0.00  0.00    -0.101 C 
ATOM     33  C   UNL     1      30.712 -10.117 -20.608  0.00  0.00    -0.101 C 
ATOM     34  H   UNL     1      30.165 -10.905 -22.401  0.00  0.00    -0.080 HD
ENDBRANCH  30  31
ENDBRANCH  27  30
ENDBRANCH  26  27
ENDBRANCH  25  26
ENDBRANCH  19  25
ENDBRANCH   1  20
TORSDOF 8
ENDMDL
MODEL 5
REMARK VINA RESULT:     -11.4      6.421      9.753
REMARK  Name = 445951
REMARK  8 active torsions:
REMARK  status: ('A' for Active; 'I' for Inactive)
REMARK    1  A    between atoms: N_1  and  C_20
REMARK    2  A    between atoms: N_3  and  C_13
REMARK    3  A    between atoms: C_19  and  O_25
REMARK    4  A    between atoms: O_25  and  C_26
REMARK    5  A    between atoms: C_26  and  C_27
REMARK    6  A    between atoms: C_27  and  O_28
REMARK    7  A    between atoms: C_27  and  C_30
REMARK    8  A    between atoms: C_30  and  N_31
REMARK                            x       y       z     vdW  Elec       q    Type
REMARK                         _______ _______ _______ _____ _____    ______ ____
ROOT
ATOM      1  N   UNL     1      31.984 -12.043 -22.680  0.00  0.00    -0.301 N 
ATOM      2  H   UNL     1      31.052 -12.261 -22.907  0.00  0.00    +0.153 HD
ATOM      3  N   UNL     1      30.741  -7.448 -23.103  0.00  0.00    -0.298 N 
ATOM      4  N   UNL     1      33.620 -10.424 -23.291  0.00  0.00    -0.233 NA
ATOM      5  N   UNL     1      32.993  -8.107 -23.504  0.00  0.00    -0.233 NA
ATOM      6  C   UNL     1      32.339 -10.710 -22.963  0.00  0.00    +0.113 C 
ATOM      7  C   UNL     1      31.346  -9.750 -22.888  0.00  0.00    +0.122 C 
ATOM      8  C   UNL     1      31.734  -8.456 -23.171  0.00  0.00    +0.113 C 
ATOM      9  C   UNL     1      33.873  -9.126 -23.545  0.00  0.00    +0.252 C 
ATOM     10  H   UNL     1      29.835  -7.767 -23.319  0.00  0.00    +0.153 HD
ENDROOT
BRANCH   3  13
ATOM     11  F   UNL     1      30.673  -5.500 -25.088  0.00  0.00    -0.203 F 
ATOM     12  F   UNL     1      30.929  -6.576 -20.469  0.00  0.00    -0.203 F 
ATOM     13  C   UNL     1      30.799  -6.081 -22.788  0.00  0.00    +0.105 C 
ATOM     14  C   UNL     1      30.763  -5.122 -23.805  0.00  0.00    +0.156 C 
ATOM     15  C   UNL     1      30.894  -5.669 -21.455  0.00  0.00    +0.156 C 
ATOM     16  C   UNL     1      30.822  -3.764 -23.492  0.00  0.00    +0.031 C 
ATOM     17  C   UNL     1      30.952  -4.311 -21.143  0.00  0.00    +0.031 C 
ATOM     18  C   UNL     1      30.917  -3.358 -22.161  0.00  0.00    +0.005 C 
ENDBRANCH   3  13
BRANCH   1  20
ATOM     19  C   UNL     1      34.122 -15.267 -21.064  0.00  0.00    +0.139 C 
ATOM     20  C   UNL     1      32.703 -13.128 -22.137  0.00  0.00    +0.049 C 
ATOM     21  C   UNL     1      33.317 -14.490 -20.238  0.00  0.00    +0.038 C 
ATOM     22  C   UNL     1      34.223 -14.984 -22.422  0.00  0.00    +0.038 C 
ATOM     23  C   UNL     1      32.604 -13.418 -20.776  0.00  0.00    +0.018 C 
ATOM     24  C   UNL     1      33.512 -13.912 -22.960  0.00  0.00    +0.018 C 
BRANCH  19  25
ATOM     25  O   UNL     1      34.819 -16.319 -20.536  0.00  0.00    -0.473 OA
BRANCH  25  26
ATOM     26  C   UNL     1      35.037 -17.438 -21.392  0.00  0.00    +0.232 C 
BRANCH  26  27
ATOM     27  C   UNL     1      36.113 -18.328 -20.777  0.00  0.00    +0.133 C 
BRANCH  27  28
ATOM     28  O   UNL     1      37.312 -18.191 -21.546  0.00  0.00    -0.383 OA
ATOM     29  H   UNL     1      37.247 -18.734 -22.347  0.00  0.00    +0.210 HD
ENDBRANCH  27  28
BRANCH  27  30
ATOM     30  C   UNL     1      35.730 -19.810 -20.748  0.00  0.00    -0.044 C 
BRANCH  30  31
ATOM     31  N   UNL     1      34.976 -20.158 -19.552  0.00  0.00    +0.386 N 
ATOM     32  C   UNL     1      35.640 -21.238 -18.819  0.00  0.00    -0.101 C 
ATOM     33  C   UNL     1      33.608 -20.549 -19.899  0.00  0.00    -0.101 C 
ATOM     34  H   UNL     1      34.936 -19.334 -18.952  0.00  0.00    -0.080 HD
ENDBRANCH  30  31
ENDBRANCH  27  30
ENDBRANCH  26  27
ENDBRANCH  25  26
ENDBRANCH  19  25
ENDBRANCH   1  20
TORSDOF 8
ENDMDL
MODEL 6
REMARK VINA RESULT:     -11.4      6.422      9.843
REMARK  Name = 445951
REMARK  8 active torsions:
REMARK  status: ('A' for Active; 'I' for Inactive)
REMARK    1  A    between atoms: N_1  and  C_20
REMARK    2  A    between atoms: N_3  and  C_13
REMARK    3  A    between atoms: C_19  and  O_25
REMARK    4  A    between atoms: O_25  and  C_26
REMARK    5  A    between atoms: C_26  and  C_27
REMARK    6  A    between atoms: C_27  and  O_28
REMARK    7  A    between atoms: C_27  and  C_30
REMARK    8  A    between atoms: C_30  and  N_31
REMARK                            x       y       z     vdW  Elec       q    Type
REMARK                         _______ _______ _______ _____ _____    ______ ____
ROOT
ATOM      1  N   UNL     1      31.978 -12.078 -22.642  0.00  0.00    -0.301 N 
ATOM      2  H   UNL     1      31.045 -12.301 -22.861  0.00  0.00    +0.153 HD
ATOM      3  N   UNL     1      30.683  -7.489 -22.963  0.00  0.00    -0.298 N 
ATOM      4  N   UNL     1      33.590 -10.432 -23.243  0.00  0.00    -0.233 NA
ATOM      5  N   UNL     1      32.937  -8.118 -23.405  0.00  0.00    -0.233 NA
ATOM      6  C   UNL     1      32.316 -10.736 -22.904  0.00  0.00    +0.113 C 
ATOM      7  C   UNL     1      31.315  -9.789 -22.799  0.00  0.00    +0.122 C 
ATOM      8  C   UNL     1      31.686  -8.486 -23.063  0.00  0.00    +0.113 C 
ATOM      9  C   UNL     1      33.826  -9.126 -23.476  0.00  0.00    +0.252 C 
ATOM     10  H   UNL     1      29.778  -7.814 -23.174  0.00  0.00    +0.153 HD
ENDROOT
BRANCH   3  13
ATOM     11  F   UNL     1      30.885  -6.662 -20.315  0.00  0.00    -0.203 F 
ATOM     12  F   UNL     1      30.581  -5.509 -24.912  0.00  0.00    -0.203 F 
ATOM     13  C   UNL     1      30.731  -6.127 -22.624  0.00  0.00    +0.105 C 
ATOM     14  C   UNL     1      30.832  -5.738 -21.285  0.00  0.00    +0.156 C 
ATOM     15  C   UNL     1      30.677  -5.151 -23.624  0.00  0.00    +0.156 C 
ATOM     16  C   UNL     1      30.878  -4.385 -20.948  0.00  0.00    +0.031 C 
ATOM     17  C   UNL     1      30.723  -3.798 -23.287  0.00  0.00    +0.031 C 
ATOM     18  C   UNL     1      30.823  -3.415 -21.950  0.00  0.00    +0.005 C 
ENDBRANCH   3  13
BRANCH   1  20
ATOM     19  C   UNL     1      34.169 -15.310 -21.113  0.00  0.00    +0.139 C 
ATOM     20  C   UNL     1      32.715 -13.166 -22.128  0.00  0.00    +0.049 C 
ATOM     21  C   UNL     1      33.389 -14.538 -20.257  0.00  0.00    +0.038 C 
ATOM     22  C   UNL     1      34.227 -15.018 -22.472  0.00  0.00    +0.038 C 
ATOM     23  C   UNL     1      32.659 -13.464 -20.766  0.00  0.00    +0.018 C 
ATOM     24  C   UNL     1      33.498 -13.944 -22.981  0.00  0.00    +0.018 C 
BRANCH  19  25
ATOM     25  O   UNL     1      34.884 -16.364 -20.613  0.00  0.00    -0.473 OA
BRANCH  25  26
ATOM     26  C   UNL     1      35.127 -17.451 -21.502  0.00  0.00    +0.232 C 
BRANCH  26  27
ATOM     27  C   UNL     1      36.233 -18.327 -20.918  0.00  0.00    +0.133 C 
BRANCH  27  28
ATOM     28  O   UNL     1      37.379 -18.243 -21.770  0.00  0.00    -0.383 OA
ATOM     29  H   UNL     1      38.156 -17.997 -21.244  0.00  0.00    +0.210 HD
ENDBRANCH  27  28
BRANCH  27  30
ATOM     30  C   UNL     1      35.836 -19.801 -20.796  0.00  0.00    -0.044 C 
BRANCH  30  31
ATOM     31  N   UNL     1      35.159 -20.083 -19.538  0.00  0.00    +0.386 N 
ATOM     32  C   UNL     1      35.876 -21.117 -18.787  0.00  0.00    -0.101 C 
ATOM     33  C   UNL     1      33.776 -20.499 -19.777  0.00  0.00    -0.101 C 
ATOM     34  H   UNL     1      35.151 -19.227 -18.984  0.00  0.00    -0.080 HD
ENDBRANCH  30  31
ENDBRANCH  27  30
ENDBRANCH  26  27
ENDBRANCH  25  26
ENDBRANCH  19  25
ENDBRANCH   1  20
TORSDOF 8
ENDMDL
MODEL 7
REMARK VINA RESULT:     -11.4      4.882     11.250
REMARK  Name = 445951
REMARK  8 active torsions:
REMARK  status: ('A' for Active; 'I' for Inactive)
REMARK    1  A    between atoms: N_1  and  C_20
REMARK    2  A    between atoms: N_3  and  C_13
REMARK    3  A    between atoms: C_19  and  O_25
REMARK    4  A    between atoms: O_25  and  C_26
REMARK    5  A    between atoms: C_26  and  C_27
REMARK    6  A    between atoms: C_27  and  O_28
REMARK    7  A    between atoms: C_27  and  C_30
REMARK    8  A    between atoms: C_30  and  N_31
REMARK                            x       y       z     vdW  Elec       q    Type
REMARK                         _______ _______ _______ _____ _____    ______ ____
ROOT
ATOM      1  N   UNL     1      34.989 -19.554 -21.169  0.00  0.00    -0.301 N 
ATOM      2  H   UNL     1      35.841 -19.978 -21.419  0.00  0.00    +0.153 HD
ATOM      3  N   UNL     1      35.015 -22.378 -17.314  0.00  0.00    -0.298 N 
ATOM      4  N   UNL     1      32.932 -20.188 -20.151  0.00  0.00    -0.233 NA
ATOM      5  N   UNL     1      32.945 -21.612 -18.206  0.00  0.00    -0.233 NA
ATOM      6  C   UNL     1      34.283 -20.250 -20.168  0.00  0.00    +0.113 C 
ATOM      7  C   UNL     1      35.019 -20.967 -19.242  0.00  0.00    +0.122 C 
ATOM      8  C   UNL     1      34.292 -21.633 -18.278  0.00  0.00    +0.113 C 
ATOM      9  C   UNL     1      32.337 -20.881 -19.160  0.00  0.00    +0.252 C 
ATOM     10  H   UNL     1      35.869 -22.738 -17.648  0.00  0.00    +0.153 HD
ENDROOT
BRANCH   3  13
ATOM     11  F   UNL     1      36.849 -21.820 -15.298  0.00  0.00    -0.203 F 
ATOM     12  F   UNL     1      32.636 -23.607 -16.566  0.00  0.00    -0.203 F 
ATOM     13  C   UNL     1      34.751 -22.703 -15.973  0.00  0.00    +0.105 C 
ATOM     14  C   UNL     1      35.690 -22.412 -14.979  0.00  0.00    +0.156 C 
ATOM     15  C   UNL     1      33.547 -23.322 -15.625  0.00  0.00    +0.156 C 
ATOM     16  C   UNL     1      35.427 -22.736 -13.648  0.00  0.00    +0.031 C 
ATOM     17  C   UNL     1      33.284 -23.647 -14.293  0.00  0.00    +0.031 C 
ATOM     18  C   UNL     1      34.224 -23.355 -13.305  0.00  0.00    +0.005 C 
ENDBRANCH   3  13
BRANCH   1  20
ATOM     19  C   UNL     1      34.170 -16.037 -23.298  0.00  0.00    +0.139 C 
ATOM     20  C   UNL     1      34.713 -18.371 -21.885  0.00  0.00    +0.049 C 
ATOM     21  C   UNL     1      33.946 -17.273 -23.896  0.00  0.00    +0.038 C 
ATOM     22  C   UNL     1      34.662 -15.958 -22.001  0.00  0.00    +0.038 C 
ATOM     23  C   UNL     1      34.217 -18.443 -23.187  0.00  0.00    +0.018 C 
ATOM     24  C   UNL     1      34.935 -17.128 -21.292  0.00  0.00    +0.018 C 
BRANCH  19  25
ATOM     25  O   UNL     1      33.903 -14.889 -23.994  0.00  0.00    -0.473 OA
BRANCH  25  26
ATOM     26  C   UNL     1      33.863 -13.679 -23.242  0.00  0.00    +0.232 C 
BRANCH  26  27
ATOM     27  C   UNL     1      32.583 -12.923 -23.591  0.00  0.00    +0.133 C 
BRANCH  27  28
ATOM     28  O   UNL     1      32.682 -12.457 -24.940  0.00  0.00    -0.383 OA
ATOM     29  H   UNL     1      33.490 -12.808 -25.345  0.00  0.00    +0.210 HD
ENDBRANCH  27  28
BRANCH  27  30
ATOM     30  C   UNL     1      32.327 -11.716 -22.685  0.00  0.00    -0.044 C 
BRANCH  30  31
ATOM     31  N   UNL     1      31.253 -11.963 -21.733  0.00  0.00    +0.386 N 
ATOM     32  C   UNL     1      30.633 -10.703 -21.316  0.00  0.00    -0.101 C 
ATOM     33  C   UNL     1      31.755 -12.691 -20.565  0.00  0.00    -0.101 C 
ATOM     34  H   UNL     1      30.547 -12.536 -22.194  0.00  0.00    -0.080 HD
ENDBRANCH  30  31
ENDBRANCH  27  30
ENDBRANCH  26  27
ENDBRANCH  25  26
ENDBRANCH  19  25
ENDBRANCH   1  20
TORSDOF 8
ENDMDL
MODEL 8
REMARK VINA RESULT:     -10.6      4.750     10.956
REMARK  Name = 445951
REMARK  8 active torsions:
REMARK  status: ('A' for Active; 'I' for Inactive)
REMARK    1  A    between atoms: N_1  and  C_20
REMARK    2  A    between atoms: N_3  and  C_13
REMARK    3  A    between atoms: C_19  and  O_25
REMARK    4  A    between atoms: O_25  and  C_26
REMARK    5  A    between atoms: C_26  and  C_27
REMARK    6  A    between atoms: C_27  and  O_28
REMARK    7  A    between atoms: C_27  and  C_30
REMARK    8  A    between atoms: C_30  and  N_31
REMARK                            x       y       z     vdW  Elec       q    Type
REMARK                         _______ _______ _______ _____ _____    ______ ____
ROOT
ATOM      1  N   UNL     1      35.280 -20.176 -19.520  0.00  0.00    -0.301 N 
ATOM      2  H   UNL     1      36.046 -19.905 -18.965  0.00  0.00    +0.153 HD
ATOM      3  N   UNL     1      33.781 -22.708 -15.754  0.00  0.00    -0.298 N 
ATOM      4  N   UNL     1      33.938 -22.115 -19.853  0.00  0.00    -0.233 NA
ATOM      5  N   UNL     1      33.182 -23.392 -17.954  0.00  0.00    -0.233 NA
ATOM      6  C   UNL     1      34.564 -21.273 -19.000  0.00  0.00    +0.113 C 
ATOM      7  C   UNL     1      34.539 -21.431 -17.626  0.00  0.00    +0.122 C 
ATOM      8  C   UNL     1      33.827 -22.517 -17.157  0.00  0.00    +0.113 C 
ATOM      9  C   UNL     1      33.277 -23.135 -19.273  0.00  0.00    +0.252 C 
ATOM     10  H   UNL     1      34.580 -22.380 -15.281  0.00  0.00    +0.153 HD
ENDROOT
BRANCH   3  13
ATOM     11  F   UNL     1      34.500 -24.447 -13.704  0.00  0.00    -0.203 F 
ATOM     12  F   UNL     1      31.076 -22.146 -16.056  0.00  0.00    -0.203 F 
ATOM     13  C   UNL     1      32.817 -23.278 -14.906  0.00  0.00    +0.105 C 
ATOM     14  C   UNL     1      33.205 -24.150 -13.884  0.00  0.00    +0.156 C 
ATOM     15  C   UNL     1      31.463 -22.980 -15.081  0.00  0.00    +0.156 C 
ATOM     16  C   UNL     1      32.247 -24.716 -13.043  0.00  0.00    +0.031 C 
ATOM     17  C   UNL     1      30.505 -23.546 -14.240  0.00  0.00    +0.031 C 
ATOM     18  C   UNL     1      30.896 -24.415 -13.221  0.00  0.00    +0.005 C 
ENDBRANCH   3  13
BRANCH   1  20
ATOM     19  C   UNL     1      34.789 -17.843 -22.968  0.00  0.00    +0.139 C 
ATOM     20  C   UNL     1      35.115 -19.392 -20.680  0.00  0.00    +0.049 C 
ATOM     21  C   UNL     1      35.887 -17.628 -22.140  0.00  0.00    +0.038 C 
ATOM     22  C   UNL     1      33.854 -18.825 -22.661  0.00  0.00    +0.038 C 
ATOM     23  C   UNL     1      36.050 -18.405 -20.993  0.00  0.00    +0.018 C 
ATOM     24  C   UNL     1      34.017 -19.602 -21.515  0.00  0.00    +0.018 C 
BRANCH  19  25
ATOM     25  O   UNL     1      34.630 -17.080 -24.093  0.00  0.00    -0.473 OA
BRANCH  25  26
ATOM     26  C   UNL     1      33.297 -16.697 -24.423  0.00  0.00    +0.232 C 
BRANCH  26  27
ATOM     27  C   UNL     1      33.222 -15.173 -24.481  0.00  0.00    +0.133 C 
BRANCH  27  28
ATOM     28  O   UNL     1      33.275 -14.767 -25.852  0.00  0.00    -0.383 OA
ATOM     29  H   UNL     1      32.451 -15.018 -26.297  0.00  0.00    +0.210 HD
ENDBRANCH  27  28
BRANCH  27  30
ATOM     30  C   UNL     1      34.365 -14.482 -23.733  0.00  0.00    -0.044 C 
BRANCH  30  31
ATOM     31  N   UNL     1      33.890 -13.741 -22.573  0.00  0.00    +0.386 N 
ATOM     32  C   UNL     1      33.849 -14.604 -21.390  0.00  0.00    -0.101 C 
ATOM     33  C   UNL     1      32.566 -13.170 -22.829  0.00  0.00    -0.101 C 
ATOM     34  H   UNL     1      34.544 -12.978 -22.395  0.00  0.00    -0.080 HD
ENDBRANCH  30  31
ENDBRANCH  27  30
ENDBRANCH  26  27
ENDBRANCH  25  26
ENDBRANCH  19  25
ENDBRANCH   1  20
TORSDOF 8
ENDMDL
MODEL 9
REMARK VINA RESULT:     -10.1      7.373     11.697
REMARK  Name = 445951
REMARK  8 active torsions:
REMARK  status: ('A' for Active; 'I' for Inactive)
REMARK    1  A    between atoms: N_1  and  C_20
REMARK    2  A    between atoms: N_3  and  C_13
REMARK    3  A    between atoms: C_19  and  O_25
REMARK    4  A    between atoms: O_25  and  C_26
REMARK    5  A    between atoms: C_26  and  C_27
REMARK    6  A    between atoms: C_27  and  O_28
REMARK    7  A    between atoms: C_27  and  C_30
REMARK    8  A    between atoms: C_30  and  N_31
REMARK                            x       y       z     vdW  Elec       q    Type
REMARK                         _______ _______ _______ _____ _____    ______ ____
ROOT
ATOM      1  N   UNL     1      33.577 -10.604 -23.179  0.00  0.00    -0.301 N 
ATOM      2  H   UNL     1      34.507 -10.364 -22.966  0.00  0.00    +0.153 HD
ATOM      3  N   UNL     1      32.644  -5.917 -23.179  0.00  0.00    -0.298 N 
ATOM      4  N   UNL     1      31.387  -9.832 -22.651  0.00  0.00    -0.233 NA
ATOM      5  N   UNL     1      30.917  -7.468 -22.651  0.00  0.00    -0.233 NA
ATOM      6  C   UNL     1      32.664  -9.547 -22.996  0.00  0.00    +0.113 C 
ATOM      7  C   UNL     1      33.127  -8.258 -23.183  0.00  0.00    +0.122 C 
ATOM      8  C   UNL     1      32.202  -7.250 -22.996  0.00  0.00    +0.113 C 
ATOM      9  C   UNL     1      30.581  -8.763 -22.497  0.00  0.00    +0.252 C 
ATOM     10  H   UNL     1      33.596  -5.781 -22.967  0.00  0.00    +0.153 HD
ENDROOT
BRANCH   3  13
ATOM     11  F   UNL     1      31.709  -4.035 -21.356  0.00  0.00    -0.203 F 
ATOM     12  F   UNL     1      32.222  -5.395 -25.877  0.00  0.00    -0.203 F 
ATOM     13  C   UNL     1      31.986  -4.751 -23.604  0.00  0.00    +0.105 C 
ATOM     14  C   UNL     1      31.525  -3.821 -22.666  0.00  0.00    +0.156 C 
ATOM     15  C   UNL     1      31.786  -4.513 -24.967  0.00  0.00    +0.156 C 
ATOM     16  C   UNL     1      30.871  -2.664 -23.088  0.00  0.00    +0.031 C 
ATOM     17  C   UNL     1      31.132  -3.355 -25.389  0.00  0.00    +0.031 C 
ATOM     18  C   UNL     1      30.674  -2.431 -24.450  0.00  0.00    +0.005 C 
ENDBRANCH   3  13
BRANCH   1  20
ATOM     19  C   UNL     1      33.112 -14.572 -24.450  0.00  0.00    +0.139 C 
ATOM     20  C   UNL     1      33.420 -11.939 -23.607  0.00  0.00    +0.049 C 
ATOM     21  C   UNL     1      33.598 -14.309 -23.174  0.00  0.00    +0.038 C 
ATOM     22  C   UNL     1      32.778 -13.530 -25.308  0.00  0.00    +0.038 C 
ATOM     23  C   UNL     1      33.752 -12.989 -22.751  0.00  0.00    +0.018 C 
ATOM     24  C   UNL     1      32.932 -12.209 -24.885  0.00  0.00    +0.018 C 
BRANCH  19  25
ATOM     25  O   UNL     1      32.960 -15.867 -24.865  0.00  0.00    -0.473 OA
BRANCH  25  26
ATOM     26  C   UNL     1      34.111 -16.704 -24.782  0.00  0.00    +0.232 C 
BRANCH  26  27
ATOM     27  C   UNL     1      33.675 -18.100 -24.344  0.00  0.00    +0.133 C 
BRANCH  27  28
ATOM     28  O   UNL     1      32.256 -18.203 -24.495  0.00  0.00    -0.383 OA
ATOM     29  H   UNL     1      31.967 -19.093 -24.242  0.00  0.00    +0.210 HD
ENDBRANCH  27  28
BRANCH  27  30
ATOM     30  C   UNL     1      34.024 -18.414 -22.887  0.00  0.00    -0.044 C 
BRANCH  30  31
ATOM     31  N   UNL     1      35.080 -17.550 -22.378  0.00  0.00    +0.386 N 
ATOM     32  C   UNL     1      36.308 -18.315 -22.149  0.00  0.00    -0.101 C 
ATOM     33  C   UNL     1      34.658 -16.889 -21.142  0.00  0.00    -0.101 C 
ATOM     34  H   UNL     1      35.270 -16.835 -23.080  0.00  0.00    -0.080 HD
ENDBRANCH  30  31
ENDBRANCH  27  30
ENDBRANCH  26  27
ENDBRANCH  25  26
ENDBRANCH  19  25
ENDBRANCH   1  20
TORSDOF 8
ENDMDL
