MODEL 1
REMARK VINA RESULT:     -12.3      0.000      0.000
REMARK  Name = 54674461
REMARK  5 active torsions:
REMARK  status: ('A' for Active; 'I' for Inactive)
REMARK    1  A    between atoms: N_2  and  C_29
REMARK    2  A    between atoms: C_7  and  C_14
REMARK    3  A    between atoms: C_15  and  N_21
REMARK    4  A    between atoms: C_22  and  O_24
REMARK    5  A    between atoms: C_29  and  C_31
REMARK                            x       y       z     vdW  Elec       q    Type
REMARK                         _______ _______ _______ _____ _____    ______ ____
ROOT
ATOM      1  F   UNL     1      28.889 -22.659 -15.140  0.00  0.00    -0.207 F 
ATOM      2  N   UNL     1      34.115 -23.895 -15.276  0.00  0.00    -0.193 N 
ATOM      3  N   UNL     1      34.618 -23.234 -16.333  0.00  0.00    -0.168 NA
ATOM      4  N   UNL     1      32.017 -24.224 -14.117  0.00  0.00    -0.251 NA
ATOM      5  C   UNL     1      32.377 -22.834 -16.100  0.00  0.00    +0.133 C 
ATOM      6  C   UNL     1      32.779 -23.692 -15.089  0.00  0.00    +0.133 C 
ATOM      7  C   UNL     1      33.557 -22.590 -16.831  0.00  0.00    +0.172 C 
ATOM      8  C   UNL     1      31.030 -22.457 -16.144  0.00  0.00    +0.015 C 
ATOM      9  C   UNL     1      30.188 -22.977 -15.160  0.00  0.00    +0.139 C 
ATOM     10  C   UNL     1      30.724 -23.831 -14.201  0.00  0.00    +0.182 C 
ENDROOT
BRANCH   7  14
ATOM     11  N   UNL     1      32.566 -21.452 -18.661  0.00  0.00    -0.326 NA
ATOM     12  N   UNL     1      34.948 -21.362 -18.307  0.00  0.00    -0.326 NA
ATOM     13  N   UNL     1      31.581 -20.313 -20.489  0.00  0.00    -0.334 N 
ATOM     14  C   UNL     1      33.698 -21.755 -17.997  0.00  0.00    +0.156 C 
ATOM     15  C   UNL     1      33.961 -20.202 -20.172  0.00  0.00    +0.210 C 
ATOM     16  C   UNL     1      32.735 -20.670 -19.747  0.00  0.00    +0.193 C 
ATOM     17  C   UNL     1      35.044 -20.583 -19.406  0.00  0.00    +0.193 C 
ATOM     18  H   UNL     1      30.695 -20.636 -20.206  0.00  0.00    +0.144 HD
ATOM     19  H   UNL     1      31.666 -19.743 -21.287  0.00  0.00    +0.144 HD
ATOM     20  N   UNL     1      36.334 -20.138 -19.787  0.00  0.00    -0.334 N 
ATOM     21  H   UNL     1      37.121 -20.398 -19.255  0.00  0.00    +0.144 HD
ATOM     22  H   UNL     1      36.443 -19.569 -20.583  0.00  0.00    +0.144 HD
BRANCH  15  24
ATOM     23  O   UNL     1      35.134 -17.454 -20.496  0.00  0.00    -0.226 OA
ATOM     24  N   UNL     1      34.100 -19.396 -21.304  0.00  0.00    -0.258 N 
ATOM     25  C   UNL     1      34.653 -18.124 -21.402  0.00  0.00    +0.402 C 
ATOM     26  H   UNL     1      33.761 -19.780 -22.146  0.00  0.00    +0.154 HD
BRANCH  25  27
ATOM     27  O   UNL     1      34.587 -17.701 -22.702  0.00  0.00    -0.431 OA
ATOM     28  C   UNL     1      33.825 -18.524 -23.593  0.00  0.00    +0.257 C 
ENDBRANCH  25  27
ENDBRANCH  15  24
ENDBRANCH   7  14
BRANCH   2  29
ATOM     29  C   UNL     1      34.986 -24.719 -14.471  0.00  0.00    +0.146 C 
BRANCH  29  31
ATOM     30  F   UNL     1      37.178 -22.923 -14.429  0.00  0.00    -0.204 F 
ATOM     31  C   UNL     1      35.465 -24.034 -13.216  0.00  0.00    +0.027 C 
ATOM     32  C   UNL     1      36.553 -23.160 -13.268  0.00  0.00    +0.138 C 
ATOM     33  C   UNL     1      34.821 -24.273 -12.003  0.00  0.00    -0.000 C 
ATOM     34  C   UNL     1      36.994 -22.527 -12.106  0.00  0.00    +0.029 C 
ATOM     35  C   UNL     1      35.263 -23.640 -10.841  0.00  0.00    -0.000 C 
ATOM     36  C   UNL     1      36.350 -22.768 -10.892  0.00  0.00    +0.002 C 
ENDBRANCH  29  31
ENDBRANCH   2  29
TORSDOF 5
ENDMDL
MODEL 2
REMARK VINA RESULT:     -11.7      3.961      7.634
REMARK  Name = 54674461
REMARK  5 active torsions:
REMARK  status: ('A' for Active; 'I' for Inactive)
REMARK    1  A    between atoms: N_2  and  C_29
REMARK    2  A    between atoms: C_7  and  C_14
REMARK    3  A    between atoms: C_15  and  N_21
REMARK    4  A    between atoms: C_22  and  O_24
REMARK    5  A    between atoms: C_29  and  C_31
REMARK                            x       y       z     vdW  Elec       q    Type
REMARK                         _______ _______ _______ _____ _____    ______ ____
ROOT
ATOM      1  F   UNL     1      30.071 -23.474 -12.315  0.00  0.00    -0.207 F 
ATOM      2  N   UNL     1      32.542 -22.516 -16.988  0.00  0.00    -0.193 N 
ATOM      3  N   UNL     1      33.814 -22.918 -16.816  0.00  0.00    -0.168 NA
ATOM      4  N   UNL     1      30.457 -22.378 -15.769  0.00  0.00    -0.251 NA
ATOM      5  C   UNL     1      32.582 -23.246 -14.916  0.00  0.00    +0.133 C 
ATOM      6  C   UNL     1      31.760 -22.689 -15.883  0.00  0.00    +0.133 C 
ATOM      7  C   UNL     1      33.833 -23.361 -15.554  0.00  0.00    +0.172 C 
ATOM      8  C   UNL     1      32.023 -23.530 -13.664  0.00  0.00    +0.015 C 
ATOM      9  C   UNL     1      30.672 -23.229 -13.485  0.00  0.00    +0.139 C 
ATOM     10  C   UNL     1      29.962 -22.670 -14.543  0.00  0.00    +0.182 C 
ENDROOT
BRANCH   7  14
ATOM     11  N   UNL     1      35.687 -23.100 -14.098  0.00  0.00    -0.326 NA
ATOM     12  N   UNL     1      35.432 -25.106 -15.409  0.00  0.00    -0.326 NA
ATOM     13  N   UNL     1      37.539 -22.844 -12.645  0.00  0.00    -0.334 N 
ATOM     14  C   UNL     1      35.051 -23.885 -14.989  0.00  0.00    +0.156 C 
ATOM     15  C   UNL     1      37.321 -24.859 -13.938  0.00  0.00    +0.210 C 
ATOM     16  C   UNL     1      36.823 -23.620 -13.590  0.00  0.00    +0.193 C 
ATOM     17  C   UNL     1      36.577 -25.565 -14.861  0.00  0.00    +0.193 C 
ATOM     18  H   UNL     1      37.203 -21.957 -12.382  0.00  0.00    +0.144 HD
ATOM     19  H   UNL     1      38.372 -23.192 -12.252  0.00  0.00    +0.144 HD
ATOM     20  N   UNL     1      37.033 -26.845 -15.263  0.00  0.00    -0.334 N 
ATOM     21  H   UNL     1      36.518 -27.366 -15.921  0.00  0.00    +0.144 HD
ATOM     22  H   UNL     1      37.865 -27.211 -14.886  0.00  0.00    +0.144 HD
BRANCH  15  24
ATOM     23  O   UNL     1      39.992 -25.399 -15.205  0.00  0.00    -0.226 OA
ATOM     24  N   UNL     1      38.504 -25.365 -13.394  0.00  0.00    -0.258 N 
ATOM     25  C   UNL     1      39.721 -25.598 -14.027  0.00  0.00    +0.402 C 
ATOM     26  H   UNL     1      38.473 -25.587 -12.435  0.00  0.00    +0.154 HD
BRANCH  25  27
ATOM     27  O   UNL     1      40.614 -26.099 -13.119  0.00  0.00    -0.431 OA
ATOM     28  C   UNL     1      41.353 -27.254 -13.536  0.00  0.00    +0.257 C 
ENDBRANCH  25  27
ENDBRANCH  15  24
ENDBRANCH   7  14
BRANCH   2  29
ATOM     29  C   UNL     1      32.135 -21.965 -18.259  0.00  0.00    +0.146 C 
BRANCH  29  31
ATOM     30  F   UNL     1      31.688 -19.970 -20.221  0.00  0.00    -0.204 F 
ATOM     31  C   UNL     1      33.252 -21.265 -18.991  0.00  0.00    +0.027 C 
ATOM     32  C   UNL     1      32.960 -20.291 -19.946  0.00  0.00    +0.138 C 
ATOM     33  C   UNL     1      34.580 -21.591 -18.712  0.00  0.00    -0.000 C 
ATOM     34  C   UNL     1      33.995 -19.644 -20.622  0.00  0.00    +0.029 C 
ATOM     35  C   UNL     1      35.614 -20.945 -19.389  0.00  0.00    -0.000 C 
ATOM     36  C   UNL     1      35.322 -19.972 -20.344  0.00  0.00    +0.002 C 
ENDBRANCH  29  31
ENDBRANCH   2  29
TORSDOF 5
ENDMDL
MODEL 3
REMARK VINA RESULT:     -11.6      1.347      4.804
REMARK  Name = 54674461
REMARK  5 active torsions:
REMARK  status: ('A' for Active; 'I' for Inactive)
REMARK    1  A    between atoms: N_2  and  C_29
REMARK    2  A    between atoms: C_7  and  C_14
REMARK    3  A    between atoms: C_15  and  N_21
REMARK    4  A    between atoms: C_22  and  O_24
REMARK    5  A    between atoms: C_29  and  C_31
REMARK                            x       y       z     vdW  Elec       q    Type
REMARK                         _______ _______ _______ _____ _____    ______ ____
ROOT
ATOM      1  F   UNL     1      37.640 -23.164 -14.379  0.00  0.00    -0.207 F 
ATOM      2  N   UNL     1      32.379 -23.604 -15.368  0.00  0.00    -0.193 N 
ATOM      3  N   UNL     1      32.166 -22.931 -16.513  0.00  0.00    -0.168 NA
ATOM      4  N   UNL     1      34.180 -24.184 -13.861  0.00  0.00    -0.251 NA
ATOM      5  C   UNL     1      34.373 -22.862 -15.913  0.00  0.00    +0.133 C 
ATOM      6  C   UNL     1      33.681 -23.596 -14.963  0.00  0.00    +0.133 C 
ATOM      7  C   UNL     1      33.382 -22.481 -16.840  0.00  0.00    +0.172 C 
ATOM      8  C   UNL     1      35.752 -22.694 -15.737  0.00  0.00    +0.015 C 
ATOM      9  C   UNL     1      36.328 -23.283 -14.611  0.00  0.00    +0.139 C 
ATOM     10  C   UNL     1      35.515 -23.994 -13.734  0.00  0.00    +0.182 C 
ENDROOT
BRANCH   7  14
ATOM     11  N   UNL     1      34.834 -21.358 -18.342  0.00  0.00    -0.326 NA
ATOM     12  N   UNL     1      32.454 -21.381 -18.724  0.00  0.00    -0.326 NA
ATOM     13  N   UNL     1      36.279 -20.234 -19.845  0.00  0.00    -0.334 N 
ATOM     14  C   UNL     1      33.567 -21.697 -18.035  0.00  0.00    +0.156 C 
ATOM     15  C   UNL     1      33.911 -20.233 -20.259  0.00  0.00    +0.210 C 
ATOM     16  C   UNL     1      34.970 -20.623 -19.465  0.00  0.00    +0.193 C 
ATOM     17  C   UNL     1      32.663 -20.644 -19.836  0.00  0.00    +0.193 C 
ATOM     18  H   UNL     1      37.050 -20.501 -19.294  0.00  0.00    +0.144 HD
ATOM     19  H   UNL     1      36.416 -19.699 -20.659  0.00  0.00    +0.144 HD
ATOM     20  N   UNL     1      31.531 -20.276 -20.605  0.00  0.00    -0.334 N 
ATOM     21  H   UNL     1      30.632 -20.558 -20.322  0.00  0.00    +0.144 HD
ATOM     22  H   UNL     1      31.646 -19.738 -21.421  0.00  0.00    +0.144 HD
BRANCH  15  24
ATOM     23  O   UNL     1      34.967 -17.444 -20.625  0.00  0.00    -0.226 OA
ATOM     24  N   UNL     1      34.088 -19.468 -21.415  0.00  0.00    -0.258 N 
ATOM     25  C   UNL     1      34.585 -18.174 -21.531  0.00  0.00    +0.402 C 
ATOM     26  H   UNL     1      33.828 -19.904 -22.259  0.00  0.00    +0.154 HD
BRANCH  25  27
ATOM     27  O   UNL     1      34.589 -17.809 -22.850  0.00  0.00    -0.431 OA
ATOM     28  C   UNL     1      33.747 -18.576 -23.718  0.00  0.00    +0.257 C 
ENDBRANCH  25  27
ENDBRANCH  15  24
ENDBRANCH   7  14
BRANCH   2  29
ATOM     29  C   UNL     1      31.269 -24.244 -14.702  0.00  0.00    +0.146 C 
BRANCH  29  31
ATOM     30  F   UNL     1      30.424 -21.668 -13.875  0.00  0.00    -0.204 F 
ATOM     31  C   UNL     1      29.931 -23.658 -15.074  0.00  0.00    +0.027 C 
ATOM     32  C   UNL     1      29.578 -22.382 -14.633  0.00  0.00    +0.138 C 
ATOM     33  C   UNL     1      29.044 -24.392 -15.862  0.00  0.00    -0.000 C 
ATOM     34  C   UNL     1      28.340 -21.841 -14.979  0.00  0.00    +0.029 C 
ATOM     35  C   UNL     1      27.805 -23.851 -16.208  0.00  0.00    -0.000 C 
ATOM     36  C   UNL     1      27.453 -22.576 -15.765  0.00  0.00    +0.002 C 
ENDBRANCH  29  31
ENDBRANCH   2  29
TORSDOF 5
ENDMDL
MODEL 4
REMARK VINA RESULT:     -11.6      1.347      4.565
REMARK  Name = 54674461
REMARK  5 active torsions:
REMARK  status: ('A' for Active; 'I' for Inactive)
REMARK    1  A    between atoms: N_2  and  C_29
REMARK    2  A    between atoms: C_7  and  C_14
REMARK    3  A    between atoms: C_15  and  N_21
REMARK    4  A    between atoms: C_22  and  O_24
REMARK    5  A    between atoms: C_29  and  C_31
REMARK                            x       y       z     vdW  Elec       q    Type
REMARK                         _______ _______ _______ _____ _____    ______ ____
ROOT
ATOM      1  F   UNL     1      37.649 -23.168 -14.374  0.00  0.00    -0.207 F 
ATOM      2  N   UNL     1      32.388 -23.615 -15.364  0.00  0.00    -0.193 N 
ATOM      3  N   UNL     1      32.174 -22.939 -16.508  0.00  0.00    -0.168 NA
ATOM      4  N   UNL     1      34.191 -24.195 -13.858  0.00  0.00    -0.251 NA
ATOM      5  C   UNL     1      34.382 -22.868 -15.908  0.00  0.00    +0.133 C 
ATOM      6  C   UNL     1      33.691 -23.605 -14.959  0.00  0.00    +0.133 C 
ATOM      7  C   UNL     1      33.390 -22.487 -16.834  0.00  0.00    +0.172 C 
ATOM      8  C   UNL     1      35.760 -22.698 -15.731  0.00  0.00    +0.015 C 
ATOM      9  C   UNL     1      36.337 -23.288 -14.606  0.00  0.00    +0.139 C 
ATOM     10  C   UNL     1      35.525 -24.003 -13.731  0.00  0.00    +0.182 C 
ENDROOT
BRANCH   7  14
ATOM     11  N   UNL     1      32.462 -21.393 -18.722  0.00  0.00    -0.326 NA
ATOM     12  N   UNL     1      34.839 -21.352 -18.329  0.00  0.00    -0.326 NA
ATOM     13  N   UNL     1      31.539 -20.299 -20.609  0.00  0.00    -0.334 N 
ATOM     14  C   UNL     1      33.574 -21.700 -18.027  0.00  0.00    +0.156 C 
ATOM     15  C   UNL     1      33.915 -20.237 -20.252  0.00  0.00    +0.210 C 
ATOM     16  C   UNL     1      32.670 -20.658 -19.833  0.00  0.00    +0.193 C 
ATOM     17  C   UNL     1      34.974 -20.618 -19.453  0.00  0.00    +0.193 C 
ATOM     18  H   UNL     1      30.640 -20.588 -20.330  0.00  0.00    +0.144 HD
ATOM     19  H   UNL     1      31.652 -19.762 -21.425  0.00  0.00    +0.144 HD
ATOM     20  N   UNL     1      36.282 -20.220 -19.827  0.00  0.00    -0.334 N 
ATOM     21  H   UNL     1      37.053 -20.480 -19.273  0.00  0.00    +0.144 HD
ATOM     22  H   UNL     1      36.419 -19.685 -20.642  0.00  0.00    +0.144 HD
BRANCH  15  24
ATOM     23  O   UNL     1      34.940 -17.438 -20.628  0.00  0.00    -0.226 OA
ATOM     24  N   UNL     1      34.094 -19.478 -21.411  0.00  0.00    -0.258 N 
ATOM     25  C   UNL     1      34.575 -18.179 -21.532  0.00  0.00    +0.402 C 
ATOM     26  H   UNL     1      33.848 -19.923 -22.255  0.00  0.00    +0.154 HD
BRANCH  25  27
ATOM     27  O   UNL     1      34.588 -17.822 -22.854  0.00  0.00    -0.431 OA
ATOM     28  C   UNL     1      33.752 -18.597 -23.722  0.00  0.00    +0.257 C 
ENDBRANCH  25  27
ENDBRANCH  15  24
ENDBRANCH   7  14
BRANCH   2  29
ATOM     29  C   UNL     1      31.280 -24.257 -14.699  0.00  0.00    +0.146 C 
BRANCH  29  31
ATOM     30  F   UNL     1      30.436 -21.673 -13.899  0.00  0.00    -0.204 F 
ATOM     31  C   UNL     1      29.940 -23.675 -15.074  0.00  0.00    +0.027 C 
ATOM     32  C   UNL     1      29.589 -22.395 -14.646  0.00  0.00    +0.138 C 
ATOM     33  C   UNL     1      29.051 -24.418 -15.851  0.00  0.00    -0.000 C 
ATOM     34  C   UNL     1      28.349 -21.858 -14.994  0.00  0.00    +0.029 C 
ATOM     35  C   UNL     1      27.811 -23.882 -16.200  0.00  0.00    -0.000 C 
ATOM     36  C   UNL     1      27.460 -22.602 -15.771  0.00  0.00    +0.002 C 
ENDBRANCH  29  31
ENDBRANCH   2  29
TORSDOF 5
ENDMDL
MODEL 5
REMARK VINA RESULT:     -11.4      1.878      5.018
REMARK  Name = 54674461
REMARK  5 active torsions:
REMARK  status: ('A' for Active; 'I' for Inactive)
REMARK    1  A    between atoms: N_2  and  C_29
REMARK    2  A    between atoms: C_7  and  C_14
REMARK    3  A    between atoms: C_15  and  N_21
REMARK    4  A    between atoms: C_22  and  O_24
REMARK    5  A    between atoms: C_29  and  C_31
REMARK                            x       y       z     vdW  Elec       q    Type
REMARK                         _______ _______ _______ _____ _____    ______ ____
ROOT
ATOM      1  F   UNL     1      37.652 -23.238 -11.296  0.00  0.00    -0.207 F 
ATOM      2  N   UNL     1      32.878 -24.000 -13.640  0.00  0.00    -0.193 N 
ATOM      3  N   UNL     1      32.984 -23.459 -14.867  0.00  0.00    -0.168 NA
ATOM      4  N   UNL     1      34.196 -24.344 -11.641  0.00  0.00    -0.251 NA
ATOM      5  C   UNL     1      34.937 -23.236 -13.695  0.00  0.00    +0.133 C 
ATOM      6  C   UNL     1      34.016 -23.895 -12.895  0.00  0.00    +0.133 C 
ATOM      7  C   UNL     1      34.239 -22.996 -14.895  0.00  0.00    +0.172 C 
ATOM      8  C   UNL     1      36.210 -22.992 -13.166  0.00  0.00    +0.015 C 
ATOM      9  C   UNL     1      36.457 -23.436 -11.866  0.00  0.00    +0.139 C 
ATOM     10  C   UNL     1      35.441 -24.086 -11.173  0.00  0.00    +0.182 C 
ENDROOT
BRANCH   7  14
ATOM     11  N   UNL     1      35.768 -21.482 -15.893  0.00  0.00    -0.326 NA
ATOM     12  N   UNL     1      34.128 -22.630 -17.235  0.00  0.00    -0.326 NA
ATOM     13  N   UNL     1      37.292 -19.971 -16.894  0.00  0.00    -0.334 N 
ATOM     14  C   UNL     1      34.740 -22.333 -16.073  0.00  0.00    +0.156 C 
ATOM     15  C   UNL     1      35.670 -21.095 -18.266  0.00  0.00    +0.210 C 
ATOM     16  C   UNL     1      36.210 -20.879 -17.015  0.00  0.00    +0.193 C 
ATOM     17  C   UNL     1      34.621 -21.990 -18.317  0.00  0.00    +0.193 C 
ATOM     18  H   UNL     1      37.694 -19.800 -16.011  0.00  0.00    +0.144 HD
ATOM     19  H   UNL     1      37.643 -19.514 -17.691  0.00  0.00    +0.144 HD
ATOM     20  N   UNL     1      34.019 -22.258 -19.571  0.00  0.00    -0.334 N 
ATOM     21  H   UNL     1      33.269 -22.893 -19.632  0.00  0.00    +0.144 HD
ATOM     22  H   UNL     1      34.351 -21.809 -20.382  0.00  0.00    +0.144 HD
BRANCH  15  24
ATOM     23  O   UNL     1      34.279 -19.324 -20.255  0.00  0.00    -0.226 OA
ATOM     24  N   UNL     1      36.152 -20.450 -19.407  0.00  0.00    -0.258 N 
ATOM     25  C   UNL     1      35.463 -19.635 -20.300  0.00  0.00    +0.402 C 
ATOM     26  H   UNL     1      37.107 -20.589 -19.606  0.00  0.00    +0.154 HD
BRANCH  25  27
ATOM     27  O   UNL     1      36.320 -19.210 -21.278  0.00  0.00    -0.431 OA
ATOM     28  C   UNL     1      36.128 -17.868 -21.743  0.00  0.00    +0.257 C 
ENDBRANCH  25  27
ENDBRANCH  15  24
ENDBRANCH   7  14
BRANCH   2  29
ATOM     29  C   UNL     1      31.634 -24.613 -13.238  0.00  0.00    +0.146 C 
BRANCH  29  31
ATOM     30  F   UNL     1      30.885 -21.882 -13.332  0.00  0.00    -0.204 F 
ATOM     31  C   UNL     1      30.443 -24.112 -14.015  0.00  0.00    +0.027 C 
ATOM     32  C   UNL     1      30.131 -22.752 -14.018  0.00  0.00    +0.138 C 
ATOM     33  C   UNL     1      29.653 -25.010 -14.733  0.00  0.00    -0.000 C 
ATOM     34  C   UNL     1      29.029 -22.291 -14.738  0.00  0.00    +0.029 C 
ATOM     35  C   UNL     1      28.550 -24.548 -15.453  0.00  0.00    -0.000 C 
ATOM     36  C   UNL     1      28.238 -23.189 -15.455  0.00  0.00    +0.002 C 
ENDBRANCH  29  31
ENDBRANCH   2  29
TORSDOF 5
ENDMDL
MODEL 6
REMARK VINA RESULT:     -11.2      3.835      7.309
REMARK  Name = 54674461
REMARK  5 active torsions:
REMARK  status: ('A' for Active; 'I' for Inactive)
REMARK    1  A    between atoms: N_2  and  C_29
REMARK    2  A    between atoms: C_7  and  C_14
REMARK    3  A    between atoms: C_15  and  N_21
REMARK    4  A    between atoms: C_22  and  O_24
REMARK    5  A    between atoms: C_29  and  C_31
REMARK                            x       y       z     vdW  Elec       q    Type
REMARK                         _______ _______ _______ _____ _____    ______ ____
ROOT
ATOM      1  F   UNL     1      34.940 -20.415 -20.697  0.00  0.00    -0.207 F 
ATOM      2  N   UNL     1      31.894 -22.440 -16.763  0.00  0.00    -0.193 N 
ATOM      3  N   UNL     1      32.748 -23.026 -15.906  0.00  0.00    -0.168 NA
ATOM      4  N   UNL     1      31.902 -21.214 -18.848  0.00  0.00    -0.251 NA
ATOM      5  C   UNL     1      33.862 -22.092 -17.673  0.00  0.00    +0.133 C 
ATOM      6  C   UNL     1      32.505 -21.865 -17.838  0.00  0.00    +0.133 C 
ATOM      7  C   UNL     1      33.945 -22.811 -16.464  0.00  0.00    +0.172 C 
ATOM      8  C   UNL     1      34.734 -21.600 -18.651  0.00  0.00    +0.015 C 
ATOM      9  C   UNL     1      34.167 -20.913 -19.725  0.00  0.00    +0.139 C 
ATOM     10  C   UNL     1      32.785 -20.757 -19.768  0.00  0.00    +0.182 C 
ENDROOT
BRANCH   7  14
ATOM     11  N   UNL     1      36.274 -22.614 -16.062  0.00  0.00    -0.326 NA
ATOM     12  N   UNL     1      35.004 -24.397 -15.055  0.00  0.00    -0.326 NA
ATOM     13  N   UNL     1      38.599 -22.421 -15.658  0.00  0.00    -0.334 N 
ATOM     14  C   UNL     1      35.140 -23.301 -15.825  0.00  0.00    +0.156 C 
ATOM     15  C   UNL     1      37.367 -24.215 -14.637  0.00  0.00    +0.210 C 
ATOM     16  C   UNL     1      37.373 -23.100 -15.450  0.00  0.00    +0.193 C 
ATOM     17  C   UNL     1      36.142 -24.830 -14.473  0.00  0.00    +0.193 C 
ATOM     18  H   UNL     1      38.628 -21.624 -16.235  0.00  0.00    +0.144 HD
ATOM     19  H   UNL     1      39.421 -22.747 -15.227  0.00  0.00    +0.144 HD
ATOM     20  N   UNL     1      36.066 -25.981 -13.651  0.00  0.00    -0.334 N 
ATOM     21  H   UNL     1      35.203 -26.436 -13.520  0.00  0.00    +0.144 HD
ATOM     22  H   UNL     1      36.877 -26.326 -13.212  0.00  0.00    +0.144 HD
BRANCH  15  24
ATOM     23  O   UNL     1      39.825 -25.493 -15.800  0.00  0.00    -0.226 OA
ATOM     24  N   UNL     1      38.526 -24.693 -14.021  0.00  0.00    -0.258 N 
ATOM     25  C   UNL     1      39.643 -25.279 -14.608  0.00  0.00    +0.402 C 
ATOM     26  H   UNL     1      38.558 -24.602 -13.040  0.00  0.00    +0.154 HD
BRANCH  25  27
ATOM     27  O   UNL     1      40.550 -25.600 -13.635  0.00  0.00    -0.431 OA
ATOM     28  C   UNL     1      40.986 -26.964 -13.606  0.00  0.00    +0.257 C 
ENDBRANCH  25  27
ENDBRANCH  15  24
ENDBRANCH   7  14
BRANCH   2  29
ATOM     29  C   UNL     1      30.477 -22.468 -16.487  0.00  0.00    +0.146 C 
BRANCH  29  31
ATOM     30  F   UNL     1      31.083 -21.570 -13.868  0.00  0.00    -0.204 F 
ATOM     31  C   UNL     1      30.126 -23.251 -15.246  0.00  0.00    +0.027 C 
ATOM     32  C   UNL     1      30.455 -22.748 -13.986  0.00  0.00    +0.138 C 
ATOM     33  C   UNL     1      29.472 -24.477 -15.358  0.00  0.00    -0.000 C 
ATOM     34  C   UNL     1      30.129 -23.473 -12.840  0.00  0.00    +0.029 C 
ATOM     35  C   UNL     1      29.147 -25.203 -14.211  0.00  0.00    -0.000 C 
ATOM     36  C   UNL     1      29.476 -24.701 -12.952  0.00  0.00    +0.002 C 
ENDBRANCH  29  31
ENDBRANCH   2  29
TORSDOF 5
ENDMDL
MODEL 7
REMARK VINA RESULT:     -11.0      4.158      7.394
REMARK  Name = 54674461
REMARK  5 active torsions:
REMARK  status: ('A' for Active; 'I' for Inactive)
REMARK    1  A    between atoms: N_2  and  C_29
REMARK    2  A    between atoms: C_7  and  C_14
REMARK    3  A    between atoms: C_15  and  N_21
REMARK    4  A    between atoms: C_22  and  O_24
REMARK    5  A    between atoms: C_29  and  C_31
REMARK                            x       y       z     vdW  Elec       q    Type
REMARK                         _______ _______ _______ _____ _____    ______ ____
ROOT
ATOM      1  F   UNL     1      34.591 -20.222 -20.702  0.00  0.00    -0.207 F 
ATOM      2  N   UNL     1      31.582 -22.340 -16.788  0.00  0.00    -0.193 N 
ATOM      3  N   UNL     1      32.435 -23.021 -16.001  0.00  0.00    -0.168 NA
ATOM      4  N   UNL     1      31.582 -20.986 -18.792  0.00  0.00    -0.251 NA
ATOM      5  C   UNL     1      33.534 -22.033 -17.748  0.00  0.00    +0.133 C 
ATOM      6  C   UNL     1      32.185 -21.729 -17.848  0.00  0.00    +0.133 C 
ATOM      7  C   UNL     1      33.621 -22.830 -16.590  0.00  0.00    +0.172 C 
ATOM      8  C   UNL     1      34.396 -21.523 -18.726  0.00  0.00    +0.015 C 
ATOM      9  C   UNL     1      33.827 -20.742 -19.734  0.00  0.00    +0.139 C 
ATOM     10  C   UNL     1      32.455 -20.516 -19.715  0.00  0.00    +0.182 C 
ENDROOT
BRANCH   7  14
ATOM     11  N   UNL     1      34.683 -24.653 -15.507  0.00  0.00    -0.326 NA
ATOM     12  N   UNL     1      35.930 -22.672 -16.078  0.00  0.00    -0.326 NA
ATOM     13  N   UNL     1      35.749 -26.471 -14.426  0.00  0.00    -0.334 N 
ATOM     14  C   UNL     1      34.811 -23.418 -16.028  0.00  0.00    +0.156 C 
ATOM     15  C   UNL     1      37.026 -24.511 -14.977  0.00  0.00    +0.210 C 
ATOM     16  C   UNL     1      35.815 -25.172 -14.989  0.00  0.00    +0.193 C 
ATOM     17  C   UNL     1      37.025 -23.252 -15.541  0.00  0.00    +0.193 C 
ATOM     18  H   UNL     1      34.895 -26.963 -14.423  0.00  0.00    +0.144 HD
ATOM     19  H   UNL     1      36.555 -26.882 -14.040  0.00  0.00    +0.144 HD
ATOM     20  N   UNL     1      38.236 -22.517 -15.561  0.00  0.00    -0.334 N 
ATOM     21  H   UNL     1      38.259 -21.616 -15.958  0.00  0.00    +0.144 HD
ATOM     22  H   UNL     1      39.055 -22.907 -15.177  0.00  0.00    +0.144 HD
BRANCH  15  24
ATOM     23  O   UNL     1      37.714 -25.198 -12.134  0.00  0.00    -0.226 OA
ATOM     24  N   UNL     1      38.179 -25.078 -14.428  0.00  0.00    -0.258 N 
ATOM     25  C   UNL     1      38.449 -25.378 -13.097  0.00  0.00    +0.402 C 
ATOM     26  H   UNL     1      38.895 -25.295 -15.069  0.00  0.00    +0.154 HD
BRANCH  25  27
ATOM     27  O   UNL     1      39.700 -25.925 -13.002  0.00  0.00    -0.431 OA
ATOM     28  C   UNL     1      40.436 -26.028 -14.226  0.00  0.00    +0.257 C 
ENDBRANCH  25  27
ENDBRANCH  15  24
ENDBRANCH   7  14
BRANCH   2  29
ATOM     29  C   UNL     1      30.176 -22.317 -16.460  0.00  0.00    +0.146 C 
BRANCH  29  31
ATOM     30  F   UNL     1      28.267 -24.405 -16.620  0.00  0.00    -0.204 F 
ATOM     31  C   UNL     1      29.821 -23.199 -15.290  0.00  0.00    +0.027 C 
ATOM     32  C   UNL     1      28.871 -24.210 -15.439  0.00  0.00    +0.138 C 
ATOM     33  C   UNL     1      30.444 -23.005 -14.057  0.00  0.00    -0.000 C 
ATOM     34  C   UNL     1      28.544 -25.025 -14.356  0.00  0.00    +0.029 C 
ATOM     35  C   UNL     1      30.116 -23.820 -12.973  0.00  0.00    -0.000 C 
ATOM     36  C   UNL     1      29.166 -24.830 -13.122  0.00  0.00    +0.002 C 
ENDBRANCH  29  31
ENDBRANCH   2  29
TORSDOF 5
ENDMDL
MODEL 8
REMARK VINA RESULT:     -10.4      9.511     14.474
REMARK  Name = 54674461
REMARK  5 active torsions:
REMARK  status: ('A' for Active; 'I' for Inactive)
REMARK    1  A    between atoms: N_2  and  C_29
REMARK    2  A    between atoms: C_7  and  C_14
REMARK    3  A    between atoms: C_15  and  N_21
REMARK    4  A    between atoms: C_22  and  O_24
REMARK    5  A    between atoms: C_29  and  C_31
REMARK                            x       y       z     vdW  Elec       q    Type
REMARK                         _______ _______ _______ _____ _____    ______ ____
ROOT
ATOM      1  F   UNL     1      31.422 -10.029 -17.604  0.00  0.00    -0.207 F 
ATOM      2  N   UNL     1      31.309  -8.824 -22.838  0.00  0.00    -0.193 N 
ATOM      3  N   UNL     1      31.768  -9.918 -23.473  0.00  0.00    -0.168 NA
ATOM      4  N   UNL     1      30.858  -8.029 -20.598  0.00  0.00    -0.251 NA
ATOM      5  C   UNL     1      31.737 -10.232 -21.207  0.00  0.00    +0.133 C 
ATOM      6  C   UNL     1      31.270  -8.956 -21.480  0.00  0.00    +0.133 C 
ATOM      7  C   UNL     1      32.026 -10.771 -22.476  0.00  0.00    +0.172 C 
ATOM      8  C   UNL     1      31.802 -10.634 -19.867  0.00  0.00    +0.015 C 
ATOM      9  C   UNL     1      31.388  -9.714 -18.904  0.00  0.00    +0.139 C 
ATOM     10  C   UNL     1      30.940  -8.463 -19.317  0.00  0.00    +0.182 C 
ENDROOT
BRANCH   7  14
ATOM     11  N   UNL     1      32.515 -12.473 -24.053  0.00  0.00    -0.326 NA
ATOM     12  N   UNL     1      33.006 -12.792 -21.716  0.00  0.00    -0.326 NA
ATOM     13  N   UNL     1      33.005 -14.177 -25.624  0.00  0.00    -0.334 N 
ATOM     14  C   UNL     1      32.545 -12.085 -22.764  0.00  0.00    +0.156 C 
ATOM     15  C   UNL     1      33.508 -14.533 -23.301  0.00  0.00    +0.210 C 
ATOM     16  C   UNL     1      33.006 -13.708 -24.287  0.00  0.00    +0.193 C 
ATOM     17  C   UNL     1      33.482 -14.017 -22.020  0.00  0.00    +0.193 C 
ATOM     18  H   UNL     1      32.652 -13.606 -26.345  0.00  0.00    +0.144 HD
ATOM     19  H   UNL     1      33.357 -15.072 -25.832  0.00  0.00    +0.144 HD
ATOM     20  N   UNL     1      33.981 -14.813 -20.959  0.00  0.00    -0.334 N 
ATOM     21  H   UNL     1      33.973 -14.466 -20.038  0.00  0.00    +0.144 HD
ATOM     22  H   UNL     1      34.335 -15.713 -21.145  0.00  0.00    +0.144 HD
BRANCH  15  24
ATOM     23  O   UNL     1      32.333 -16.798 -24.887  0.00  0.00    -0.226 OA
ATOM     24  N   UNL     1      34.006 -15.808 -23.578  0.00  0.00    -0.258 N 
ATOM     25  C   UNL     1      33.419 -16.826 -24.323  0.00  0.00    +0.402 C 
ATOM     26  H   UNL     1      34.891 -16.013 -23.197  0.00  0.00    +0.154 HD
BRANCH  25  27
ATOM     27  O   UNL     1      34.254 -17.910 -24.342  0.00  0.00    -0.431 OA
ATOM     28  C   UNL     1      34.220 -18.751 -23.183  0.00  0.00    +0.257 C 
ENDBRANCH  25  27
ENDBRANCH  15  24
ENDBRANCH   7  14
BRANCH   2  29
ATOM     29  C   UNL     1      30.919  -7.666 -23.606  0.00  0.00    +0.146 C 
BRANCH  29  31
ATOM     30  F   UNL     1      31.338  -6.625 -26.209  0.00  0.00    -0.204 F 
ATOM     31  C   UNL     1      32.077  -6.765 -23.957  0.00  0.00    +0.027 C 
ATOM     32  C   UNL     1      32.223  -6.288 -25.260  0.00  0.00    +0.138 C 
ATOM     33  C   UNL     1      33.003  -6.408 -22.977  0.00  0.00    -0.000 C 
ATOM     34  C   UNL     1      33.294  -5.455 -25.582  0.00  0.00    +0.029 C 
ATOM     35  C   UNL     1      34.075  -5.575 -23.299  0.00  0.00    -0.000 C 
ATOM     36  C   UNL     1      34.221  -5.099 -24.602  0.00  0.00    +0.002 C 
ENDBRANCH  29  31
ENDBRANCH   2  29
TORSDOF 5
ENDMDL
MODEL 9
REMARK VINA RESULT:     -10.4      9.510     14.498
REMARK  Name = 54674461
REMARK  5 active torsions:
REMARK  status: ('A' for Active; 'I' for Inactive)
REMARK    1  A    between atoms: N_2  and  C_29
REMARK    2  A    between atoms: C_7  and  C_14
REMARK    3  A    between atoms: C_15  and  N_21
REMARK    4  A    between atoms: C_22  and  O_24
REMARK    5  A    between atoms: C_29  and  C_31
REMARK                            x       y       z     vdW  Elec       q    Type
REMARK                         _______ _______ _______ _____ _____    ______ ____
ROOT
ATOM      1  F   UNL     1      31.441 -10.025 -17.602  0.00  0.00    -0.207 F 
ATOM      2  N   UNL     1      31.315  -8.826 -22.837  0.00  0.00    -0.193 N 
ATOM      3  N   UNL     1      31.767  -9.922 -23.473  0.00  0.00    -0.168 NA
ATOM      4  N   UNL     1      30.876  -8.026 -20.597  0.00  0.00    -0.251 NA
ATOM      5  C   UNL     1      31.743 -10.234 -21.206  0.00  0.00    +0.133 C 
ATOM      6  C   UNL     1      31.280  -8.956 -21.480  0.00  0.00    +0.133 C 
ATOM      7  C   UNL     1      32.026 -10.775 -22.476  0.00  0.00    +0.172 C 
ATOM      8  C   UNL     1      31.811 -10.634 -19.866  0.00  0.00    +0.015 C 
ATOM      9  C   UNL     1      31.404  -9.711 -18.903  0.00  0.00    +0.139 C 
ATOM     10  C   UNL     1      30.959  -8.459 -19.316  0.00  0.00    +0.182 C 
ENDROOT
BRANCH   7  14
ATOM     11  N   UNL     1      32.993 -12.802 -21.715  0.00  0.00    -0.326 NA
ATOM     12  N   UNL     1      32.511 -12.477 -24.053  0.00  0.00    -0.326 NA
ATOM     13  N   UNL     1      33.959 -14.829 -20.960  0.00  0.00    -0.334 N 
ATOM     14  C   UNL     1      32.538 -12.091 -22.764  0.00  0.00    +0.156 C 
ATOM     15  C   UNL     1      33.495 -14.541 -23.301  0.00  0.00    +0.210 C 
ATOM     16  C   UNL     1      33.466 -14.028 -22.020  0.00  0.00    +0.193 C 
ATOM     17  C   UNL     1      33.000 -13.713 -24.288  0.00  0.00    +0.193 C 
ATOM     18  H   UNL     1      33.948 -14.484 -20.037  0.00  0.00    +0.144 HD
ATOM     19  H   UNL     1      34.310 -15.729 -21.145  0.00  0.00    +0.144 HD
ATOM     20  N   UNL     1      33.002 -14.178 -25.626  0.00  0.00    -0.334 N 
ATOM     21  H   UNL     1      32.654 -13.605 -26.347  0.00  0.00    +0.144 HD
ATOM     22  H   UNL     1      33.352 -15.075 -25.835  0.00  0.00    +0.144 HD
BRANCH  15  24
ATOM     23  O   UNL     1      32.331 -16.800 -24.905  0.00  0.00    -0.226 OA
ATOM     24  N   UNL     1      33.996 -15.815 -23.581  0.00  0.00    -0.258 N 
ATOM     25  C   UNL     1      33.414 -16.830 -24.334  0.00  0.00    +0.402 C 
ATOM     26  H   UNL     1      34.878 -16.022 -23.196  0.00  0.00    +0.154 HD
BRANCH  25  27
ATOM     27  O   UNL     1      34.249 -17.914 -24.354  0.00  0.00    -0.431 OA
ATOM     28  C   UNL     1      34.196 -18.769 -23.205  0.00  0.00    +0.257 C 
ENDBRANCH  25  27
ENDBRANCH  15  24
ENDBRANCH   7  14
BRANCH   2  29
ATOM     29  C   UNL     1      30.928  -7.667 -23.606  0.00  0.00    +0.146 C 
BRANCH  29  31
ATOM     30  F   UNL     1      31.337  -6.602 -26.200  0.00  0.00    -0.204 F 
ATOM     31  C   UNL     1      32.087  -6.766 -23.953  0.00  0.00    +0.027 C 
ATOM     32  C   UNL     1      32.228  -6.277 -25.252  0.00  0.00    +0.138 C 
ATOM     33  C   UNL     1      33.019  -6.422 -22.974  0.00  0.00    -0.000 C 
ATOM     34  C   UNL     1      33.300  -5.444 -25.572  0.00  0.00    +0.029 C 
ATOM     35  C   UNL     1      34.092  -5.589 -23.294  0.00  0.00    -0.000 C 
ATOM     36  C   UNL     1      34.233  -5.101 -24.592  0.00  0.00    +0.002 C 
ENDBRANCH  29  31
ENDBRANCH   2  29
TORSDOF 5
ENDMDL
