MODEL 1
REMARK VINA RESULT:     -12.2      0.000      0.000
REMARK  Name = 629281
REMARK  7 active torsions:
REMARK  status: ('A' for Active; 'I' for Inactive)
REMARK    1  A    between atoms: C_6  and  C_16
REMARK    2  A    between atoms: C_8  and  O_22
REMARK    3  A    between atoms: O_22  and  C_24
REMARK    4  A    between atoms: C_24  and  C_25
REMARK    5  A    between atoms: C_25  and  C_26
REMARK    6  A    between atoms: C_26  and  C_28
REMARK    7  A    between atoms: C_28  and  O_29
REMARK                            x       y       z     vdW  Elec       q    Type
REMARK                         _______ _______ _______ _____ _____    ______ ____
ROOT
ATOM      1 BR   UNL     1      28.676 -22.718 -16.498  0.00  0.00    -0.049 Br
ATOM      2  O   UNL     1      35.650 -23.640 -12.194  0.00  0.00    -0.269 OA
ATOM      3  N   UNL     1      33.557 -23.000 -12.849  0.00  0.00    -0.279 N 
ATOM      4  N   UNL     1      34.919 -23.935 -15.369  0.00  0.00    -0.224 NA
ATOM      5  C   UNL     1      32.606 -23.103 -15.145  0.00  0.00    +0.031 C 
ATOM      6  C   UNL     1      33.936 -23.229 -15.814  0.00  0.00    +0.082 C 
ATOM      7  C   UNL     1      32.487 -22.909 -13.761  0.00  0.00    +0.052 C 
ATOM      8  C   UNL     1      34.750 -24.713 -14.155  0.00  0.00    +0.352 C 
ATOM      9  C   UNL     1      34.721 -23.727 -13.000  0.00  0.00    +0.292 C 
ATOM     10  C   UNL     1      31.458 -23.065 -15.954  0.00  0.00    +0.009 C 
ATOM     11  C   UNL     1      31.234 -22.575 -13.223  0.00  0.00    +0.015 C 
ATOM     12  C   UNL     1      30.211 -22.780 -15.398  0.00  0.00    +0.035 C 
ATOM     13  C   UNL     1      30.102 -22.518 -14.037  0.00  0.00    +0.008 C 
ATOM     14  H   UNL     1      33.466 -22.491 -12.011  0.00  0.00    +0.155 HD
ENDROOT
BRANCH   6  16
ATOM     15 CL   UNL     1      36.662 -21.814 -16.142  0.00  0.00    -0.082 Cl
ATOM     16  C   UNL     1      34.180 -22.465 -17.071  0.00  0.00    +0.028 C 
ATOM     17  C   UNL     1      35.380 -21.799 -17.299  0.00  0.00    +0.059 C 
ATOM     18  C   UNL     1      33.164 -22.437 -18.021  0.00  0.00    +0.002 C 
ATOM     19  C   UNL     1      35.566 -21.098 -18.491  0.00  0.00    +0.011 C 
ATOM     20  C   UNL     1      33.350 -21.735 -19.213  0.00  0.00    +0.000 C 
ATOM     21  C   UNL     1      34.550 -21.066 -19.448  0.00  0.00    +0.001 C 
ENDBRANCH   6  16
BRANCH   8  22
ATOM     22  O   UNL     1      35.800 -25.640 -13.889  0.00  0.00    -0.421 OA
BRANCH  22  24
ATOM     23  O   UNL     1      36.417 -26.803 -15.783  0.00  0.00    -0.250 OA
ATOM     24  C   UNL     1      36.617 -25.931 -14.949  0.00  0.00    +0.319 C 
BRANCH  24  25
ATOM     25  C   UNL     1      37.811 -25.001 -14.920  0.00  0.00    +0.121 C 
BRANCH  25  26
ATOM     26  C   UNL     1      38.787 -25.315 -13.792  0.00  0.00    +0.121 C 
BRANCH  26  28
ATOM     27  O   UNL     1      40.924 -26.432 -13.639  0.00  0.00    -0.250 OA
ATOM     28  C   UNL     1      40.083 -25.871 -14.329  0.00  0.00    +0.314 C 
BRANCH  28  29
ATOM     29  O   UNL     1      40.209 -25.701 -15.668  0.00  0.00    -0.480 OA
ATOM     30  H   UNL     1      39.940 -26.382 -16.254  0.00  0.00    +0.295 HD
ENDBRANCH  28  29
ENDBRANCH  26  28
ENDBRANCH  25  26
ENDBRANCH  24  25
ENDBRANCH  22  24
ENDBRANCH   8  22
TORSDOF 7
ENDMDL
MODEL 2
REMARK VINA RESULT:      -9.6      4.415      6.770
REMARK  Name = 629281
REMARK  7 active torsions:
REMARK  status: ('A' for Active; 'I' for Inactive)
REMARK    1  A    between atoms: C_6  and  C_16
REMARK    2  A    between atoms: C_8  and  O_22
REMARK    3  A    between atoms: O_22  and  C_24
REMARK    4  A    between atoms: C_24  and  C_25
REMARK    5  A    between atoms: C_25  and  C_26
REMARK    6  A    between atoms: C_26  and  C_28
REMARK    7  A    between atoms: C_28  and  O_29
REMARK                            x       y       z     vdW  Elec       q    Type
REMARK                         _______ _______ _______ _____ _____    ______ ____
ROOT
ATOM      1 BR   UNL     1      31.024 -22.166 -12.221  0.00  0.00    -0.049 Br
ATOM      2  O   UNL     1      33.661 -23.359 -19.944  0.00  0.00    -0.269 OA
ATOM      3  N   UNL     1      32.443 -23.455 -18.014  0.00  0.00    -0.279 N 
ATOM      4  N   UNL     1      35.148 -22.417 -17.186  0.00  0.00    -0.224 NA
ATOM      5  C   UNL     1      33.189 -22.796 -15.733  0.00  0.00    +0.031 C 
ATOM      6  C   UNL     1      34.643 -22.832 -16.075  0.00  0.00    +0.082 C 
ATOM      7  C   UNL     1      32.202 -23.182 -16.652  0.00  0.00    +0.052 C 
ATOM      8  C   UNL     1      34.282 -21.827 -18.191  0.00  0.00    +0.352 C 
ATOM      9  C   UNL     1      33.469 -22.960 -18.793  0.00  0.00    +0.292 C 
ATOM     10  C   UNL     1      32.825 -22.474 -14.416  0.00  0.00    +0.009 C 
ATOM     11  C   UNL     1      30.880 -23.343 -16.207  0.00  0.00    +0.015 C 
ATOM     12  C   UNL     1      31.499 -22.590 -14.000  0.00  0.00    +0.035 C 
ATOM     13  C   UNL     1      30.531 -23.041 -14.890  0.00  0.00    +0.008 C 
ATOM     14  H   UNL     1      31.810 -24.064 -18.459  0.00  0.00    +0.155 HD
ENDROOT
BRANCH   6  16
ATOM     15 CL   UNL     1      37.235 -21.268 -15.462  0.00  0.00    -0.082 Cl
ATOM     16  C   UNL     1      35.596 -23.417 -15.088  0.00  0.00    +0.028 C 
ATOM     17  C   UNL     1      36.786 -22.778 -14.755  0.00  0.00    +0.059 C 
ATOM     18  C   UNL     1      35.258 -24.633 -14.502  0.00  0.00    +0.002 C 
ATOM     19  C   UNL     1      37.647 -23.361 -13.824  0.00  0.00    +0.011 C 
ATOM     20  C   UNL     1      36.120 -25.216 -13.573  0.00  0.00    +0.000 C 
ATOM     21  C   UNL     1      37.314 -24.580 -13.233  0.00  0.00    +0.001 C 
ENDBRANCH   6  16
BRANCH   8  22
ATOM     22  O   UNL     1      34.964 -21.184 -19.264  0.00  0.00    -0.421 OA
BRANCH  22  24
ATOM     23  O   UNL     1      33.048 -20.059 -19.883  0.00  0.00    -0.250 OA
ATOM     24  C   UNL     1      34.263 -20.201 -19.910  0.00  0.00    +0.319 C 
BRANCH  24  25
ATOM     25  C   UNL     1      35.233 -19.318 -20.665  0.00  0.00    +0.121 C 
BRANCH  25  26
ATOM     26  C   UNL     1      34.568 -18.507 -21.771  0.00  0.00    +0.121 C 
BRANCH  26  28
ATOM     27  O   UNL     1      34.718 -16.436 -20.536  0.00  0.00    -0.250 OA
ATOM     28  C   UNL     1      34.829 -17.031 -21.600  0.00  0.00    +0.314 C 
BRANCH  28  29
ATOM     29  O   UNL     1      35.223 -16.434 -22.751  0.00  0.00    -0.480 OA
ATOM     30  H   UNL     1      34.908 -16.750 -23.575  0.00  0.00    +0.295 HD
ENDBRANCH  28  29
ENDBRANCH  26  28
ENDBRANCH  25  26
ENDBRANCH  24  25
ENDBRANCH  22  24
ENDBRANCH   8  22
TORSDOF 7
ENDMDL
