MODEL 1
REMARK VINA RESULT:     -11.2      0.000      0.000
REMARK  Name = 119032
REMARK  8 active torsions:
REMARK  status: ('A' for Active; 'I' for Inactive)
REMARK    1  A    between atoms: O_1  and  C_3
REMARK    2  A    between atoms: O_1  and  C_14
REMARK    3  A    between atoms: C_2  and  C_8
REMARK    4  A    between atoms: C_8  and  O_9
REMARK    5  A    between atoms: O_9  and  N_12
REMARK    6  A    between atoms: C_14  and  C_15
REMARK    7  A    between atoms: C_16  and  O_21
REMARK    8  A    between atoms: O_21  and  C_23
REMARK                            x       y       z     vdW  Elec       q    Type
REMARK                         _______ _______ _______ _____ _____    ______ ____
ROOT
ATOM      1  O   UNL     1      34.366 -18.622 -21.956  0.00  0.00    -0.421 OA
ENDROOT
BRANCH   1   3
ATOM      2  C   UNL     1      34.772 -20.928 -19.144  0.00  0.00    +0.027 C 
ATOM      3  C   UNL     1      34.056 -19.514 -20.925  0.00  0.00    +0.149 C 
ATOM      4  C   UNL     1      35.082 -20.038 -20.174  0.00  0.00    +0.037 C 
ATOM      5  C   UNL     1      33.443 -21.268 -18.894  0.00  0.00    -0.000 C 
ATOM      6  C   UNL     1      32.734 -19.831 -20.701  0.00  0.00    +0.038 C 
ATOM      7  C   UNL     1      32.424 -20.719 -19.672  0.00  0.00    +0.003 C 
BRANCH   2   8
ATOM      8  C   UNL     1      35.862 -21.515 -18.312  0.00  0.00    +0.270 C 
BRANCH   8   9
ATOM      9  O   UNL     1      35.309 -22.033 -17.108  0.00  0.00    -0.331 OA
BRANCH   9  12
ATOM     10  O   UNL     1      36.123 -23.388 -15.559  0.00  0.00    -0.090 OA
ATOM     11  O   UNL     1      37.140 -21.433 -15.901  0.00  0.00    -0.090 OA
ATOM     12  N   UNL     1      36.282 -22.296 -16.105  0.00  0.00    +0.218 N 
ENDBRANCH   9  12
ENDBRANCH   8   9
ENDBRANCH   2   8
ENDBRANCH   1   3
BRANCH   1  14
ATOM     13  O   UNL     1      36.444 -17.802 -21.287  0.00  0.00    -0.244 OA
ATOM     14  C   UNL     1      35.258 -17.619 -21.588  0.00  0.00    +0.349 C 
BRANCH  14  15
ATOM     15  C   UNL     1      34.602 -16.318 -21.587  0.00  0.00    +0.111 C 
ATOM     16  C   UNL     1      34.330 -15.652 -22.782  0.00  0.00    +0.155 C 
ATOM     17  C   UNL     1      34.246 -15.739 -20.369  0.00  0.00    +0.010 C 
ATOM     18  C   UNL     1      33.703 -14.406 -22.758  0.00  0.00    +0.038 C 
ATOM     19  C   UNL     1      33.619 -14.494 -20.346  0.00  0.00    +0.000 C 
ATOM     20  C   UNL     1      33.347 -13.827 -21.541  0.00  0.00    +0.003 C 
BRANCH  16  21
ATOM     21  O   UNL     1      34.672 -16.201 -23.982  0.00  0.00    -0.424 OA
BRANCH  21  23
ATOM     22  O   UNL     1      33.104 -15.593 -25.611  0.00  0.00    -0.250 OA
ATOM     23  C   UNL     1      33.584 -16.416 -24.843  0.00  0.00    +0.322 C 
ATOM     24  C   UNL     1      33.078 -17.820 -24.687  0.00  0.00    +0.122 C 
ENDBRANCH  21  23
ENDBRANCH  16  21
ENDBRANCH  14  15
ENDBRANCH   1  14
TORSDOF 8
ENDMDL
MODEL 2
REMARK VINA RESULT:     -11.2      4.952      7.862
REMARK  Name = 119032
REMARK  8 active torsions:
REMARK  status: ('A' for Active; 'I' for Inactive)
REMARK    1  A    between atoms: O_1  and  C_3
REMARK    2  A    between atoms: O_1  and  C_14
REMARK    3  A    between atoms: C_2  and  C_8
REMARK    4  A    between atoms: C_8  and  O_9
REMARK    5  A    between atoms: O_9  and  N_12
REMARK    6  A    between atoms: C_14  and  C_15
REMARK    7  A    between atoms: C_16  and  O_21
REMARK    8  A    between atoms: O_21  and  C_23
REMARK                            x       y       z     vdW  Elec       q    Type
REMARK                         _______ _______ _______ _____ _____    ______ ____
ROOT
ATOM      1  O   UNL     1      32.614 -22.048 -16.519  0.00  0.00    -0.421 OA
ENDROOT
BRANCH   1   3
ATOM      2  C   UNL     1      29.185 -23.134 -15.850  0.00  0.00    +0.027 C 
ATOM      3  C   UNL     1      31.523 -22.671 -15.906  0.00  0.00    +0.149 C 
ATOM      4  C   UNL     1      30.273 -22.512 -16.462  0.00  0.00    +0.037 C 
ATOM      5  C   UNL     1      29.375 -23.900 -14.699  0.00  0.00    -0.000 C 
ATOM      6  C   UNL     1      31.742 -23.421 -14.771  0.00  0.00    +0.038 C 
ATOM      7  C   UNL     1      30.654 -24.043 -14.160  0.00  0.00    +0.003 C 
BRANCH   2   8
ATOM      8  C   UNL     1      27.817 -22.981 -16.426  0.00  0.00    +0.270 C 
BRANCH   8   9
ATOM      9  O   UNL     1      27.593 -21.616 -16.752  0.00  0.00    -0.331 OA
BRANCH   9  12
ATOM     10  O   UNL     1      25.573 -21.880 -15.886  0.00  0.00    -0.090 OA
ATOM     11  O   UNL     1      25.849 -20.359 -17.495  0.00  0.00    -0.090 OA
ATOM     12  N   UNL     1      26.221 -21.243 -16.718  0.00  0.00    +0.218 N 
ENDBRANCH   9  12
ENDBRANCH   8   9
ENDBRANCH   2   8
ENDBRANCH   1   3
BRANCH   1  14
ATOM     13  O   UNL     1      33.047 -23.857 -17.924  0.00  0.00    -0.244 OA
ATOM     14  C   UNL     1      33.004 -22.639 -17.717  0.00  0.00    +0.349 C 
BRANCH  14  15
ATOM     15  C   UNL     1      33.376 -21.626 -18.697  0.00  0.00    +0.111 C 
ATOM     16  C   UNL     1      34.716 -21.331 -18.948  0.00  0.00    +0.155 C 
ATOM     17  C   UNL     1      32.371 -20.949 -19.388  0.00  0.00    +0.010 C 
ATOM     18  C   UNL     1      35.050 -20.357 -19.889  0.00  0.00    +0.038 C 
ATOM     19  C   UNL     1      32.706 -19.976 -20.329  0.00  0.00    +0.000 C 
ATOM     20  C   UNL     1      34.046 -19.680 -20.580  0.00  0.00    +0.003 C 
BRANCH  16  21
ATOM     21  O   UNL     1      35.712 -21.980 -18.282  0.00  0.00    -0.424 OA
BRANCH  21  23
ATOM     22  O   UNL     1      36.813 -20.143 -17.335  0.00  0.00    -0.250 OA
ATOM     23  C   UNL     1      36.276 -21.238 -17.231  0.00  0.00    +0.322 C 
ATOM     24  C   UNL     1      36.128 -21.986 -15.940  0.00  0.00    +0.122 C 
ENDBRANCH  21  23
ENDBRANCH  16  21
ENDBRANCH  14  15
ENDBRANCH   1  14
TORSDOF 8
ENDMDL
MODEL 3
REMARK VINA RESULT:     -11.0      2.342      3.709
REMARK  Name = 119032
REMARK  8 active torsions:
REMARK  status: ('A' for Active; 'I' for Inactive)
REMARK    1  A    between atoms: O_1  and  C_3
REMARK    2  A    between atoms: O_1  and  C_14
REMARK    3  A    between atoms: C_2  and  C_8
REMARK    4  A    between atoms: C_8  and  O_9
REMARK    5  A    between atoms: O_9  and  N_12
REMARK    6  A    between atoms: C_14  and  C_15
REMARK    7  A    between atoms: C_16  and  O_21
REMARK    8  A    between atoms: O_21  and  C_23
REMARK                            x       y       z     vdW  Elec       q    Type
REMARK                         _______ _______ _______ _____ _____    ______ ____
ROOT
ATOM      1  O   UNL     1      35.036 -17.289 -22.209  0.00  0.00    -0.421 OA
ENDROOT
BRANCH   1   3
ATOM      2  C   UNL     1      33.881 -20.096 -20.166  0.00  0.00    +0.027 C 
ATOM      3  C   UNL     1      35.054 -18.388 -21.345  0.00  0.00    +0.149 C 
ATOM      4  C   UNL     1      33.863 -19.000 -21.029  0.00  0.00    +0.037 C 
ATOM      5  C   UNL     1      35.092 -20.551 -19.643  0.00  0.00    -0.000 C 
ATOM      6  C   UNL     1      36.265 -18.814 -20.843  0.00  0.00    +0.038 C 
ATOM      7  C   UNL     1      36.283 -19.910 -19.981  0.00  0.00    +0.003 C 
BRANCH   2   8
ATOM      8  C   UNL     1      32.607 -20.782 -19.804  0.00  0.00    +0.270 C 
BRANCH   8   9
ATOM      9  O   UNL     1      32.889 -22.114 -19.391  0.00  0.00    -0.331 OA
BRANCH   9  12
ATOM     10  O   UNL     1      31.507 -22.031 -17.664  0.00  0.00    -0.090 OA
ATOM     11  O   UNL     1      33.573 -22.804 -17.335  0.00  0.00    -0.090 OA
ATOM     12  N   UNL     1      32.648 -22.341 -18.008  0.00  0.00    +0.218 N 
ENDBRANCH   9  12
ENDBRANCH   8   9
ENDBRANCH   2   8
ENDBRANCH   1   3
BRANCH   1  14
ATOM     13  O   UNL     1      34.511 -15.879 -20.427  0.00  0.00    -0.244 OA
ATOM     14  C   UNL     1      34.520 -16.128 -21.639  0.00  0.00    +0.349 C 
BRANCH  14  15
ATOM     15  C   UNL     1      33.972 -15.248 -22.662  0.00  0.00    +0.111 C 
ATOM     16  C   UNL     1      33.516 -13.970 -22.337  0.00  0.00    +0.155 C 
ATOM     17  C   UNL     1      33.907 -15.697 -23.980  0.00  0.00    +0.010 C 
ATOM     18  C   UNL     1      32.993 -13.143 -23.331  0.00  0.00    +0.038 C 
ATOM     19  C   UNL     1      33.385 -14.870 -24.974  0.00  0.00    +0.000 C 
ATOM     20  C   UNL     1      32.928 -13.592 -24.650  0.00  0.00    +0.003 C 
BRANCH  16  21
ATOM     21  O   UNL     1      33.570 -13.513 -21.053  0.00  0.00    -0.424 OA
BRANCH  21  23
ATOM     22  O   UNL     1      31.688 -14.219 -19.852  0.00  0.00    -0.250 OA
ATOM     23  C   UNL     1      32.312 -13.353 -20.451  0.00  0.00    +0.322 C 
ATOM     24  C   UNL     1      31.826 -11.947 -20.649  0.00  0.00    +0.122 C 
ENDBRANCH  21  23
ENDBRANCH  16  21
ENDBRANCH  14  15
ENDBRANCH   1  14
TORSDOF 8
ENDMDL
MODEL 4
REMARK VINA RESULT:     -10.9      3.217      8.362
REMARK  Name = 119032
REMARK  8 active torsions:
REMARK  status: ('A' for Active; 'I' for Inactive)
REMARK    1  A    between atoms: O_1  and  C_3
REMARK    2  A    between atoms: O_1  and  C_14
REMARK    3  A    between atoms: C_2  and  C_8
REMARK    4  A    between atoms: C_8  and  O_9
REMARK    5  A    between atoms: O_9  and  N_12
REMARK    6  A    between atoms: C_14  and  C_15
REMARK    7  A    between atoms: C_16  and  O_21
REMARK    8  A    between atoms: O_21  and  C_23
REMARK                            x       y       z     vdW  Elec       q    Type
REMARK                         _______ _______ _______ _____ _____    ______ ____
ROOT
ATOM      1  O   UNL     1      35.949 -22.040 -18.082  0.00  0.00    -0.421 OA
ENDROOT
BRANCH   1   3
ATOM      2  C   UNL     1      34.828 -19.522 -20.489  0.00  0.00    +0.027 C 
ATOM      3  C   UNL     1      35.108 -21.267 -18.888  0.00  0.00    +0.149 C 
ATOM      4  C   UNL     1      35.668 -20.294 -19.685  0.00  0.00    +0.037 C 
ATOM      5  C   UNL     1      33.451 -19.745 -20.475  0.00  0.00    -0.000 C 
ATOM      6  C   UNL     1      33.752 -21.510 -18.853  0.00  0.00    +0.038 C 
ATOM      7  C   UNL     1      32.914 -20.739 -19.657  0.00  0.00    +0.003 C 
BRANCH   2   8
ATOM      8  C   UNL     1      35.403 -18.459 -21.363  0.00  0.00    +0.270 C 
BRANCH   8   9
ATOM      9  O   UNL     1      35.349 -17.210 -20.685  0.00  0.00    -0.331 OA
BRANCH   9  12
ATOM     10  O   UNL     1      34.279 -15.273 -20.656  0.00  0.00    -0.090 OA
ATOM     11  O   UNL     1      34.347 -16.421 -22.567  0.00  0.00    -0.090 OA
ATOM     12  N   UNL     1      34.594 -16.222 -21.375  0.00  0.00    +0.218 N 
ENDBRANCH   9  12
ENDBRANCH   8   9
ENDBRANCH   2   8
ENDBRANCH   1   3
BRANCH   1  14
ATOM     13  O   UNL     1      36.755 -20.143 -16.992  0.00  0.00    -0.244 OA
ATOM     14  C   UNL     1      36.486 -21.350 -16.999  0.00  0.00    +0.349 C 
BRANCH  14  15
ATOM     15  C   UNL     1      36.707 -22.247 -15.872  0.00  0.00    +0.111 C 
ATOM     16  C   UNL     1      35.681 -22.532 -14.971  0.00  0.00    +0.155 C 
ATOM     17  C   UNL     1      37.965 -22.824 -15.700  0.00  0.00    +0.010 C 
ATOM     18  C   UNL     1      35.914 -23.393 -13.898  0.00  0.00    +0.038 C 
ATOM     19  C   UNL     1      38.198 -23.684 -14.628  0.00  0.00    +0.000 C 
ATOM     20  C   UNL     1      37.172 -23.969 -13.726  0.00  0.00    +0.003 C 
BRANCH  16  21
ATOM     21  O   UNL     1      34.445 -21.978 -15.121  0.00  0.00    -0.424 OA
BRANCH  21  23
ATOM     22  O   UNL     1      33.507 -23.685 -16.420  0.00  0.00    -0.250 OA
ATOM     23  C   UNL     1      33.447 -22.895 -15.487  0.00  0.00    +0.322 C 
ATOM     24  C   UNL     1      32.273 -22.770 -14.562  0.00  0.00    +0.122 C 
ENDBRANCH  21  23
ENDBRANCH  16  21
ENDBRANCH  14  15
ENDBRANCH   1  14
TORSDOF 8
ENDMDL
MODEL 5
REMARK VINA RESULT:     -10.8      1.528      2.163
REMARK  Name = 119032
REMARK  8 active torsions:
REMARK  status: ('A' for Active; 'I' for Inactive)
REMARK    1  A    between atoms: O_1  and  C_3
REMARK    2  A    between atoms: O_1  and  C_14
REMARK    3  A    between atoms: C_2  and  C_8
REMARK    4  A    between atoms: C_8  and  O_9
REMARK    5  A    between atoms: O_9  and  N_12
REMARK    6  A    between atoms: C_14  and  C_15
REMARK    7  A    between atoms: C_16  and  O_21
REMARK    8  A    between atoms: O_21  and  C_23
REMARK                            x       y       z     vdW  Elec       q    Type
REMARK                         _______ _______ _______ _____ _____    ______ ____
ROOT
ATOM      1  O   UNL     1      34.223 -18.503 -21.631  0.00  0.00    -0.421 OA
ENDROOT
BRANCH   1   3
ATOM      2  C   UNL     1      33.419 -21.060 -19.141  0.00  0.00    +0.027 C 
ATOM      3  C   UNL     1      34.382 -19.509 -20.674  0.00  0.00    +0.149 C 
ATOM      4  C   UNL     1      33.259 -20.056 -20.096  0.00  0.00    +0.037 C 
ATOM      5  C   UNL     1      34.699 -21.490 -18.788  0.00  0.00    -0.000 C 
ATOM      6  C   UNL     1      35.658 -19.913 -20.346  0.00  0.00    +0.038 C 
ATOM      7  C   UNL     1      35.818 -20.916 -19.392  0.00  0.00    +0.003 C 
BRANCH   2   8
ATOM      8  C   UNL     1      32.223 -21.673 -18.495  0.00  0.00    +0.270 C 
BRANCH   8   9
ATOM      9  O   UNL     1      32.610 -22.862 -17.817  0.00  0.00    -0.331 OA
BRANCH   9  12
ATOM     10  O   UNL     1      33.289 -22.943 -15.712  0.00  0.00    -0.090 OA
ATOM     11  O   UNL     1      31.103 -22.760 -16.117  0.00  0.00    -0.090 OA
ATOM     12  N   UNL     1      32.293 -22.852 -16.431  0.00  0.00    +0.218 N 
ENDBRANCH   9  12
ENDBRANCH   8   9
ENDBRANCH   2   8
ENDBRANCH   1   3
BRANCH   1  14
ATOM     13  O   UNL     1      36.398 -17.680 -21.459  0.00  0.00    -0.244 OA
ATOM     14  C   UNL     1      35.179 -17.494 -21.557  0.00  0.00    +0.349 C 
BRANCH  14  15
ATOM     15  C   UNL     1      34.550 -16.180 -21.591  0.00  0.00    +0.111 C 
ATOM     16  C   UNL     1      34.319 -15.529 -22.803  0.00  0.00    +0.155 C 
ATOM     17  C   UNL     1      34.179 -15.574 -20.392  0.00  0.00    +0.010 C 
ATOM     18  C   UNL     1      33.716 -14.270 -22.813  0.00  0.00    +0.038 C 
ATOM     19  C   UNL     1      33.576 -14.317 -20.403  0.00  0.00    +0.000 C 
ATOM     20  C   UNL     1      33.344 -13.664 -21.614  0.00  0.00    +0.003 C 
BRANCH  16  21
ATOM     21  O   UNL     1      34.676 -16.104 -23.986  0.00  0.00    -0.424 OA
BRANCH  21  23
ATOM     22  O   UNL     1      33.061 -15.612 -25.608  0.00  0.00    -0.250 OA
ATOM     23  C   UNL     1      33.593 -16.394 -24.831  0.00  0.00    +0.322 C 
ATOM     24  C   UNL     1      33.167 -17.820 -24.645  0.00  0.00    +0.122 C 
ENDBRANCH  21  23
ENDBRANCH  16  21
ENDBRANCH  14  15
ENDBRANCH   1  14
TORSDOF 8
ENDMDL
MODEL 6
REMARK VINA RESULT:     -10.8      3.419      8.774
REMARK  Name = 119032
REMARK  8 active torsions:
REMARK  status: ('A' for Active; 'I' for Inactive)
REMARK    1  A    between atoms: O_1  and  C_3
REMARK    2  A    between atoms: O_1  and  C_14
REMARK    3  A    between atoms: C_2  and  C_8
REMARK    4  A    between atoms: C_8  and  O_9
REMARK    5  A    between atoms: O_9  and  N_12
REMARK    6  A    between atoms: C_14  and  C_15
REMARK    7  A    between atoms: C_16  and  O_21
REMARK    8  A    between atoms: O_21  and  C_23
REMARK                            x       y       z     vdW  Elec       q    Type
REMARK                         _______ _______ _______ _____ _____    ______ ____
ROOT
ATOM      1  O   UNL     1      34.827 -22.523 -17.978  0.00  0.00    -0.421 OA
ENDROOT
BRANCH   1   3
ATOM      2  C   UNL     1      34.751 -19.789 -20.410  0.00  0.00    +0.027 C 
ATOM      3  C   UNL     1      34.339 -21.547 -18.852  0.00  0.00    +0.149 C 
ATOM      4  C   UNL     1      35.239 -20.764 -19.538  0.00  0.00    +0.037 C 
ATOM      5  C   UNL     1      33.375 -19.625 -20.573  0.00  0.00    -0.000 C 
ATOM      6  C   UNL     1      32.975 -21.408 -18.992  0.00  0.00    +0.038 C 
ATOM      7  C   UNL     1      32.488 -20.435 -19.864  0.00  0.00    +0.003 C 
BRANCH   2   8
ATOM      8  C   UNL     1      35.700 -18.924 -21.168  0.00  0.00    +0.270 C 
BRANCH   8   9
ATOM      9  O   UNL     1      35.749 -17.636 -20.565  0.00  0.00    -0.331 OA
BRANCH   9  12
ATOM     10  O   UNL     1      34.384 -15.904 -20.377  0.00  0.00    -0.090 OA
ATOM     11  O   UNL     1      34.745 -16.757 -22.406  0.00  0.00    -0.090 OA
ATOM     12  N   UNL     1      34.887 -16.688 -21.182  0.00  0.00    +0.218 N 
ENDBRANCH   9  12
ENDBRANCH   8   9
ENDBRANCH   2   8
ENDBRANCH   1   3
BRANCH   1  14
ATOM     13  O   UNL     1      35.984 -21.145 -16.495  0.00  0.00    -0.244 OA
ATOM     14  C   UNL     1      35.157 -22.038 -16.716  0.00  0.00    +0.349 C 
BRANCH  14  15
ATOM     15  C   UNL     1      34.408 -22.737 -15.680  0.00  0.00    +0.111 C 
ATOM     16  C   UNL     1      34.991 -23.776 -14.954  0.00  0.00    +0.155 C 
ATOM     17  C   UNL     1      33.092 -22.357 -15.419  0.00  0.00    +0.010 C 
ATOM     18  C   UNL     1      34.256 -24.434 -13.967  0.00  0.00    +0.038 C 
ATOM     19  C   UNL     1      32.358 -23.014 -14.432  0.00  0.00    +0.000 C 
ATOM     20  C   UNL     1      32.940 -24.053 -13.706  0.00  0.00    +0.003 C 
BRANCH  16  21
ATOM     21  O   UNL     1      36.275 -24.164 -15.195  0.00  0.00    -0.424 OA
BRANCH  21  23
ATOM     22  O   UNL     1      37.411 -22.683 -13.783  0.00  0.00    -0.250 OA
ATOM     23  C   UNL     1      37.178 -23.817 -14.178  0.00  0.00    +0.322 C 
ATOM     24  C   UNL     1      37.833 -25.052 -13.632  0.00  0.00    +0.122 C 
ENDBRANCH  21  23
ENDBRANCH  16  21
ENDBRANCH  14  15
ENDBRANCH   1  14
TORSDOF 8
ENDMDL
MODEL 7
REMARK VINA RESULT:     -10.8      1.327      2.593
REMARK  Name = 119032
REMARK  8 active torsions:
REMARK  status: ('A' for Active; 'I' for Inactive)
REMARK    1  A    between atoms: O_1  and  C_3
REMARK    2  A    between atoms: O_1  and  C_14
REMARK    3  A    between atoms: C_2  and  C_8
REMARK    4  A    between atoms: C_8  and  O_9
REMARK    5  A    between atoms: O_9  and  N_12
REMARK    6  A    between atoms: C_14  and  C_15
REMARK    7  A    between atoms: C_16  and  O_21
REMARK    8  A    between atoms: O_21  and  C_23
REMARK                            x       y       z     vdW  Elec       q    Type
REMARK                         _______ _______ _______ _____ _____    ______ ____
ROOT
ATOM      1  O   UNL     1      35.367 -18.703 -21.578  0.00  0.00    -0.421 OA
ENDROOT
BRANCH   1   3
ATOM      2  C   UNL     1      35.237 -21.038 -18.764  0.00  0.00    +0.027 C 
ATOM      3  C   UNL     1      34.867 -19.599 -20.628  0.00  0.00    +0.149 C 
ATOM      4  C   UNL     1      35.737 -20.144 -19.712  0.00  0.00    +0.037 C 
ATOM      5  C   UNL     1      33.880 -21.363 -18.759  0.00  0.00    -0.000 C 
ATOM      6  C   UNL     1      33.523 -19.900 -20.648  0.00  0.00    +0.038 C 
ATOM      7  C   UNL     1      33.023 -20.793 -19.701  0.00  0.00    +0.003 C 
BRANCH   2   8
ATOM      8  C   UNL     1      36.153 -21.647 -17.757  0.00  0.00    +0.270 C 
BRANCH   8   9
ATOM      9  O   UNL     1      35.385 -22.306 -16.758  0.00  0.00    -0.331 OA
BRANCH   9  12
ATOM     10  O   UNL     1      36.929 -21.930 -15.217  0.00  0.00    -0.090 OA
ATOM     11  O   UNL     1      35.992 -23.952 -15.311  0.00  0.00    -0.090 OA
ATOM     12  N   UNL     1      36.164 -22.783 -15.667  0.00  0.00    +0.218 N 
ENDBRANCH   9  12
ENDBRANCH   8   9
ENDBRANCH   2   8
ENDBRANCH   1   3
BRANCH   1  14
ATOM     13  O   UNL     1      35.008 -16.756 -20.344  0.00  0.00    -0.244 OA
ATOM     14  C   UNL     1      34.932 -17.391 -21.403  0.00  0.00    +0.349 C 
BRANCH  14  15
ATOM     15  C   UNL     1      34.355 -16.868 -22.634  0.00  0.00    +0.111 C 
ATOM     16  C   UNL     1      34.181 -15.497 -22.817  0.00  0.00    +0.155 C 
ATOM     17  C   UNL     1      33.975 -17.759 -23.638  0.00  0.00    +0.010 C 
ATOM     18  C   UNL     1      33.625 -15.016 -24.003  0.00  0.00    +0.038 C 
ATOM     19  C   UNL     1      33.421 -17.279 -24.823  0.00  0.00    +0.000 C 
ATOM     20  C   UNL     1      33.245 -15.907 -25.007  0.00  0.00    +0.003 C 
BRANCH  16  21
ATOM     21  O   UNL     1      34.544 -14.610 -21.847  0.00  0.00    -0.424 OA
BRANCH  21  23
ATOM     22  O   UNL     1      33.716 -12.484 -22.373  0.00  0.00    -0.250 OA
ATOM     23  C   UNL     1      33.673 -13.516 -21.717  0.00  0.00    +0.322 C 
ATOM     24  C   UNL     1      32.665 -13.790 -20.641  0.00  0.00    +0.122 C 
ENDBRANCH  21  23
ENDBRANCH  16  21
ENDBRANCH  14  15
ENDBRANCH   1  14
TORSDOF 8
ENDMDL
MODEL 8
REMARK VINA RESULT:     -10.7      3.303      8.362
REMARK  Name = 119032
REMARK  8 active torsions:
REMARK  status: ('A' for Active; 'I' for Inactive)
REMARK    1  A    between atoms: O_1  and  C_3
REMARK    2  A    between atoms: O_1  and  C_14
REMARK    3  A    between atoms: C_2  and  C_8
REMARK    4  A    between atoms: C_8  and  O_9
REMARK    5  A    between atoms: O_9  and  N_12
REMARK    6  A    between atoms: C_14  and  C_15
REMARK    7  A    between atoms: C_16  and  O_21
REMARK    8  A    between atoms: O_21  and  C_23
REMARK                            x       y       z     vdW  Elec       q    Type
REMARK                         _______ _______ _______ _____ _____    ______ ____
ROOT
ATOM      1  O   UNL     1      32.439 -21.655 -18.534  0.00  0.00    -0.421 OA
ENDROOT
BRANCH   1   3
ATOM      2  C   UNL     1      34.360 -19.609 -20.882  0.00  0.00    +0.027 C 
ATOM      3  C   UNL     1      33.524 -21.057 -19.183  0.00  0.00    +0.149 C 
ATOM      4  C   UNL     1      33.277 -20.205 -20.235  0.00  0.00    +0.037 C 
ATOM      5  C   UNL     1      35.662 -19.881 -20.458  0.00  0.00    -0.000 C 
ATOM      6  C   UNL     1      34.797 -21.345 -18.742  0.00  0.00    +0.038 C 
ATOM      7  C   UNL     1      35.879 -20.749 -19.388  0.00  0.00    +0.003 C 
BRANCH   2   8
ATOM      8  C   UNL     1      34.127 -18.681 -22.026  0.00  0.00    +0.270 C 
BRANCH   8   9
ATOM      9  O   UNL     1      35.172 -17.717 -22.072  0.00  0.00    -0.331 OA
BRANCH   9  12
ATOM     10  O   UNL     1      34.641 -15.634 -22.597  0.00  0.00    -0.090 OA
ATOM     11  O   UNL     1      34.591 -16.234 -20.449  0.00  0.00    -0.090 OA
ATOM     12  N   UNL     1      34.765 -16.419 -21.657  0.00  0.00    +0.218 N 
ENDBRANCH   9  12
ENDBRANCH   8   9
ENDBRANCH   2   8
ENDBRANCH   1   3
BRANCH   1  14
ATOM     13  O   UNL     1      33.183 -23.864 -18.574  0.00  0.00    -0.244 OA
ATOM     14  C   UNL     1      32.733 -22.889 -17.961  0.00  0.00    +0.349 C 
BRANCH  14  15
ATOM     15  C   UNL     1      32.420 -22.887 -16.538  0.00  0.00    +0.111 C 
ATOM     16  C   UNL     1      33.385 -23.238 -15.593  0.00  0.00    +0.155 C 
ATOM     17  C   UNL     1      31.138 -22.527 -16.124  0.00  0.00    +0.010 C 
ATOM     18  C   UNL     1      33.065 -23.231 -14.235  0.00  0.00    +0.038 C 
ATOM     19  C   UNL     1      30.819 -22.519 -14.767  0.00  0.00    +0.000 C 
ATOM     20  C   UNL     1      31.783 -22.871 -13.822  0.00  0.00    +0.003 C 
BRANCH  16  21
ATOM     21  O   UNL     1      34.643 -23.595 -15.977  0.00  0.00    -0.424 OA
BRANCH  21  23
ATOM     22  O   UNL     1      35.780 -21.613 -15.462  0.00  0.00    -0.250 OA
ATOM     23  C   UNL     1      35.660 -22.829 -15.384  0.00  0.00    +0.322 C 
ATOM     24  C   UNL     1      36.600 -23.722 -14.630  0.00  0.00    +0.122 C 
ENDBRANCH  21  23
ENDBRANCH  16  21
ENDBRANCH  14  15
ENDBRANCH   1  14
TORSDOF 8
ENDMDL
MODEL 9
REMARK VINA RESULT:     -10.4      4.474      7.044
REMARK  Name = 119032
REMARK  8 active torsions:
REMARK  status: ('A' for Active; 'I' for Inactive)
REMARK    1  A    between atoms: O_1  and  C_3
REMARK    2  A    between atoms: O_1  and  C_14
REMARK    3  A    between atoms: C_2  and  C_8
REMARK    4  A    between atoms: C_8  and  O_9
REMARK    5  A    between atoms: O_9  and  N_12
REMARK    6  A    between atoms: C_14  and  C_15
REMARK    7  A    between atoms: C_16  and  O_21
REMARK    8  A    between atoms: O_21  and  C_23
REMARK                            x       y       z     vdW  Elec       q    Type
REMARK                         _______ _______ _______ _____ _____    ______ ____
ROOT
ATOM      1  O   UNL     1      32.303 -22.048 -16.769  0.00  0.00    -0.421 OA
ENDROOT
BRANCH   1   3
ATOM      2  C   UNL     1      33.377 -23.697 -13.684  0.00  0.00    +0.027 C 
ATOM      3  C   UNL     1      32.265 -22.811 -15.597  0.00  0.00    +0.149 C 
ATOM      4  C   UNL     1      33.415 -22.936 -14.853  0.00  0.00    +0.037 C 
ATOM      5  C   UNL     1      32.188 -24.313 -13.292  0.00  0.00    -0.000 C 
ATOM      6  C   UNL     1      31.076 -23.407 -15.236  0.00  0.00    +0.038 C 
ATOM      7  C   UNL     1      31.038 -24.167 -14.068  0.00  0.00    +0.003 C 
BRANCH   2   8
ATOM      8  C   UNL     1      34.606 -23.853 -12.854  0.00  0.00    +0.270 C 
BRANCH   8   9
ATOM      9  O   UNL     1      34.246 -24.316 -11.559  0.00  0.00    -0.331 OA
BRANCH   9  12
ATOM     10  O   UNL     1      34.994 -24.185  -9.480  0.00  0.00    -0.090 OA
ATOM     11  O   UNL     1      36.462 -24.567 -11.115  0.00  0.00    -0.090 OA
ATOM     12  N   UNL     1      35.338 -24.363 -10.649  0.00  0.00    +0.218 N 
ENDBRANCH   9  12
ENDBRANCH   8   9
ENDBRANCH   2   8
ENDBRANCH   1   3
BRANCH   1  14
ATOM     13  O   UNL     1      33.178 -23.865 -17.939  0.00  0.00    -0.244 OA
ATOM     14  C   UNL     1      33.003 -22.647 -17.812  0.00  0.00    +0.349 C 
BRANCH  14  15
ATOM     15  C   UNL     1      33.523 -21.643 -18.731  0.00  0.00    +0.111 C 
ATOM     16  C   UNL     1      34.894 -21.404 -18.829  0.00  0.00    +0.155 C 
ATOM     17  C   UNL     1      32.631 -20.917 -19.519  0.00  0.00    +0.010 C 
ATOM     18  C   UNL     1      35.370 -20.437 -19.714  0.00  0.00    +0.038 C 
ATOM     19  C   UNL     1      33.107 -19.952 -20.404  0.00  0.00    +0.000 C 
ATOM     20  C   UNL     1      34.478 -19.711 -20.502  0.00  0.00    +0.003 C 
BRANCH  16  21
ATOM     21  O   UNL     1      35.782 -22.102 -18.066  0.00  0.00    -0.424 OA
BRANCH  21  23
ATOM     22  O   UNL     1      36.738 -20.141 -17.217  0.00  0.00    -0.250 OA
ATOM     23  C   UNL     1      36.445 -21.323 -17.104  0.00  0.00    +0.322 C 
ATOM     24  C   UNL     1      36.751 -22.157 -15.895  0.00  0.00    +0.122 C 
ENDBRANCH  21  23
ENDBRANCH  16  21
ENDBRANCH  14  15
ENDBRANCH   1  14
TORSDOF 8
ENDMDL
