MODEL 1
REMARK VINA RESULT:     -11.1      0.000      0.000
REMARK  Name = 3033975
REMARK  5 active torsions:
REMARK  status: ('A' for Active; 'I' for Inactive)
REMARK    1  A    between atoms: C_1  and  C_2
REMARK    2  A    between atoms: C_1  and  N_9
REMARK    3  A    between atoms: C_1  and  C_18
REMARK    4  A    between atoms: C_10  and  C_13
REMARK    5  A    between atoms: C_18  and  C_19
REMARK                            x       y       z     vdW  Elec       q    Type
REMARK                         _______ _______ _______ _____ _____    ______ ____
ROOT
ATOM      1  C   UNL     1      33.193 -22.631 -16.396  0.00  0.00    +0.099 C 
ENDROOT
BRANCH   1   2
ATOM      2  C   UNL     1      31.826 -22.770 -15.750  0.00  0.00    -0.004 C 
ATOM      3  C   UNL     1      31.745 -23.208 -14.442  0.00  0.00    -0.003 C 
ATOM      4  C   UNL     1      30.702 -22.455 -16.487  0.00  0.00    -0.003 C 
ATOM      5  C   UNL     1      30.490 -23.337 -13.848  0.00  0.00    -0.000 C 
ATOM      6  C   UNL     1      29.447 -22.582 -15.892  0.00  0.00    -0.000 C 
ATOM      7  C   UNL     1      29.340 -23.023 -14.574  0.00  0.00    -0.000 C 
ENDBRANCH   1   2
BRANCH   1   9
ATOM      8  O   UNL     1      35.833 -21.801 -15.629  0.00  0.00    -0.270 OA
ATOM      9  N   UNL     1      34.193 -23.436 -15.682  0.00  0.00    -0.298 N 
ATOM     10  C   UNL     1      35.431 -22.931 -15.366  0.00  0.00    +0.248 C 
ATOM     11  H   UNL     1      33.972 -24.359 -15.424  0.00  0.00    +0.150 HD
BRANCH  10  13
ATOM     12  N   UNL     1      38.284 -24.212 -13.324  0.00  0.00    -0.242 NA
ATOM     13  C   UNL     1      36.336 -23.879 -14.667  0.00  0.00    +0.072 C 
ATOM     14  C   UNL     1      36.080 -25.228 -14.713  0.00  0.00    +0.008 C 
ATOM     15  C   UNL     1      37.420 -23.403 -13.980  0.00  0.00    +0.103 C 
ATOM     16  C   UNL     1      36.947 -26.090 -14.050  0.00  0.00    +0.021 C 
ATOM     17  C   UNL     1      38.024 -25.537 -13.376  0.00  0.00    +0.099 C 
ENDBRANCH  10  13
ENDBRANCH   1   9
BRANCH   1  18
ATOM     18  C   UNL     1      33.185 -22.987 -17.908  0.00  0.00    +0.050 C 
BRANCH  18  19
ATOM     19  C   UNL     1      33.587 -21.859 -18.797  0.00  0.00    -0.020 C 
ATOM     20  C   UNL     1      32.612 -21.094 -19.437  0.00  0.00    -0.004 C 
ATOM     21  C   UNL     1      34.938 -21.568 -18.988  0.00  0.00    -0.004 C 
ATOM     22  C   UNL     1      32.988 -20.039 -20.268  0.00  0.00    -0.000 C 
ATOM     23  C   UNL     1      35.313 -20.513 -19.819  0.00  0.00    -0.000 C 
ATOM     24  C   UNL     1      34.338 -19.748 -20.459  0.00  0.00    -0.000 C 
ENDBRANCH  18  19
ENDBRANCH   1  18
TORSDOF 5
ENDMDL
MODEL 2
REMARK VINA RESULT:     -10.7      1.603      5.082
REMARK  Name = 3033975
REMARK  5 active torsions:
REMARK  status: ('A' for Active; 'I' for Inactive)
REMARK    1  A    between atoms: C_1  and  C_2
REMARK    2  A    between atoms: C_1  and  N_9
REMARK    3  A    between atoms: C_1  and  C_18
REMARK    4  A    between atoms: C_10  and  C_13
REMARK    5  A    between atoms: C_18  and  C_19
REMARK                            x       y       z     vdW  Elec       q    Type
REMARK                         _______ _______ _______ _____ _____    ______ ____
ROOT
ATOM      1  C   UNL     1      33.030 -22.738 -16.985  0.00  0.00    +0.099 C 
ENDROOT
BRANCH   1   2
ATOM      2  C   UNL     1      33.568 -21.867 -18.107  0.00  0.00    -0.004 C 
ATOM      3  C   UNL     1      34.935 -21.750 -18.267  0.00  0.00    -0.003 C 
ATOM      4  C   UNL     1      32.675 -21.217 -18.936  0.00  0.00    -0.003 C 
ATOM      5  C   UNL     1      35.429 -20.950 -19.298  0.00  0.00    -0.000 C 
ATOM      6  C   UNL     1      33.170 -20.418 -19.967  0.00  0.00    -0.000 C 
ATOM      7  C   UNL     1      34.546 -20.284 -20.148  0.00  0.00    -0.000 C 
ENDBRANCH   1   2
BRANCH   1   9
ATOM      8  O   UNL     1      34.622 -24.742 -15.684  0.00  0.00    -0.270 OA
ATOM      9  N   UNL     1      33.828 -22.568 -15.764  0.00  0.00    -0.298 N 
ATOM     10  C   UNL     1      34.555 -23.604 -15.229  0.00  0.00    +0.248 C 
ATOM     11  H   UNL     1      33.842 -21.691 -15.317  0.00  0.00    +0.150 HD
BRANCH  10  13
ATOM     12  N   UNL     1      37.278 -22.456 -12.944  0.00  0.00    -0.242 NA
ATOM     13  C   UNL     1      35.286 -23.277 -13.977  0.00  0.00    +0.072 C 
ATOM     14  C   UNL     1      34.683 -23.483 -12.761  0.00  0.00    +0.008 C 
ATOM     15  C   UNL     1      36.557 -22.773 -14.044  0.00  0.00    +0.103 C 
ATOM     16  C   UNL     1      35.394 -23.169 -11.607  0.00  0.00    +0.021 C 
ATOM     17  C   UNL     1      36.676 -22.663 -11.752  0.00  0.00    +0.099 C 
ENDBRANCH  10  13
ENDBRANCH   1   9
BRANCH   1  18
ATOM     18  C   UNL     1      31.525 -22.486 -16.693  0.00  0.00    +0.050 C 
BRANCH  18  19
ATOM     19  C   UNL     1      31.052 -23.077 -15.408  0.00  0.00    -0.020 C 
ATOM     20  C   UNL     1      30.435 -24.328 -15.401  0.00  0.00    -0.004 C 
ATOM     21  C   UNL     1      31.227 -22.378 -14.213  0.00  0.00    -0.004 C 
ATOM     22  C   UNL     1      29.992 -24.880 -14.199  0.00  0.00    -0.000 C 
ATOM     23  C   UNL     1      30.783 -22.931 -13.012  0.00  0.00    -0.000 C 
ATOM     24  C   UNL     1      30.166 -24.182 -13.005  0.00  0.00    -0.000 C 
ENDBRANCH  18  19
ENDBRANCH   1  18
TORSDOF 5
ENDMDL
MODEL 3
REMARK VINA RESULT:     -10.3      1.701      5.951
REMARK  Name = 3033975
REMARK  5 active torsions:
REMARK  status: ('A' for Active; 'I' for Inactive)
REMARK    1  A    between atoms: C_1  and  C_2
REMARK    2  A    between atoms: C_1  and  N_9
REMARK    3  A    between atoms: C_1  and  C_18
REMARK    4  A    between atoms: C_10  and  C_13
REMARK    5  A    between atoms: C_18  and  C_19
REMARK                            x       y       z     vdW  Elec       q    Type
REMARK                         _______ _______ _______ _____ _____    ______ ____
ROOT
ATOM      1  C   UNL     1      33.773 -23.041 -15.741  0.00  0.00    +0.099 C 
ENDROOT
BRANCH   1   2
ATOM      2  C   UNL     1      32.355 -22.983 -15.201  0.00  0.00    -0.004 C 
ATOM      3  C   UNL     1      31.312 -22.762 -16.080  0.00  0.00    -0.003 C 
ATOM      4  C   UNL     1      32.147 -23.154 -13.847  0.00  0.00    -0.003 C 
ATOM      5  C   UNL     1      30.009 -22.709 -15.584  0.00  0.00    -0.000 C 
ATOM      6  C   UNL     1      30.844 -23.102 -13.352  0.00  0.00    -0.000 C 
ATOM      7  C   UNL     1      29.775 -22.879 -14.219  0.00  0.00    -0.000 C 
ENDBRANCH   1   2
BRANCH   1   9
ATOM      8  O   UNL     1      33.381 -23.486 -18.550  0.00  0.00    -0.270 OA
ATOM      9  N   UNL     1      33.962 -22.061 -16.819  0.00  0.00    -0.298 N 
ATOM     10  C   UNL     1      33.743 -22.388 -18.135  0.00  0.00    +0.248 C 
ATOM     11  H   UNL     1      34.253 -21.149 -16.593  0.00  0.00    +0.150 HD
BRANCH  10  13
ATOM     12  N   UNL     1      35.592 -19.879 -20.193  0.00  0.00    -0.242 NA
ATOM     13  C   UNL     1      34.004 -21.294 -19.106  0.00  0.00    +0.072 C 
ATOM     14  C   UNL     1      32.956 -20.714 -19.778  0.00  0.00    +0.008 C 
ATOM     15  C   UNL     1      35.286 -20.870 -19.325  0.00  0.00    +0.103 C 
ATOM     16  C   UNL     1      33.232 -19.691 -20.680  0.00  0.00    +0.021 C 
ATOM     17  C   UNL     1      34.554 -19.315 -20.849  0.00  0.00    +0.099 C 
ENDBRANCH  10  13
ENDBRANCH   1   9
BRANCH   1  18
ATOM     18  C   UNL     1      34.848 -22.850 -14.635  0.00  0.00    +0.050 C 
BRANCH  18  19
ATOM     19  C   UNL     1      35.810 -23.985 -14.526  0.00  0.00    -0.020 C 
ATOM     20  C   UNL     1      35.433 -25.262 -14.942  0.00  0.00    -0.004 C 
ATOM     21  C   UNL     1      37.088 -23.769 -14.010  0.00  0.00    -0.004 C 
ATOM     22  C   UNL     1      36.333 -26.323 -14.840  0.00  0.00    -0.000 C 
ATOM     23  C   UNL     1      37.987 -24.830 -13.908  0.00  0.00    -0.000 C 
ATOM     24  C   UNL     1      37.609 -26.107 -14.323  0.00  0.00    -0.000 C 
ENDBRANCH  18  19
ENDBRANCH   1  18
TORSDOF 5
ENDMDL
MODEL 4
REMARK VINA RESULT:     -10.3      1.339      4.898
REMARK  Name = 3033975
REMARK  5 active torsions:
REMARK  status: ('A' for Active; 'I' for Inactive)
REMARK    1  A    between atoms: C_1  and  C_2
REMARK    2  A    between atoms: C_1  and  N_9
REMARK    3  A    between atoms: C_1  and  C_18
REMARK    4  A    between atoms: C_10  and  C_13
REMARK    5  A    between atoms: C_18  and  C_19
REMARK                            x       y       z     vdW  Elec       q    Type
REMARK                         _______ _______ _______ _____ _____    ______ ____
ROOT
ATOM      1  C   UNL     1      33.511 -23.062 -16.005  0.00  0.00    +0.099 C 
ENDROOT
BRANCH   1   2
ATOM      2  C   UNL     1      33.762 -22.282 -17.284  0.00  0.00    -0.004 C 
ATOM      3  C   UNL     1      32.694 -21.986 -18.109  0.00  0.00    -0.003 C 
ATOM      4  C   UNL     1      35.051 -21.890 -17.586  0.00  0.00    -0.003 C 
ATOM      5  C   UNL     1      32.924 -21.270 -19.283  0.00  0.00    -0.000 C 
ATOM      6  C   UNL     1      35.281 -21.174 -18.761  0.00  0.00    -0.000 C 
ATOM      7  C   UNL     1      34.219 -20.864 -19.609  0.00  0.00    -0.000 C 
ENDBRANCH   1   2
BRANCH   1   9
ATOM      8  O   UNL     1      34.749 -25.591 -15.446  0.00  0.00    -0.270 OA
ATOM      9  N   UNL     1      34.765 -23.282 -15.273  0.00  0.00    -0.298 N 
ATOM     10  C   UNL     1      35.264 -24.544 -15.064  0.00  0.00    +0.248 C 
ATOM     11  H   UNL     1      35.259 -22.506 -14.922  0.00  0.00    +0.150 HD
BRANCH  10  13
ATOM     12  N   UNL     1      38.790 -23.876 -14.027  0.00  0.00    -0.242 NA
ATOM     13  C   UNL     1      36.527 -24.599 -14.283  0.00  0.00    +0.072 C 
ATOM     14  C   UNL     1      36.599 -25.380 -13.156  0.00  0.00    +0.008 C 
ATOM     15  C   UNL     1      37.611 -23.870 -14.691  0.00  0.00    +0.103 C 
ATOM     16  C   UNL     1      37.796 -25.412 -12.447  0.00  0.00    +0.021 C 
ATOM     17  C   UNL     1      38.851 -24.649 -12.920  0.00  0.00    +0.099 C 
ENDBRANCH  10  13
ENDBRANCH   1   9
BRANCH   1  18
ATOM     18  C   UNL     1      32.453 -22.390 -15.086  0.00  0.00    +0.050 C 
BRANCH  18  19
ATOM     19  C   UNL     1      31.204 -23.189 -14.918  0.00  0.00    -0.020 C 
ATOM     20  C   UNL     1      31.155 -24.214 -13.973  0.00  0.00    -0.004 C 
ATOM     21  C   UNL     1      30.086 -22.909 -15.703  0.00  0.00    -0.004 C 
ATOM     22  C   UNL     1      29.987 -24.961 -13.816  0.00  0.00    -0.000 C 
ATOM     23  C   UNL     1      28.919 -23.657 -15.545  0.00  0.00    -0.000 C 
ATOM     24  C   UNL     1      28.870 -24.683 -14.602  0.00  0.00    -0.000 C 
ENDBRANCH  18  19
ENDBRANCH   1  18
TORSDOF 5
ENDMDL
MODEL 5
REMARK VINA RESULT:     -10.0      1.924      5.462
REMARK  Name = 3033975
REMARK  5 active torsions:
REMARK  status: ('A' for Active; 'I' for Inactive)
REMARK    1  A    between atoms: C_1  and  C_2
REMARK    2  A    between atoms: C_1  and  N_9
REMARK    3  A    between atoms: C_1  and  C_18
REMARK    4  A    between atoms: C_10  and  C_13
REMARK    5  A    between atoms: C_18  and  C_19
REMARK                            x       y       z     vdW  Elec       q    Type
REMARK                         _______ _______ _______ _____ _____    ______ ____
ROOT
ATOM      1  C   UNL     1      32.902 -23.149 -15.949  0.00  0.00    +0.099 C 
ENDROOT
BRANCH   1   2
ATOM      2  C   UNL     1      31.414 -23.153 -15.644  0.00  0.00    -0.004 C 
ATOM      3  C   UNL     1      30.959 -23.844 -14.537  0.00  0.00    -0.003 C 
ATOM      4  C   UNL     1      30.558 -22.465 -16.481  0.00  0.00    -0.003 C 
ATOM      5  C   UNL     1      29.592 -23.847 -14.257  0.00  0.00    -0.000 C 
ATOM      6  C   UNL     1      29.191 -22.469 -16.200  0.00  0.00    -0.000 C 
ATOM      7  C   UNL     1      28.708 -23.159 -15.089  0.00  0.00    -0.000 C 
ENDBRANCH   1   2
BRANCH   1   9
ATOM      8  O   UNL     1      33.318 -23.652 -18.745  0.00  0.00    -0.270 OA
ATOM      9  N   UNL     1      33.221 -22.154 -16.980  0.00  0.00    -0.298 N 
ATOM     10  C   UNL     1      33.399 -22.512 -18.294  0.00  0.00    +0.248 C 
ATOM     11  H   UNL     1      33.310 -21.208 -16.725  0.00  0.00    +0.150 HD
BRANCH  10  13
ATOM     12  N   UNL     1      32.990 -19.667 -20.680  0.00  0.00    -0.242 NA
ATOM     13  C   UNL     1      33.743 -21.393 -19.209  0.00  0.00    +0.072 C 
ATOM     14  C   UNL     1      35.060 -21.065 -19.422  0.00  0.00    +0.008 C 
ATOM     15  C   UNL     1      32.746 -20.695 -19.835  0.00  0.00    +0.103 C 
ATOM     16  C   UNL     1      35.350 -20.013 -20.285  0.00  0.00    +0.021 C 
ATOM     17  C   UNL     1      34.290 -19.353 -20.883  0.00  0.00    +0.099 C 
ENDBRANCH  10  13
ENDBRANCH   1   9
BRANCH   1  18
ATOM     18  C   UNL     1      33.776 -22.924 -14.684  0.00  0.00    +0.050 C 
BRANCH  18  19
ATOM     19  C   UNL     1      35.243 -23.002 -14.942  0.00  0.00    -0.020 C 
ATOM     20  C   UNL     1      35.876 -22.000 -15.679  0.00  0.00    -0.004 C 
ATOM     21  C   UNL     1      35.983 -24.076 -14.446  0.00  0.00    -0.004 C 
ATOM     22  C   UNL     1      37.248 -22.074 -15.921  0.00  0.00    -0.000 C 
ATOM     23  C   UNL     1      37.355 -24.148 -14.689  0.00  0.00    -0.000 C 
ATOM     24  C   UNL     1      37.987 -23.147 -15.426  0.00  0.00    -0.000 C 
ENDBRANCH  18  19
ENDBRANCH   1  18
TORSDOF 5
ENDMDL
MODEL 6
REMARK VINA RESULT:      -9.0      2.301      6.506
REMARK  Name = 3033975
REMARK  5 active torsions:
REMARK  status: ('A' for Active; 'I' for Inactive)
REMARK    1  A    between atoms: C_1  and  C_2
REMARK    2  A    between atoms: C_1  and  N_9
REMARK    3  A    between atoms: C_1  and  C_18
REMARK    4  A    between atoms: C_10  and  C_13
REMARK    5  A    between atoms: C_18  and  C_19
REMARK                            x       y       z     vdW  Elec       q    Type
REMARK                         _______ _______ _______ _____ _____    ______ ____
ROOT
ATOM      1  C   UNL     1      35.506 -22.066 -16.713  0.00  0.00    +0.099 C 
ENDROOT
BRANCH   1   2
ATOM      2  C   UNL     1      34.096 -22.400 -16.258  0.00  0.00    -0.004 C 
ATOM      3  C   UNL     1      33.101 -22.536 -17.206  0.00  0.00    -0.003 C 
ATOM      4  C   UNL     1      33.849 -22.558 -14.908  0.00  0.00    -0.003 C 
ATOM      5  C   UNL     1      31.806 -22.843 -16.788  0.00  0.00    -0.000 C 
ATOM      6  C   UNL     1      32.553 -22.866 -14.491  0.00  0.00    -0.000 C 
ATOM      7  C   UNL     1      31.532 -23.009 -15.430  0.00  0.00    -0.000 C 
ENDBRANCH   1   2
BRANCH   1   9
ATOM      8  O   UNL     1      34.919 -22.395 -19.504  0.00  0.00    -0.270 OA
ATOM      9  N   UNL     1      35.488 -21.012 -17.736  0.00  0.00    -0.298 N 
ATOM     10  C   UNL     1      35.192 -21.288 -19.048  0.00  0.00    +0.248 C 
ATOM     11  H   UNL     1      35.695 -20.085 -17.475  0.00  0.00    +0.150 HD
BRANCH  10  13
ATOM     12  N   UNL     1      36.463 -18.240 -20.793  0.00  0.00    -0.242 NA
ATOM     13  C   UNL     1      35.242 -20.118 -19.963  0.00  0.00    +0.072 C 
ATOM     14  C   UNL     1      34.173 -19.845 -20.781  0.00  0.00    +0.008 C 
ATOM     15  C   UNL     1      36.353 -19.319 -19.986  0.00  0.00    +0.103 C 
ATOM     16  C   UNL     1      34.250 -18.742 -21.626  0.00  0.00    +0.021 C 
ATOM     17  C   UNL     1      35.405 -17.979 -21.594  0.00  0.00    +0.099 C 
ENDBRANCH  10  13
ENDBRANCH   1   9
BRANCH   1  18
ATOM     18  C   UNL     1      36.442 -21.670 -15.537  0.00  0.00    +0.050 C 
BRANCH  18  19
ATOM     19  C   UNL     1      37.234 -22.807 -14.987  0.00  0.00    -0.020 C 
ATOM     20  C   UNL     1      36.830 -23.430 -13.805  0.00  0.00    -0.004 C 
ATOM     21  C   UNL     1      38.376 -23.249 -15.653  0.00  0.00    -0.004 C 
ATOM     22  C   UNL     1      37.571 -24.494 -13.290  0.00  0.00    -0.000 C 
ATOM     23  C   UNL     1      39.117 -24.313 -15.137  0.00  0.00    -0.000 C 
ATOM     24  C   UNL     1      38.714 -24.935 -13.956  0.00  0.00    -0.000 C 
ENDBRANCH  18  19
ENDBRANCH   1  18
TORSDOF 5
ENDMDL
MODEL 7
REMARK VINA RESULT:      -8.5      4.857      8.420
REMARK  Name = 3033975
REMARK  5 active torsions:
REMARK  status: ('A' for Active; 'I' for Inactive)
REMARK    1  A    between atoms: C_1  and  C_2
REMARK    2  A    between atoms: C_1  and  N_9
REMARK    3  A    between atoms: C_1  and  C_18
REMARK    4  A    between atoms: C_10  and  C_13
REMARK    5  A    between atoms: C_18  and  C_19
REMARK                            x       y       z     vdW  Elec       q    Type
REMARK                         _______ _______ _______ _____ _____    ______ ____
ROOT
ATOM      1  C   UNL     1      34.880 -16.043 -21.687  0.00  0.00    +0.099 C 
ENDROOT
BRANCH   1   2
ATOM      2  C   UNL     1      33.901 -14.931 -21.349  0.00  0.00    -0.004 C 
ATOM      3  C   UNL     1      33.761 -13.873 -22.226  0.00  0.00    -0.003 C 
ATOM      4  C   UNL     1      33.179 -15.010 -20.175  0.00  0.00    -0.003 C 
ATOM      5  C   UNL     1      32.863 -12.852 -21.917  0.00  0.00    -0.000 C 
ATOM      6  C   UNL     1      32.280 -13.988 -19.866  0.00  0.00    -0.000 C 
ATOM      7  C   UNL     1      32.121 -12.910 -20.736  0.00  0.00    -0.000 C 
ENDBRANCH   1   2
BRANCH   1   9
ATOM      8  O   UNL     1      36.564 -18.274 -21.032  0.00  0.00    -0.270 OA
ATOM      9  N   UNL     1      34.458 -17.312 -21.079  0.00  0.00    -0.298 N 
ATOM     10  C   UNL     1      35.357 -18.314 -20.810  0.00  0.00    +0.248 C 
ATOM     11  H   UNL     1      33.508 -17.448 -20.861  0.00  0.00    +0.150 HD
BRANCH  10  13
ATOM     12  N   UNL     1      35.108 -21.601 -19.053  0.00  0.00    -0.242 NA
ATOM     13  C   UNL     1      34.768 -19.545 -20.220  0.00  0.00    +0.072 C 
ATOM     14  C   UNL     1      33.412 -19.755 -20.292  0.00  0.00    +0.008 C 
ATOM     15  C   UNL     1      35.579 -20.461 -19.608  0.00  0.00    +0.103 C 
ATOM     16  C   UNL     1      32.891 -20.917 -19.732  0.00  0.00    +0.021 C 
ATOM     17  C   UNL     1      33.772 -21.799 -19.130  0.00  0.00    +0.099 C 
ENDBRANCH  10  13
ENDBRANCH   1   9
BRANCH   1  18
ATOM     18  C   UNL     1      35.094 -16.214 -23.216  0.00  0.00    +0.050 C 
BRANCH  18  19
ATOM     19  C   UNL     1      34.094 -17.107 -23.870  0.00  0.00    -0.020 C 
ATOM     20  C   UNL     1      33.025 -16.555 -24.577  0.00  0.00    -0.004 C 
ATOM     21  C   UNL     1      34.229 -18.492 -23.776  0.00  0.00    -0.004 C 
ATOM     22  C   UNL     1      32.089 -17.390 -25.188  0.00  0.00    -0.000 C 
ATOM     23  C   UNL     1      33.292 -19.326 -24.388  0.00  0.00    -0.000 C 
ATOM     24  C   UNL     1      32.223 -18.775 -25.094  0.00  0.00    -0.000 C 
ENDBRANCH  18  19
ENDBRANCH   1  18
TORSDOF 5
ENDMDL
MODEL 8
REMARK VINA RESULT:      -8.2     12.357     15.741
REMARK  Name = 3033975
REMARK  5 active torsions:
REMARK  status: ('A' for Active; 'I' for Inactive)
REMARK    1  A    between atoms: C_1  and  C_2
REMARK    2  A    between atoms: C_1  and  N_9
REMARK    3  A    between atoms: C_1  and  C_18
REMARK    4  A    between atoms: C_10  and  C_13
REMARK    5  A    between atoms: C_18  and  C_19
REMARK                            x       y       z     vdW  Elec       q    Type
REMARK                         _______ _______ _______ _____ _____    ______ ____
ROOT
ATOM      1  C   UNL     1      31.815  -8.804 -22.950  0.00  0.00    +0.099 C 
ENDROOT
BRANCH   1   2
ATOM      2  C   UNL     1      31.619  -8.599 -21.458  0.00  0.00    -0.004 C 
ATOM      3  C   UNL     1      31.988  -7.393 -20.894  0.00  0.00    -0.003 C 
ATOM      4  C   UNL     1      31.075  -9.623 -20.707  0.00  0.00    -0.003 C 
ATOM      5  C   UNL     1      31.808  -7.204 -19.523  0.00  0.00    -0.000 C 
ATOM      6  C   UNL     1      30.895  -9.433 -19.337  0.00  0.00    -0.000 C 
ATOM      7  C   UNL     1      31.261  -8.225 -18.745  0.00  0.00    -0.000 C 
ENDBRANCH   1   2
BRANCH   1   9
ATOM      8  O   UNL     1      34.272 -10.126 -23.626  0.00  0.00    -0.270 OA
ATOM      9  N   UNL     1      31.987 -10.229 -23.262  0.00  0.00    -0.298 N 
ATOM     10  C   UNL     1      33.218 -10.753 -23.574  0.00  0.00    +0.248 C 
ATOM     11  H   UNL     1      31.202 -10.822 -23.250  0.00  0.00    +0.150 HD
BRANCH  10  13
ATOM     12  N   UNL     1      32.771 -13.939 -25.472  0.00  0.00    -0.242 NA
ATOM     13  C   UNL     1      33.220 -12.205 -23.891  0.00  0.00    +0.072 C 
ATOM     14  C   UNL     1      33.648 -13.109 -22.950  0.00  0.00    +0.008 C 
ATOM     15  C   UNL     1      32.795 -12.633 -25.120  0.00  0.00    +0.103 C 
ATOM     16  C   UNL     1      33.637 -14.462 -23.277  0.00  0.00    +0.021 C 
ATOM     17  C   UNL     1      33.193 -14.821 -24.539  0.00  0.00    +0.099 C 
ENDBRANCH  10  13
ENDBRANCH   1   9
BRANCH   1  18
ATOM     18  C   UNL     1      30.666  -8.194 -23.800  0.00  0.00    +0.050 C 
BRANCH  18  19
ATOM     19  C   UNL     1      30.933  -6.803 -24.267  0.00  0.00    -0.020 C 
ATOM     20  C   UNL     1      31.684  -6.588 -25.423  0.00  0.00    -0.004 C 
ATOM     21  C   UNL     1      30.432  -5.717 -23.549  0.00  0.00    -0.004 C 
ATOM     22  C   UNL     1      31.935  -5.287 -25.860  0.00  0.00    -0.000 C 
ATOM     23  C   UNL     1      30.683  -4.417 -23.987  0.00  0.00    -0.000 C 
ATOM     24  C   UNL     1      31.434  -4.202 -25.142  0.00  0.00    -0.000 C 
ENDBRANCH  18  19
ENDBRANCH   1  18
TORSDOF 5
ENDMDL
MODEL 9
REMARK VINA RESULT:      -8.2     13.735     17.421
REMARK  Name = 3033975
REMARK  5 active torsions:
REMARK  status: ('A' for Active; 'I' for Inactive)
REMARK    1  A    between atoms: C_1  and  C_2
REMARK    2  A    between atoms: C_1  and  N_9
REMARK    3  A    between atoms: C_1  and  C_18
REMARK    4  A    between atoms: C_10  and  C_13
REMARK    5  A    between atoms: C_18  and  C_19
REMARK                            x       y       z     vdW  Elec       q    Type
REMARK                         _______ _______ _______ _____ _____    ______ ____
ROOT
ATOM      1  C   UNL     1      31.822  -7.354 -23.156  0.00  0.00    +0.099 C 
ENDROOT
BRANCH   1   2
ATOM      2  C   UNL     1      32.469  -6.758 -24.394  0.00  0.00    -0.004 C 
ATOM      3  C   UNL     1      31.664  -6.345 -25.437  0.00  0.00    -0.003 C 
ATOM      4  C   UNL     1      33.845  -6.646 -24.441  0.00  0.00    -0.003 C 
ATOM      5  C   UNL     1      32.258  -5.797 -26.574  0.00  0.00    -0.000 C 
ATOM      6  C   UNL     1      34.439  -6.098 -25.578  0.00  0.00    -0.000 C 
ATOM      7  C   UNL     1      33.647  -5.674 -26.645  0.00  0.00    -0.000 C 
ENDBRANCH   1   2
BRANCH   1   9
ATOM      8  O   UNL     1      30.245  -9.573 -22.243  0.00  0.00    -0.270 OA
ATOM      9  N   UNL     1      32.289  -8.728 -22.933  0.00  0.00    -0.298 N 
ATOM     10  C   UNL     1      31.440  -9.714 -22.492  0.00  0.00    +0.248 C 
ATOM     11  H   UNL     1      33.233  -8.949 -23.102  0.00  0.00    +0.150 HD
BRANCH  10  13
ATOM     12  N   UNL     1      33.645 -12.679 -23.036  0.00  0.00    -0.242 NA
ATOM     13  C   UNL     1      32.072 -11.043 -22.290  0.00  0.00    +0.072 C 
ATOM     14  C   UNL     1      31.689 -11.827 -21.229  0.00  0.00    +0.008 C 
ATOM     15  C   UNL     1      33.032 -11.480 -23.162  0.00  0.00    +0.103 C 
ATOM     16  C   UNL     1      32.298 -13.068 -21.067  0.00  0.00    +0.021 C 
ATOM     17  C   UNL     1      33.261 -13.443 -21.989  0.00  0.00    +0.099 C 
ENDBRANCH  10  13
ENDBRANCH   1   9
BRANCH   1  18
ATOM     18  C   UNL     1      32.042  -6.489 -21.884  0.00  0.00    +0.050 C 
BRANCH  18  19
ATOM     19  C   UNL     1      31.418  -5.136 -21.957  0.00  0.00    -0.020 C 
ATOM     20  C   UNL     1      30.186  -4.903 -21.344  0.00  0.00    -0.004 C 
ATOM     21  C   UNL     1      32.066  -4.105 -22.637  0.00  0.00    -0.004 C 
ATOM     22  C   UNL     1      29.603  -3.637 -21.414  0.00  0.00    -0.000 C 
ATOM     23  C   UNL     1      31.481  -2.840 -22.706  0.00  0.00    -0.000 C 
ATOM     24  C   UNL     1      30.250  -2.607 -22.094  0.00  0.00    -0.000 C 
ENDBRANCH  18  19
ENDBRANCH   1  18
TORSDOF 5
ENDMDL
