MODEL 1
REMARK VINA RESULT:     -10.5      0.000      0.000
REMARK  Name = 6918191
REMARK  3 active torsions:
REMARK  status: ('A' for Active; 'I' for Inactive)
REMARK    1  A    between atoms: C_1  and  C_5
REMARK    2  A    between atoms: C_1  and  C_13
REMARK    3  A    between atoms: C_1  and  N_19
REMARK                            x       y       z     vdW  Elec       q    Type
REMARK                         _______ _______ _______ _____ _____    ______ ____
ROOT
ATOM      1  C   UNL     1      33.571 -23.037 -16.572  0.00  0.00    +0.142 C 
ENDROOT
BRANCH   1   5
ATOM      2  N   UNL     1      36.986 -25.371 -13.742  0.00  0.00    -0.200 N 
ATOM      3  N   UNL     1      38.016 -23.569 -13.165  0.00  0.00    -0.146 NA
ATOM      4  N   UNL     1      38.013 -24.890 -13.022  0.00  0.00    -0.045 NA
ATOM      5  C   UNL     1      34.758 -23.119 -15.668  0.00  0.00    -0.001 C 
ATOM      6  C   UNL     1      35.183 -24.370 -15.209  0.00  0.00    +0.015 C 
ATOM      7  C   UNL     1      36.296 -24.376 -14.371  0.00  0.00    +0.084 C 
ATOM      8  C   UNL     1      35.422 -21.944 -15.300  0.00  0.00    -0.022 C 
ATOM      9  C   UNL     1      36.975 -23.228 -13.988  0.00  0.00    +0.099 C 
ATOM     10  C   UNL     1      36.538 -21.980 -14.454  0.00  0.00    +0.075 C 
ATOM     11  C   UNL     1      36.728 -26.790 -13.778  0.00  0.00    +0.139 C 
ENDBRANCH   1   5
BRANCH   1  13
ATOM     12 CL   UNL     1      33.897 -19.357 -21.302  0.00  0.00    -0.082 Cl
ATOM     13  C   UNL     1      33.654 -22.093 -17.783  0.00  0.00    +0.002 C 
ATOM     14  C   UNL     1      32.484 -21.615 -18.318  0.00  0.00    -0.001 C 
ATOM     15  C   UNL     1      34.894 -21.773 -18.274  0.00  0.00    -0.001 C 
ATOM     16  C   UNL     1      32.560 -20.760 -19.417  0.00  0.00    +0.011 C 
ATOM     17  C   UNL     1      34.971 -20.917 -19.374  0.00  0.00    +0.011 C 
ATOM     18  C   UNL     1      33.804 -20.412 -19.945  0.00  0.00    +0.058 C 
ENDBRANCH   1  13
BRANCH   1  19
ATOM     19  N   UNL     1      32.294 -22.853 -15.811  0.00  0.00    -0.184 N 
ATOM     20  N   UNL     1      31.164 -23.201 -16.381  0.00  0.00    -0.153 NA
ATOM     21  N   UNL     1      30.908 -22.360 -14.270  0.00  0.00    -0.203 NA
ATOM     22  C   UNL     1      32.182 -22.360 -14.585  0.00  0.00    +0.186 C 
ATOM     23  C   UNL     1      30.328 -22.879 -15.391  0.00  0.00    +0.218 C 
ENDBRANCH   1  19
TORSDOF 3
ENDMDL
MODEL 2
REMARK VINA RESULT:     -10.3      5.936      8.572
REMARK  Name = 6918191
REMARK  3 active torsions:
REMARK  status: ('A' for Active; 'I' for Inactive)
REMARK    1  A    between atoms: C_1  and  C_5
REMARK    2  A    between atoms: C_1  and  C_13
REMARK    3  A    between atoms: C_1  and  N_19
REMARK                            x       y       z     vdW  Elec       q    Type
REMARK                         _______ _______ _______ _____ _____    ______ ____
ROOT
ATOM      1  C   UNL     1      34.633 -16.968 -22.932  0.00  0.00    +0.142 C 
ENDROOT
BRANCH   1   5
ATOM      2  N   UNL     1      33.800 -20.672 -19.660  0.00  0.00    -0.200 N 
ATOM      3  N   UNL     1      35.862 -20.862 -19.063  0.00  0.00    -0.146 NA
ATOM      4  N   UNL     1      34.641 -21.348 -18.860  0.00  0.00    -0.045 NA
ATOM      5  C   UNL     1      35.017 -17.985 -21.908  0.00  0.00    -0.001 C 
ATOM      6  C   UNL     1      34.027 -18.802 -21.350  0.00  0.00    +0.015 C 
ATOM      7  C   UNL     1      34.452 -19.729 -20.402  0.00  0.00    +0.084 C 
ATOM      8  C   UNL     1      36.357 -18.103 -21.526  0.00  0.00    -0.022 C 
ATOM      9  C   UNL     1      35.773 -19.870 -20.003  0.00  0.00    +0.099 C 
ATOM     10  C   UNL     1      36.756 -19.045 -20.569  0.00  0.00    +0.075 C 
ATOM     11  C   UNL     1      32.392 -20.982 -19.658  0.00  0.00    +0.139 C 
ENDBRANCH   1   5
BRANCH   1  13
ATOM     12 CL   UNL     1      32.990 -11.526 -21.006  0.00  0.00    -0.082 Cl
ATOM     13  C   UNL     1      34.214 -15.574 -22.438  0.00  0.00    +0.002 C 
ATOM     14  C   UNL     1      33.955 -15.407 -21.101  0.00  0.00    -0.001 C 
ATOM     15  C   UNL     1      34.115 -14.560 -23.357  0.00  0.00    -0.001 C 
ATOM     16  C   UNL     1      33.573 -14.142 -20.653  0.00  0.00    +0.011 C 
ATOM     17  C   UNL     1      33.734 -13.294 -22.910  0.00  0.00    +0.011 C 
ATOM     18  C   UNL     1      33.462 -13.086 -21.558  0.00  0.00    +0.058 C 
ENDBRANCH   1  13
BRANCH   1  19
ATOM     19  N   UNL     1      33.664 -17.516 -23.935  0.00  0.00    -0.184 N 
ATOM     20  N   UNL     1      33.677 -18.805 -24.186  0.00  0.00    -0.153 NA
ATOM     21  N   UNL     1      32.111 -17.649 -25.387  0.00  0.00    -0.203 NA
ATOM     22  C   UNL     1      32.768 -16.815 -24.616  0.00  0.00    +0.186 C 
ATOM     23  C   UNL     1      32.698 -18.846 -25.093  0.00  0.00    +0.218 C 
ENDBRANCH   1  19
TORSDOF 3
ENDMDL
MODEL 3
REMARK VINA RESULT:     -10.3      1.765      5.356
REMARK  Name = 6918191
REMARK  3 active torsions:
REMARK  status: ('A' for Active; 'I' for Inactive)
REMARK    1  A    between atoms: C_1  and  C_5
REMARK    2  A    between atoms: C_1  and  C_13
REMARK    3  A    between atoms: C_1  and  N_19
REMARK                            x       y       z     vdW  Elec       q    Type
REMARK                         _______ _______ _______ _____ _____    ______ ____
ROOT
ATOM      1  C   UNL     1      34.297 -23.051 -14.900  0.00  0.00    +0.142 C 
ENDROOT
BRANCH   1   5
ATOM      2  N   UNL     1      29.327 -23.207 -15.527  0.00  0.00    -0.200 N 
ATOM      3  N   UNL     1      28.978 -24.602 -13.922  0.00  0.00    -0.146 NA
ATOM      4  N   UNL     1      28.376 -23.890 -14.869  0.00  0.00    -0.045 NA
ATOM      5  C   UNL     1      32.904 -23.497 -14.595  0.00  0.00    -0.001 C 
ATOM      6  C   UNL     1      31.843 -23.000 -15.360  0.00  0.00    +0.015 C 
ATOM      7  C   UNL     1      30.571 -23.457 -15.025  0.00  0.00    +0.084 C 
ATOM      8  C   UNL     1      32.686 -24.403 -13.552  0.00  0.00    -0.022 C 
ATOM      9  C   UNL     1      30.324 -24.355 -13.996  0.00  0.00    +0.099 C 
ATOM     10  C   UNL     1      31.395 -24.845 -13.236  0.00  0.00    +0.075 C 
ATOM     11  C   UNL     1      28.969 -22.338 -16.622  0.00  0.00    +0.139 C 
ENDBRANCH   1   5
BRANCH   1  13
ATOM     12 CL   UNL     1      35.349 -20.623 -20.287  0.00  0.00    -0.082 Cl
ATOM     13  C   UNL     1      34.565 -22.428 -16.280  0.00  0.00    +0.002 C 
ATOM     14  C   UNL     1      33.572 -22.484 -17.225  0.00  0.00    -0.001 C 
ATOM     15  C   UNL     1      35.787 -21.845 -16.504  0.00  0.00    -0.001 C 
ATOM     16  C   UNL     1      33.816 -21.920 -18.477  0.00  0.00    +0.011 C 
ATOM     17  C   UNL     1      36.032 -21.280 -17.756  0.00  0.00    +0.011 C 
ATOM     18  C   UNL     1      35.047 -21.318 -18.742  0.00  0.00    +0.058 C 
ENDBRANCH   1  13
BRANCH   1  19
ATOM     19  N   UNL     1      35.312 -24.098 -14.557  0.00  0.00    -0.184 N 
ATOM     20  N   UNL     1      35.384 -25.175 -15.305  0.00  0.00    -0.153 NA
ATOM     21  N   UNL     1      36.889 -25.148 -13.583  0.00  0.00    -0.203 NA
ATOM     22  C   UNL     1      36.171 -24.050 -13.548  0.00  0.00    +0.186 C 
ATOM     23  C   UNL     1      36.376 -25.801 -14.667  0.00  0.00    +0.218 C 
ENDBRANCH   1  19
TORSDOF 3
ENDMDL
MODEL 4
REMARK VINA RESULT:     -10.1      1.641      2.364
REMARK  Name = 6918191
REMARK  3 active torsions:
REMARK  status: ('A' for Active; 'I' for Inactive)
REMARK    1  A    between atoms: C_1  and  C_5
REMARK    2  A    between atoms: C_1  and  C_13
REMARK    3  A    between atoms: C_1  and  N_19
REMARK                            x       y       z     vdW  Elec       q    Type
REMARK                         _______ _______ _______ _____ _____    ______ ____
ROOT
ATOM      1  C   UNL     1      33.555 -23.954 -15.447  0.00  0.00    +0.142 C 
ENDROOT
BRANCH   1   5
ATOM      2  N   UNL     1      36.370 -23.865 -11.302  0.00  0.00    -0.200 N 
ATOM      3  N   UNL     1      37.674 -25.463 -11.925  0.00  0.00    -0.146 NA
ATOM      4  N   UNL     1      37.431 -24.606 -10.940  0.00  0.00    -0.045 NA
ATOM      5  C   UNL     1      34.666 -24.395 -14.552  0.00  0.00    -0.001 C 
ATOM      6  C   UNL     1      34.844 -23.762 -13.317  0.00  0.00    +0.015 C 
ATOM      7  C   UNL     1      35.897 -24.222 -12.531  0.00  0.00    +0.084 C 
ATOM      8  C   UNL     1      35.508 -25.434 -14.964  0.00  0.00    -0.022 C 
ATOM      9  C   UNL     1      36.748 -25.250 -12.912  0.00  0.00    +0.099 C 
ATOM     10  C   UNL     1      36.560 -25.877 -14.152  0.00  0.00    +0.075 C 
ATOM     11  C   UNL     1      35.869 -22.838 -10.422  0.00  0.00    +0.139 C 
ENDBRANCH   1   5
BRANCH   1  13
ATOM     12 CL   UNL     1      34.919 -20.294 -20.005  0.00  0.00    -0.082 Cl
ATOM     13  C   UNL     1      33.903 -23.015 -16.614  0.00  0.00    +0.002 C 
ATOM     14  C   UNL     1      33.002 -22.890 -17.641  0.00  0.00    -0.001 C 
ATOM     15  C   UNL     1      35.100 -22.346 -16.576  0.00  0.00    -0.001 C 
ATOM     16  C   UNL     1      33.319 -22.040 -18.701  0.00  0.00    +0.011 C 
ATOM     17  C   UNL     1      35.418 -21.495 -17.635  0.00  0.00    +0.011 C 
ATOM     18  C   UNL     1      34.527 -21.343 -18.697  0.00  0.00    +0.058 C 
ENDBRANCH   1  13
BRANCH   1  19
ATOM     19  N   UNL     1      32.371 -23.461 -14.674  0.00  0.00    -0.184 N 
ATOM     20  N   UNL     1      32.133 -22.170 -14.637  0.00  0.00    -0.153 NA
ATOM     21  N   UNL     1      30.617 -23.418 -13.463  0.00  0.00    -0.203 NA
ATOM     22  C   UNL     1      31.510 -24.215 -14.002  0.00  0.00    +0.186 C 
ATOM     23  C   UNL     1      31.036 -22.186 -13.876  0.00  0.00    +0.218 C 
ENDBRANCH   1  19
TORSDOF 3
ENDMDL
MODEL 5
REMARK VINA RESULT:     -10.1      1.563      2.195
REMARK  Name = 6918191
REMARK  3 active torsions:
REMARK  status: ('A' for Active; 'I' for Inactive)
REMARK    1  A    between atoms: C_1  and  C_5
REMARK    2  A    between atoms: C_1  and  C_13
REMARK    3  A    between atoms: C_1  and  N_19
REMARK                            x       y       z     vdW  Elec       q    Type
REMARK                         _______ _______ _______ _____ _____    ______ ____
ROOT
ATOM      1  C   UNL     1      33.255 -23.762 -15.427  0.00  0.00    +0.142 C 
ENDROOT
BRANCH   1   5
ATOM      2  N   UNL     1      37.380 -25.423 -13.114  0.00  0.00    -0.200 N 
ATOM      3  N   UNL     1      36.743 -24.826 -11.143  0.00  0.00    -0.146 NA
ATOM      4  N   UNL     1      37.732 -25.404 -11.818  0.00  0.00    -0.045 NA
ATOM      5  C   UNL     1      34.141 -24.020 -14.253  0.00  0.00    -0.001 C 
ATOM      6  C   UNL     1      35.376 -24.648 -14.451  0.00  0.00    +0.015 C 
ATOM      7  C   UNL     1      36.153 -24.859 -13.315  0.00  0.00    +0.084 C 
ATOM      8  C   UNL     1      33.721 -23.629 -12.977  0.00  0.00    -0.022 C 
ATOM      9  C   UNL     1      35.764 -24.482 -12.038  0.00  0.00    +0.099 C 
ATOM     10  C   UNL     1      34.524 -23.854 -11.851  0.00  0.00    +0.075 C 
ATOM     11  C   UNL     1      38.265 -25.996 -14.098  0.00  0.00    +0.139 C 
ENDBRANCH   1   5
BRANCH   1  13
ATOM     12 CL   UNL     1      35.431 -20.396 -19.895  0.00  0.00    -0.082 Cl
ATOM     13  C   UNL     1      33.814 -22.901 -16.572  0.00  0.00    +0.002 C 
ATOM     14  C   UNL     1      35.042 -22.311 -16.405  0.00  0.00    -0.001 C 
ATOM     15  C   UNL     1      33.058 -22.760 -17.708  0.00  0.00    -0.001 C 
ATOM     16  C   UNL     1      35.548 -21.529 -17.443  0.00  0.00    +0.011 C 
ATOM     17  C   UNL     1      33.564 -21.977 -18.748  0.00  0.00    +0.011 C 
ATOM     18  C   UNL     1      34.808 -21.362 -18.614  0.00  0.00    +0.058 C 
ENDBRANCH   1  13
BRANCH   1  19
ATOM     19  N   UNL     1      31.887 -23.315 -15.014  0.00  0.00    -0.184 N 
ATOM     20  N   UNL     1      31.740 -22.106 -14.523  0.00  0.00    -0.153 NA
ATOM     21  N   UNL     1      29.790 -23.296 -14.638  0.00  0.00    -0.203 NA
ATOM     22  C   UNL     1      30.775 -24.034 -15.094  0.00  0.00    +0.186 C 
ATOM     23  C   UNL     1      30.423 -22.134 -14.303  0.00  0.00    +0.218 C 
ENDBRANCH   1  19
TORSDOF 3
ENDMDL
MODEL 6
REMARK VINA RESULT:     -10.0      2.762      4.348
REMARK  Name = 6918191
REMARK  3 active torsions:
REMARK  status: ('A' for Active; 'I' for Inactive)
REMARK    1  A    between atoms: C_1  and  C_5
REMARK    2  A    between atoms: C_1  and  C_13
REMARK    3  A    between atoms: C_1  and  N_19
REMARK                            x       y       z     vdW  Elec       q    Type
REMARK                         _______ _______ _______ _____ _____    ______ ____
ROOT
ATOM      1  C   UNL     1      34.943 -22.477 -15.400  0.00  0.00    +0.142 C 
ENDROOT
BRANCH   1   5
ATOM      2  N   UNL     1      39.089 -25.103 -14.386  0.00  0.00    -0.200 N 
ATOM      3  N   UNL     1      38.094 -27.013 -14.331  0.00  0.00    -0.146 NA
ATOM      4  N   UNL     1      39.276 -26.420 -14.200  0.00  0.00    -0.045 NA
ATOM      5  C   UNL     1      35.730 -23.715 -15.121  0.00  0.00    -0.001 C 
ATOM      6  C   UNL     1      37.108 -23.615 -14.900  0.00  0.00    +0.015 C 
ATOM      7  C   UNL     1      37.783 -24.806 -14.644  0.00  0.00    +0.084 C 
ATOM      8  C   UNL     1      35.076 -24.952 -15.086  0.00  0.00    -0.022 C 
ATOM      9  C   UNL     1      37.162 -26.047 -14.603  0.00  0.00    +0.099 C 
ATOM     10  C   UNL     1      35.780 -26.135 -14.827  0.00  0.00    +0.075 C 
ATOM     11  C   UNL     1      40.206 -24.193 -14.304  0.00  0.00    +0.139 C 
ENDBRANCH   1   5
BRANCH   1  13
ATOM     12 CL   UNL     1      28.959 -22.824 -15.083  0.00  0.00    -0.082 Cl
ATOM     13  C   UNL     1      33.410 -22.568 -15.320  0.00  0.00    +0.002 C 
ATOM     14  C   UNL     1      32.700 -22.666 -16.490  0.00  0.00    -0.001 C 
ATOM     15  C   UNL     1      32.821 -22.544 -14.081  0.00  0.00    -0.001 C 
ATOM     16  C   UNL     1      31.310 -22.746 -16.417  0.00  0.00    +0.011 C 
ATOM     17  C   UNL     1      31.430 -22.625 -14.006  0.00  0.00    +0.011 C 
ATOM     18  C   UNL     1      30.675 -22.725 -15.174  0.00  0.00    +0.058 C 
ENDBRANCH   1  13
BRANCH   1  19
ATOM     19  N   UNL     1      35.393 -21.793 -16.655  0.00  0.00    -0.184 N 
ATOM     20  N   UNL     1      34.832 -22.131 -17.793  0.00  0.00    -0.153 NA
ATOM     21  N   UNL     1      36.431 -20.508 -18.000  0.00  0.00    -0.203 NA
ATOM     22  C   UNL     1      36.326 -20.855 -16.739  0.00  0.00    +0.186 C 
ATOM     23  C   UNL     1      35.504 -21.310 -18.603  0.00  0.00    +0.218 C 
ENDBRANCH   1  19
TORSDOF 3
ENDMDL
MODEL 7
REMARK VINA RESULT:      -9.7      2.770      4.387
REMARK  Name = 6918191
REMARK  3 active torsions:
REMARK  status: ('A' for Active; 'I' for Inactive)
REMARK    1  A    between atoms: C_1  and  C_5
REMARK    2  A    between atoms: C_1  and  C_13
REMARK    3  A    between atoms: C_1  and  N_19
REMARK                            x       y       z     vdW  Elec       q    Type
REMARK                         _______ _______ _______ _____ _____    ______ ____
ROOT
ATOM      1  C   UNL     1      33.688 -22.704 -15.365  0.00  0.00    +0.142 C 
ENDROOT
BRANCH   1   5
ATOM      2  N   UNL     1      36.301 -24.394 -11.437  0.00  0.00    -0.200 N 
ATOM      3  N   UNL     1      37.169 -26.061 -12.492  0.00  0.00    -0.146 NA
ATOM      4  N   UNL     1      37.124 -25.448 -11.313  0.00  0.00    -0.045 NA
ATOM      5  C   UNL     1      34.620 -23.628 -14.652  0.00  0.00    -0.001 C 
ATOM      6  C   UNL     1      34.916 -23.395 -13.305  0.00  0.00    +0.015 C 
ATOM      7  C   UNL     1      35.790 -24.294 -12.699  0.00  0.00    +0.084 C 
ATOM      8  C   UNL     1      35.178 -24.708 -15.343  0.00  0.00    -0.022 C 
ATOM      9  C   UNL     1      36.360 -25.374 -13.358  0.00  0.00    +0.099 C 
ATOM     10  C   UNL     1      36.056 -25.596 -14.709  0.00  0.00    +0.075 C 
ATOM     11  C   UNL     1      36.053 -23.531 -10.309  0.00  0.00    +0.139 C 
ENDBRANCH   1   5
BRANCH   1  13
ATOM     12 CL   UNL     1      27.827 -23.994 -15.249  0.00  0.00    -0.082 Cl
ATOM     13  C   UNL     1      32.186 -23.034 -15.334  0.00  0.00    +0.002 C 
ATOM     14  C   UNL     1      31.744 -23.976 -14.440  0.00  0.00    -0.001 C 
ATOM     15  C   UNL     1      31.356 -22.371 -16.203  0.00  0.00    -0.001 C 
ATOM     16  C   UNL     1      30.383 -24.277 -14.413  0.00  0.00    +0.011 C 
ATOM     17  C   UNL     1      29.993 -22.670 -16.176  0.00  0.00    +0.011 C 
ATOM     18  C   UNL     1      29.508 -23.623 -15.282  0.00  0.00    +0.058 C 
ENDBRANCH   1  13
BRANCH   1  19
ATOM     19  N   UNL     1      34.157 -22.389 -16.752  0.00  0.00    -0.184 N 
ATOM     20  N   UNL     1      33.440 -22.803 -17.771  0.00  0.00    -0.153 NA
ATOM     21  N   UNL     1      35.317 -21.648 -18.379  0.00  0.00    -0.203 NA
ATOM     22  C   UNL     1      35.255 -21.715 -17.069  0.00  0.00    +0.186 C 
ATOM     23  C   UNL     1      34.194 -22.323 -18.762  0.00  0.00    +0.218 C 
ENDBRANCH   1  19
TORSDOF 3
ENDMDL
MODEL 8
REMARK VINA RESULT:      -9.5     13.638     16.279
REMARK  Name = 6918191
REMARK  3 active torsions:
REMARK  status: ('A' for Active; 'I' for Inactive)
REMARK    1  A    between atoms: C_1  and  C_5
REMARK    2  A    between atoms: C_1  and  C_13
REMARK    3  A    between atoms: C_1  and  N_19
REMARK                            x       y       z     vdW  Elec       q    Type
REMARK                         _______ _______ _______ _____ _____    ______ ____
ROOT
ATOM      1  C   UNL     1      31.230  -7.471 -22.218  0.00  0.00    +0.142 C 
ENDROOT
BRANCH   1   5
ATOM      2  N   UNL     1      32.534 -12.213 -23.187  0.00  0.00    -0.200 N 
ATOM      3  N   UNL     1      31.968 -12.964 -21.248  0.00  0.00    -0.146 NA
ATOM      4  N   UNL     1      32.473 -13.317 -22.425  0.00  0.00    -0.045 NA
ATOM      5  C   UNL     1      31.403  -8.922 -21.906  0.00  0.00    -0.001 C 
ATOM      6  C   UNL     1      31.933  -9.774 -22.881  0.00  0.00    +0.015 C 
ATOM      7  C   UNL     1      32.069 -11.113 -22.526  0.00  0.00    +0.084 C 
ATOM      8  C   UNL     1      31.034  -9.401 -20.644  0.00  0.00    -0.022 C 
ATOM      9  C   UNL     1      31.712 -11.618 -21.283  0.00  0.00    +0.099 C 
ATOM     10  C   UNL     1      31.182 -10.755 -20.314  0.00  0.00    +0.075 C 
ATOM     11  C   UNL     1      33.045 -12.288 -24.534  0.00  0.00    +0.139 C 
ENDBRANCH   1   5
BRANCH   1  13
ATOM     12 CL   UNL     1      33.489  -5.423 -27.388  0.00  0.00    -0.082 Cl
ATOM     13  C   UNL     1      31.809  -6.948 -23.543  0.00  0.00    +0.002 C 
ATOM     14  C   UNL     1      33.153  -6.677 -23.604  0.00  0.00    -0.001 C 
ATOM     15  C   UNL     1      30.956  -6.775 -24.603  0.00  0.00    -0.001 C 
ATOM     16  C   UNL     1      33.678  -6.201 -24.805  0.00  0.00    +0.011 C 
ATOM     17  C   UNL     1      31.480  -6.299 -25.805  0.00  0.00    +0.011 C 
ATOM     18  C   UNL     1      32.841  -6.012 -25.906  0.00  0.00    +0.058 C 
ENDBRANCH   1  13
BRANCH   1  19
ATOM     19  N   UNL     1      31.608  -6.597 -21.063  0.00  0.00    -0.184 N 
ATOM     20  N   UNL     1      30.967  -5.463 -20.893  0.00  0.00    -0.153 NA
ATOM     21  N   UNL     1      32.579  -5.853 -19.318  0.00  0.00    -0.203 NA
ATOM     22  C   UNL     1      32.552  -6.854 -20.167  0.00  0.00    +0.186 C 
ATOM     23  C   UNL     1      31.600  -5.032 -19.799  0.00  0.00    +0.218 C 
ENDBRANCH   1  19
TORSDOF 3
ENDMDL
MODEL 9
REMARK VINA RESULT:      -9.3      2.732      4.252
REMARK  Name = 6918191
REMARK  3 active torsions:
REMARK  status: ('A' for Active; 'I' for Inactive)
REMARK    1  A    between atoms: C_1  and  C_5
REMARK    2  A    between atoms: C_1  and  C_13
REMARK    3  A    between atoms: C_1  and  N_19
REMARK                            x       y       z     vdW  Elec       q    Type
REMARK                         _______ _______ _______ _____ _____    ______ ____
ROOT
ATOM      1  C   UNL     1      33.701 -22.529 -15.600  0.00  0.00    +0.142 C 
ENDROOT
BRANCH   1   5
ATOM      2  N   UNL     1      37.112 -25.948 -14.263  0.00  0.00    -0.200 N 
ATOM      3  N   UNL     1      38.262 -24.597 -13.039  0.00  0.00    -0.146 NA
ATOM      4  N   UNL     1      38.195 -25.851 -13.473  0.00  0.00    -0.045 NA
ATOM      5  C   UNL     1      34.921 -23.024 -14.896  0.00  0.00    -0.001 C 
ATOM      6  C   UNL     1      35.300 -24.363 -15.043  0.00  0.00    +0.015 C 
ATOM      7  C   UNL     1      36.448 -24.760 -14.361  0.00  0.00    +0.084 C 
ATOM      8  C   UNL     1      35.663 -22.141 -14.104  0.00  0.00    -0.022 C 
ATOM      9  C   UNL     1      37.204 -23.907 -13.568  0.00  0.00    +0.099 C 
ATOM     10  C   UNL     1      36.814 -22.568 -13.428  0.00  0.00    +0.075 C 
ATOM     11  C   UNL     1      36.778 -27.205 -14.885  0.00  0.00    +0.139 C 
ENDBRANCH   1   5
BRANCH   1  13
ATOM     12 CL   UNL     1      28.418 -24.949 -14.096  0.00  0.00    -0.082 Cl
ATOM     13  C   UNL     1      32.347 -23.148 -15.213  0.00  0.00    +0.002 C 
ATOM     14  C   UNL     1      32.315 -24.050 -14.180  0.00  0.00    -0.001 C 
ATOM     15  C   UNL     1      31.234 -22.771 -15.920  0.00  0.00    -0.001 C 
ATOM     16  C   UNL     1      31.088 -24.613 -13.831  0.00  0.00    +0.011 C 
ATOM     17  C   UNL     1      30.005 -23.333 -15.571  0.00  0.00    +0.011 C 
ATOM     18  C   UNL     1      29.933 -24.254 -14.527  0.00  0.00    +0.058 C 
ENDBRANCH   1  13
BRANCH   1  19
ATOM     19  N   UNL     1      33.886 -22.485 -17.086  0.00  0.00    -0.184 N 
ATOM     20  N   UNL     1      33.137 -23.258 -17.838  0.00  0.00    -0.153 NA
ATOM     21  N   UNL     1      34.610 -21.970 -19.023  0.00  0.00    -0.203 NA
ATOM     22  C   UNL     1      34.753 -21.725 -17.741  0.00  0.00    +0.186 C 
ATOM     23  C   UNL     1      33.618 -22.908 -19.034  0.00  0.00    +0.218 C 
ENDBRANCH   1  19
TORSDOF 3
ENDMDL
