MODEL 1
REMARK VINA RESULT:     -13.8      0.000      0.000
REMARK  Name = 17758361
REMARK  5 active torsions:
REMARK  status: ('A' for Active; 'I' for Inactive)
REMARK    1  A    between atoms: N_1  and  C_18
REMARK    2  A    between atoms: C_4  and  C_10
REMARK    3  A    between atoms: C_10  and  C_11
REMARK    4  A    between atoms: C_18  and  C_19
REMARK    5  A    between atoms: C_22  and  C_27
REMARK                            x       y       z     vdW  Elec       q    Type
REMARK                         _______ _______ _______ _____ _____    ______ ____
ROOT
ATOM      1  N   UNL     1      35.209 -18.304 -22.735  0.00  0.00    -0.314 N 
ATOM      2  N   UNL     1      34.056 -17.091 -24.390  0.00  0.00    -0.229 NA
ATOM      3  C   UNL     1      34.557 -17.150 -23.136  0.00  0.00    +0.129 C 
ATOM      4  C   UNL     1      33.813 -14.956 -22.603  0.00  0.00    +0.043 C 
ATOM      5  C   UNL     1      34.464 -16.121 -22.213  0.00  0.00    +0.037 C 
ATOM      6  C   UNL     1      33.284 -14.857 -23.885  0.00  0.00    +0.024 C 
ATOM      7  C   UNL     1      33.430 -15.942 -24.733  0.00  0.00    +0.100 C 
ATOM      8  H   UNL     1      35.282 -19.044 -23.380  0.00  0.00    +0.149 HD
ENDROOT
BRANCH   4  10
ATOM      9  O   UNL     1      34.129 -13.939 -20.520  0.00  0.00    -0.287 OA
ATOM     10  C   UNL     1      33.687 -13.843 -21.674  0.00  0.00    +0.196 C 
BRANCH  10  11
ATOM     11  C   UNL     1      33.031 -12.555 -22.052  0.00  0.00    +0.039 C 
ATOM     12  C   UNL     1      32.022 -12.023 -21.249  0.00  0.00    -0.001 C 
ATOM     13  C   UNL     1      31.411 -10.820 -21.602  0.00  0.00    -0.022 C 
ATOM     14  C   UNL     1      33.429 -11.884 -23.208  0.00  0.00    +0.003 C 
ATOM     15  C   UNL     1      31.809 -10.148 -22.758  0.00  0.00    -0.004 C 
ATOM     16  C   UNL     1      32.818 -10.680 -23.560  0.00  0.00    -0.000 C 
ATOM     17  C   UNL     1      30.334 -10.249 -20.742  0.00  0.00    +0.031 C 
ENDBRANCH  10  11
ENDBRANCH   4  10
BRANCH   1  18
ATOM     18  C   UNL     1      35.786 -18.482 -21.421  0.00  0.00    +0.115 C 
BRANCH  18  19
ATOM     19  C   UNL     1      35.005 -19.472 -20.624  0.00  0.00    -0.003 C 
ATOM     20  C   UNL     1      33.611 -19.453 -20.663  0.00  0.00    -0.003 C 
ATOM     21  C   UNL     1      35.668 -20.415 -19.838  0.00  0.00    -0.003 C 
ATOM     22  C   UNL     1      33.543 -21.320 -19.132  0.00  0.00    +0.031 C 
ATOM     23  C   UNL     1      32.880 -20.377 -19.916  0.00  0.00    +0.002 C 
ATOM     24  C   UNL     1      34.937 -21.339 -19.093  0.00  0.00    +0.002 C 
BRANCH  22  27
ATOM     25  N   UNL     1      31.554 -21.946 -17.783  0.00  0.00    -0.343 N 
ATOM     26  N   UNL     1      33.251 -23.505 -18.175  0.00  0.00    -0.285 NA
ATOM     27  C   UNL     1      32.780 -22.283 -18.354  0.00  0.00    +0.117 C 
ATOM     28  H   UNL     1      31.054 -22.614 -17.260  0.00  0.00    +0.144 HD
ATOM     29  H   UNL     1      31.188 -21.039 -17.902  0.00  0.00    +0.144 HD
ATOM     30  H   UNL     1      32.736 -24.159 -17.650  0.00  0.00    +0.188 HD
ENDBRANCH  22  27
ENDBRANCH  18  19
ENDBRANCH   1  18
TORSDOF 5
ENDMDL
MODEL 2
REMARK VINA RESULT:     -13.2      5.353     10.842
REMARK  Name = 17758361
REMARK  5 active torsions:
REMARK  status: ('A' for Active; 'I' for Inactive)
REMARK    1  A    between atoms: N_1  and  C_18
REMARK    2  A    between atoms: C_4  and  C_10
REMARK    3  A    between atoms: C_10  and  C_11
REMARK    4  A    between atoms: C_18  and  C_19
REMARK    5  A    between atoms: C_22  and  C_27
REMARK                            x       y       z     vdW  Elec       q    Type
REMARK                         _______ _______ _______ _____ _____    ______ ____
ROOT
ATOM      1  N   UNL     1      32.070 -21.961 -18.193  0.00  0.00    -0.314 N 
ATOM      2  N   UNL     1      30.129 -21.941 -16.863  0.00  0.00    -0.229 NA
ATOM      3  C   UNL     1      31.429 -22.280 -17.008  0.00  0.00    +0.129 C 
ATOM      4  C   UNL     1      31.544 -23.255 -14.842  0.00  0.00    +0.043 C 
ATOM      5  C   UNL     1      32.175 -22.931 -16.038  0.00  0.00    +0.037 C 
ATOM      6  C   UNL     1      30.206 -22.923 -14.656  0.00  0.00    +0.024 C 
ATOM      7  C   UNL     1      29.549 -22.272 -15.687  0.00  0.00    +0.100 C 
ATOM      8  H   UNL     1      31.553 -21.499 -18.891  0.00  0.00    +0.149 HD
ENDROOT
BRANCH   4  10
ATOM      9  O   UNL     1      31.673 -24.570 -12.912  0.00  0.00    -0.287 OA
ATOM     10  C   UNL     1      32.279 -23.938 -13.789  0.00  0.00    +0.196 C 
BRANCH  10  11
ATOM     11  C   UNL     1      33.771 -23.915 -13.711  0.00  0.00    +0.039 C 
ATOM     12  C   UNL     1      34.403 -23.348 -12.604  0.00  0.00    -0.001 C 
ATOM     13  C   UNL     1      35.796 -23.327 -12.530  0.00  0.00    -0.022 C 
ATOM     14  C   UNL     1      34.532 -24.463 -14.744  0.00  0.00    +0.003 C 
ATOM     15  C   UNL     1      36.557 -23.875 -13.564  0.00  0.00    -0.004 C 
ATOM     16  C   UNL     1      35.925 -24.443 -14.670  0.00  0.00    -0.000 C 
ATOM     17  C   UNL     1      36.472 -22.724 -11.346  0.00  0.00    +0.031 C 
ENDBRANCH  10  11
ENDBRANCH   4  10
BRANCH   1  18
ATOM     18  C   UNL     1      33.458 -22.271 -18.460  0.00  0.00    +0.115 C 
BRANCH  18  19
ATOM     19  C   UNL     1      34.101 -21.191 -19.263  0.00  0.00    -0.003 C 
ATOM     20  C   UNL     1      35.480 -20.997 -19.191  0.00  0.00    -0.003 C 
ATOM     21  C   UNL     1      33.323 -20.374 -20.084  0.00  0.00    -0.003 C 
ATOM     22  C   UNL     1      35.305 -19.169 -20.761  0.00  0.00    +0.031 C 
ATOM     23  C   UNL     1      36.082 -19.986 -19.940  0.00  0.00    +0.002 C 
ATOM     24  C   UNL     1      33.926 -19.363 -20.833  0.00  0.00    +0.002 C 
BRANCH  22  27
ATOM     25  N   UNL     1      35.175 -17.150 -22.200  0.00  0.00    -0.343 N 
ATOM     26  N   UNL     1      37.250 -18.066 -21.639  0.00  0.00    -0.285 NA
ATOM     27  C   UNL     1      35.933 -18.116 -21.542  0.00  0.00    +0.117 C 
ATOM     28  H   UNL     1      35.621 -16.445 -22.723  0.00  0.00    +0.144 HD
ATOM     29  H   UNL     1      34.192 -17.172 -22.142  0.00  0.00    +0.144 HD
ATOM     30  H   UNL     1      37.678 -17.353 -22.167  0.00  0.00    +0.188 HD
ENDBRANCH  22  27
ENDBRANCH  18  19
ENDBRANCH   1  18
TORSDOF 5
ENDMDL
MODEL 3
REMARK VINA RESULT:     -12.8      3.853     10.363
REMARK  Name = 17758361
REMARK  5 active torsions:
REMARK  status: ('A' for Active; 'I' for Inactive)
REMARK    1  A    between atoms: N_1  and  C_18
REMARK    2  A    between atoms: C_4  and  C_10
REMARK    3  A    between atoms: C_10  and  C_11
REMARK    4  A    between atoms: C_18  and  C_19
REMARK    5  A    between atoms: C_22  and  C_27
REMARK                            x       y       z     vdW  Elec       q    Type
REMARK                         _______ _______ _______ _____ _____    ______ ____
ROOT
ATOM      1  N   UNL     1      34.403 -20.358 -20.526  0.00  0.00    -0.314 N 
ATOM      2  N   UNL     1      33.374 -21.828 -19.002  0.00  0.00    -0.229 NA
ATOM      3  C   UNL     1      34.427 -21.044 -19.323  0.00  0.00    +0.129 C 
ATOM      4  C   UNL     1      35.579 -21.555 -17.307  0.00  0.00    +0.043 C 
ATOM      5  C   UNL     1      35.543 -20.875 -18.518  0.00  0.00    +0.037 C 
ATOM      6  C   UNL     1      34.514 -22.373 -16.942  0.00  0.00    +0.024 C 
ATOM      7  C   UNL     1      33.445 -22.474 -17.817  0.00  0.00    +0.100 C 
ATOM      8  H   UNL     1      33.617 -20.469 -21.108  0.00  0.00    +0.149 HD
ENDROOT
BRANCH   4  10
ATOM      9  O   UNL     1      37.445 -20.407 -16.487  0.00  0.00    -0.287 OA
ATOM     10  C   UNL     1      36.726 -21.414 -16.423  0.00  0.00    +0.196 C 
BRANCH  10  11
ATOM     11  C   UNL     1      37.090 -22.452 -15.411  0.00  0.00    +0.039 C 
ATOM     12  C   UNL     1      38.234 -23.231 -15.591  0.00  0.00    -0.001 C 
ATOM     13  C   UNL     1      38.574 -24.199 -14.647  0.00  0.00    -0.022 C 
ATOM     14  C   UNL     1      36.287 -22.642 -14.287  0.00  0.00    +0.003 C 
ATOM     15  C   UNL     1      37.770 -24.389 -13.522  0.00  0.00    -0.004 C 
ATOM     16  C   UNL     1      36.628 -23.610 -13.342  0.00  0.00    -0.000 C 
ATOM     17  C   UNL     1      39.798 -25.029 -14.837  0.00  0.00    +0.031 C 
ENDBRANCH  10  11
ENDBRANCH   4  10
BRANCH   1  18
ATOM     18  C   UNL     1      35.470 -19.490 -20.973  0.00  0.00    +0.115 C 
BRANCH  18  19
ATOM     19  C   UNL     1      34.939 -18.389 -21.829  0.00  0.00    -0.003 C 
ATOM     20  C   UNL     1      35.060 -17.063 -21.413  0.00  0.00    -0.003 C 
ATOM     21  C   UNL     1      34.320 -18.686 -23.044  0.00  0.00    -0.003 C 
ATOM     22  C   UNL     1      33.944 -16.330 -23.426  0.00  0.00    +0.031 C 
ATOM     23  C   UNL     1      34.562 -16.034 -22.211  0.00  0.00    +0.002 C 
ATOM     24  C   UNL     1      33.823 -17.656 -23.842  0.00  0.00    +0.002 C 
BRANCH  22  27
ATOM     25  N   UNL     1      32.916 -14.086 -23.698  0.00  0.00    -0.343 N 
ATOM     26  N   UNL     1      33.430 -15.383 -25.573  0.00  0.00    -0.285 NA
ATOM     27  C   UNL     1      33.426 -15.256 -24.258  0.00  0.00    +0.117 C 
ATOM     28  H   UNL     1      32.570 -13.371 -24.280  0.00  0.00    +0.144 HD
ATOM     29  H   UNL     1      32.902 -13.974 -22.719  0.00  0.00    +0.144 HD
ATOM     30  H   UNL     1      33.079 -14.657 -26.138  0.00  0.00    +0.188 HD
ENDBRANCH  22  27
ENDBRANCH  18  19
ENDBRANCH   1  18
TORSDOF 5
ENDMDL
MODEL 4
REMARK VINA RESULT:     -12.8      3.100      9.053
REMARK  Name = 17758361
REMARK  5 active torsions:
REMARK  status: ('A' for Active; 'I' for Inactive)
REMARK    1  A    between atoms: N_1  and  C_18
REMARK    2  A    between atoms: C_4  and  C_10
REMARK    3  A    between atoms: C_10  and  C_11
REMARK    4  A    between atoms: C_18  and  C_19
REMARK    5  A    between atoms: C_22  and  C_27
REMARK                            x       y       z     vdW  Elec       q    Type
REMARK                         _______ _______ _______ _____ _____    ______ ____
ROOT
ATOM      1  N   UNL     1      33.330 -14.500 -23.749  0.00  0.00    -0.314 N 
ATOM      2  N   UNL     1      32.918 -16.565 -24.800  0.00  0.00    -0.229 NA
ATOM      3  C   UNL     1      33.523 -15.870 -23.812  0.00  0.00    +0.129 C 
ATOM      4  C   UNL     1      34.534 -17.816 -22.893  0.00  0.00    +0.043 C 
ATOM      5  C   UNL     1      34.333 -16.441 -22.843  0.00  0.00    +0.037 C 
ATOM      6  C   UNL     1      33.929 -18.566 -23.896  0.00  0.00    +0.024 C 
ATOM      7  C   UNL     1      33.137 -17.899 -24.817  0.00  0.00    +0.100 C 
ATOM      8  H   UNL     1      32.757 -14.080 -24.431  0.00  0.00    +0.149 HD
ENDROOT
BRANCH   4  10
ATOM      9  O   UNL     1      36.596 -18.259 -21.881  0.00  0.00    -0.287 OA
ATOM     10  C   UNL     1      35.375 -18.468 -21.901  0.00  0.00    +0.196 C 
BRANCH  10  11
ATOM     11  C   UNL     1      34.823 -19.406 -20.876  0.00  0.00    +0.039 C 
ATOM     12  C   UNL     1      35.677 -20.014 -19.955  0.00  0.00    -0.001 C 
ATOM     13  C   UNL     1      35.161 -20.887 -18.998  0.00  0.00    -0.022 C 
ATOM     14  C   UNL     1      33.455 -19.671 -20.840  0.00  0.00    +0.003 C 
ATOM     15  C   UNL     1      33.792 -21.153 -18.962  0.00  0.00    -0.004 C 
ATOM     16  C   UNL     1      32.939 -20.545 -19.882  0.00  0.00    -0.000 C 
ATOM     17  C   UNL     1      36.073 -21.535 -18.011  0.00  0.00    +0.031 C 
ENDBRANCH  10  11
ENDBRANCH   4  10
BRANCH   1  18
ATOM     18  C   UNL     1      33.923 -13.654 -22.737  0.00  0.00    +0.115 C 
BRANCH  18  19
ATOM     19  C   UNL     1      33.158 -12.381 -22.589  0.00  0.00    -0.003 C 
ATOM     20  C   UNL     1      32.158 -12.279 -21.622  0.00  0.00    -0.003 C 
ATOM     21  C   UNL     1      33.441 -11.296 -23.418  0.00  0.00    -0.003 C 
ATOM     22  C   UNL     1      31.724 -10.005 -22.312  0.00  0.00    +0.031 C 
ATOM     23  C   UNL     1      31.441 -11.091 -21.484  0.00  0.00    +0.002 C 
ATOM     24  C   UNL     1      32.724 -10.108 -23.279  0.00  0.00    +0.002 C 
BRANCH  22  27
ATOM     25  N   UNL     1      30.080  -8.341 -23.147  0.00  0.00    -0.343 N 
ATOM     26  N   UNL     1      31.145  -8.019 -21.091  0.00  0.00    -0.285 NA
ATOM     27  C   UNL     1      30.976  -8.766 -22.168  0.00  0.00    +0.117 C 
ATOM     28  H   UNL     1      29.584  -7.499 -23.028  0.00  0.00    +0.144 HD
ATOM     29  H   UNL     1      29.943  -8.883 -23.957  0.00  0.00    +0.144 HD
ATOM     30  H   UNL     1      30.639  -7.180 -20.991  0.00  0.00    +0.188 HD
ENDBRANCH  22  27
ENDBRANCH  18  19
ENDBRANCH   1  18
TORSDOF 5
ENDMDL
MODEL 5
REMARK VINA RESULT:     -12.6      4.604     10.968
REMARK  Name = 17758361
REMARK  5 active torsions:
REMARK  status: ('A' for Active; 'I' for Inactive)
REMARK    1  A    between atoms: N_1  and  C_18
REMARK    2  A    between atoms: C_4  and  C_10
REMARK    3  A    between atoms: C_10  and  C_11
REMARK    4  A    between atoms: C_18  and  C_19
REMARK    5  A    between atoms: C_22  and  C_27
REMARK                            x       y       z     vdW  Elec       q    Type
REMARK                         _______ _______ _______ _____ _____    ______ ____
ROOT
ATOM      1  N   UNL     1      34.351 -21.282 -19.252  0.00  0.00    -0.314 N 
ATOM      2  N   UNL     1      33.061 -22.467 -17.681  0.00  0.00    -0.229 NA
ATOM      3  C   UNL     1      34.237 -21.892 -18.014  0.00  0.00    +0.129 C 
ATOM      4  C   UNL     1      35.251 -22.477 -15.945  0.00  0.00    +0.043 C 
ATOM      5  C   UNL     1      35.352 -21.870 -17.191  0.00  0.00    +0.037 C 
ATOM      6  C   UNL     1      34.057 -23.080 -15.565  0.00  0.00    +0.024 C 
ATOM      7  C   UNL     1      33.000 -23.048 -16.461  0.00  0.00    +0.100 C 
ATOM      8  H   UNL     1      33.567 -21.291 -19.848  0.00  0.00    +0.149 HD
ENDROOT
BRANCH   4  10
ATOM      9  O   UNL     1      37.298 -21.649 -15.172  0.00  0.00    -0.287 OA
ATOM     10  C   UNL     1      36.390 -22.482 -15.040  0.00  0.00    +0.196 C 
BRANCH  10  11
ATOM     11  C   UNL     1      36.524 -23.471 -13.927  0.00  0.00    +0.039 C 
ATOM     12  C   UNL     1      36.089 -23.139 -12.643  0.00  0.00    -0.001 C 
ATOM     13  C   UNL     1      36.213 -24.062 -11.605  0.00  0.00    -0.022 C 
ATOM     14  C   UNL     1      37.081 -24.725 -14.173  0.00  0.00    +0.003 C 
ATOM     15  C   UNL     1      36.771 -25.317 -11.851  0.00  0.00    -0.004 C 
ATOM     16  C   UNL     1      37.205 -25.649 -13.134  0.00  0.00    -0.000 C 
ATOM     17  C   UNL     1      35.747 -23.710 -10.233  0.00  0.00    +0.031 C 
ENDBRANCH  10  11
ENDBRANCH   4  10
BRANCH   1  18
ATOM     18  C   UNL     1      35.557 -20.634 -19.717  0.00  0.00    +0.115 C 
BRANCH  18  19
ATOM     19  C   UNL     1      35.245 -19.597 -20.744  0.00  0.00    -0.003 C 
ATOM     20  C   UNL     1      36.162 -18.579 -21.007  0.00  0.00    -0.003 C 
ATOM     21  C   UNL     1      34.036 -19.645 -21.439  0.00  0.00    -0.003 C 
ATOM     22  C   UNL     1      34.662 -17.656 -22.660  0.00  0.00    +0.031 C 
ATOM     23  C   UNL     1      35.870 -17.609 -21.965  0.00  0.00    +0.002 C 
ATOM     24  C   UNL     1      33.745 -18.674 -22.397  0.00  0.00    +0.002 C 
BRANCH  22  27
ATOM     25  N   UNL     1      34.774 -15.323 -23.502  0.00  0.00    -0.343 N 
ATOM     26  N   UNL     1      33.672 -16.971 -24.739  0.00  0.00    -0.285 NA
ATOM     27  C   UNL     1      34.358 -16.644 -23.658  0.00  0.00    +0.117 C 
ATOM     28  H   UNL     1      34.558 -14.653 -24.191  0.00  0.00    +0.144 HD
ATOM     29  H   UNL     1      35.284 -15.059 -22.702  0.00  0.00    +0.144 HD
ATOM     30  H   UNL     1      33.466 -16.288 -25.417  0.00  0.00    +0.188 HD
ENDBRANCH  22  27
ENDBRANCH  18  19
ENDBRANCH   1  18
TORSDOF 5
ENDMDL
MODEL 6
REMARK VINA RESULT:     -12.6      5.310     10.617
REMARK  Name = 17758361
REMARK  5 active torsions:
REMARK  status: ('A' for Active; 'I' for Inactive)
REMARK    1  A    between atoms: N_1  and  C_18
REMARK    2  A    between atoms: C_4  and  C_10
REMARK    3  A    between atoms: C_10  and  C_11
REMARK    4  A    between atoms: C_18  and  C_19
REMARK    5  A    between atoms: C_22  and  C_27
REMARK                            x       y       z     vdW  Elec       q    Type
REMARK                         _______ _______ _______ _____ _____    ______ ____
ROOT
ATOM      1  N   UNL     1      34.605 -22.674 -17.289  0.00  0.00    -0.314 N 
ATOM      2  N   UNL     1      35.437 -23.664 -15.323  0.00  0.00    -0.229 NA
ATOM      3  C   UNL     1      34.413 -23.072 -15.977  0.00  0.00    +0.129 C 
ATOM      4  C   UNL     1      32.961 -23.233 -14.101  0.00  0.00    +0.043 C 
ATOM      5  C   UNL     1      33.168 -22.836 -15.417  0.00  0.00    +0.037 C 
ATOM      6  C   UNL     1      33.991 -23.845 -13.395  0.00  0.00    +0.024 C 
ATOM      7  C   UNL     1      35.199 -24.037 -14.045  0.00  0.00    +0.100 C 
ATOM      8  H   UNL     1      35.485 -22.834 -17.699  0.00  0.00    +0.149 HD
ENDROOT
BRANCH   4  10
ATOM      9  O   UNL     1      31.607 -22.431 -12.370  0.00  0.00    -0.287 OA
ATOM     10  C   UNL     1      31.672 -23.010 -13.464  0.00  0.00    +0.196 C 
BRANCH  10  11
ATOM     11  C   UNL     1      30.386 -23.457 -14.081  0.00  0.00    +0.039 C 
ATOM     12  C   UNL     1      29.633 -22.566 -14.846  0.00  0.00    -0.001 C 
ATOM     13  C   UNL     1      28.434 -22.983 -15.422  0.00  0.00    -0.022 C 
ATOM     14  C   UNL     1      29.941 -24.764 -13.893  0.00  0.00    +0.003 C 
ATOM     15  C   UNL     1      27.988 -24.292 -15.234  0.00  0.00    -0.004 C 
ATOM     16  C   UNL     1      28.741 -25.182 -14.470  0.00  0.00    -0.000 C 
ATOM     17  C   UNL     1      27.629 -22.033 -16.243  0.00  0.00    +0.031 C 
ENDBRANCH  10  11
ENDBRANCH   4  10
BRANCH   1  18
ATOM     18  C   UNL     1      33.583 -22.033 -18.088  0.00  0.00    +0.115 C 
BRANCH  18  19
ATOM     19  C   UNL     1      34.185 -21.056 -19.041  0.00  0.00    -0.003 C 
ATOM     20  C   UNL     1      33.366 -20.329 -19.904  0.00  0.00    -0.003 C 
ATOM     21  C   UNL     1      35.568 -20.870 -19.070  0.00  0.00    -0.003 C 
ATOM     22  C   UNL     1      35.310 -19.231 -20.826  0.00  0.00    +0.031 C 
ATOM     23  C   UNL     1      33.928 -19.417 -20.797  0.00  0.00    +0.002 C 
ATOM     24  C   UNL     1      36.130 -19.958 -19.962  0.00  0.00    +0.002 C 
BRANCH  22  27
ATOM     25  N   UNL     1      35.112 -17.597 -22.685  0.00  0.00    -0.343 N 
ATOM     26  N   UNL     1      37.197 -18.052 -21.733  0.00  0.00    -0.285 NA
ATOM     27  C   UNL     1      35.895 -18.279 -21.756  0.00  0.00    +0.117 C 
ATOM     28  H   UNL     1      35.529 -16.957 -23.306  0.00  0.00    +0.144 HD
ATOM     29  H   UNL     1      34.140 -17.755 -22.720  0.00  0.00    +0.144 HD
ATOM     30  H   UNL     1      37.595 -17.408 -22.362  0.00  0.00    +0.188 HD
ENDBRANCH  22  27
ENDBRANCH  18  19
ENDBRANCH   1  18
TORSDOF 5
ENDMDL
MODEL 7
REMARK VINA RESULT:     -12.5      3.827      6.182
REMARK  Name = 17758361
REMARK  5 active torsions:
REMARK  status: ('A' for Active; 'I' for Inactive)
REMARK    1  A    between atoms: N_1  and  C_18
REMARK    2  A    between atoms: C_4  and  C_10
REMARK    3  A    between atoms: C_10  and  C_11
REMARK    4  A    between atoms: C_18  and  C_19
REMARK    5  A    between atoms: C_22  and  C_27
REMARK                            x       y       z     vdW  Elec       q    Type
REMARK                         _______ _______ _______ _____ _____    ______ ____
ROOT
ATOM      1  N   UNL     1      34.477 -22.033 -17.669  0.00  0.00    -0.314 N 
ATOM      2  N   UNL     1      32.712 -21.409 -19.095  0.00  0.00    -0.229 NA
ATOM      3  C   UNL     1      34.004 -21.271 -18.724  0.00  0.00    +0.129 C 
ATOM      4  C   UNL     1      34.440 -19.641 -20.399  0.00  0.00    +0.043 C 
ATOM      5  C   UNL     1      34.901 -20.411 -19.337  0.00  0.00    +0.037 C 
ATOM      6  C   UNL     1      33.116 -19.754 -20.810  0.00  0.00    +0.024 C 
ATOM      7  C   UNL     1      32.300 -20.644 -20.131  0.00  0.00    +0.100 C 
ATOM      8  H   UNL     1      33.851 -22.649 -17.223  0.00  0.00    +0.149 HD
ENDROOT
BRANCH   4  10
ATOM      9  O   UNL     1      36.559 -18.932 -21.089  0.00  0.00    -0.287 OA
ATOM     10  C   UNL     1      35.338 -18.721 -21.079  0.00  0.00    +0.196 C 
BRANCH  10  11
ATOM     11  C   UNL     1      34.847 -17.499 -21.787  0.00  0.00    +0.039 C 
ATOM     12  C   UNL     1      34.591 -16.332 -21.067  0.00  0.00    -0.001 C 
ATOM     13  C   UNL     1      34.134 -15.192 -21.727  0.00  0.00    -0.022 C 
ATOM     14  C   UNL     1      34.648 -17.526 -23.166  0.00  0.00    +0.003 C 
ATOM     15  C   UNL     1      33.934 -15.218 -23.108  0.00  0.00    -0.004 C 
ATOM     16  C   UNL     1      34.192 -16.385 -23.827  0.00  0.00    -0.000 C 
ATOM     17  C   UNL     1      33.862 -13.943 -20.959  0.00  0.00    +0.031 C 
ENDBRANCH  10  11
ENDBRANCH   4  10
BRANCH   1  18
ATOM     18  C   UNL     1      35.839 -21.973 -17.186  0.00  0.00    +0.115 C 
BRANCH  18  19
ATOM     19  C   UNL     1      35.937 -22.509 -15.797  0.00  0.00    -0.003 C 
ATOM     20  C   UNL     1      37.188 -22.690 -15.207  0.00  0.00    -0.003 C 
ATOM     21  C   UNL     1      34.779 -22.832 -15.090  0.00  0.00    -0.003 C 
ATOM     22  C   UNL     1      36.122 -23.515 -13.202  0.00  0.00    +0.031 C 
ATOM     23  C   UNL     1      37.280 -23.193 -13.909  0.00  0.00    +0.002 C 
ATOM     24  C   UNL     1      34.872 -23.334 -13.792  0.00  0.00    +0.002 C 
BRANCH  22  27
ATOM     25  N   UNL     1      36.485 -23.204 -10.765  0.00  0.00    -0.343 N 
ATOM     26  N   UNL     1      36.060 -25.332 -11.632  0.00  0.00    -0.285 NA
ATOM     27  C   UNL     1      36.220 -24.039 -11.849  0.00  0.00    +0.117 C 
ATOM     28  H   UNL     1      36.546 -23.580  -9.857  0.00  0.00    +0.144 HD
ATOM     29  H   UNL     1      36.610 -22.238 -10.907  0.00  0.00    +0.144 HD
ATOM     30  H   UNL     1      36.125 -25.690 -10.717  0.00  0.00    +0.188 HD
ENDBRANCH  22  27
ENDBRANCH  18  19
ENDBRANCH   1  18
TORSDOF 5
ENDMDL
MODEL 8
REMARK VINA RESULT:     -11.9      2.603      4.312
REMARK  Name = 17758361
REMARK  5 active torsions:
REMARK  status: ('A' for Active; 'I' for Inactive)
REMARK    1  A    between atoms: N_1  and  C_18
REMARK    2  A    between atoms: C_4  and  C_10
REMARK    3  A    between atoms: C_10  and  C_11
REMARK    4  A    between atoms: C_18  and  C_19
REMARK    5  A    between atoms: C_22  and  C_27
REMARK                            x       y       z     vdW  Elec       q    Type
REMARK                         _______ _______ _______ _____ _____    ______ ____
ROOT
ATOM      1  N   UNL     1      34.596 -20.631 -19.392  0.00  0.00    -0.314 N 
ATOM      2  N   UNL     1      36.427 -19.353 -20.138  0.00  0.00    -0.229 NA
ATOM      3  C   UNL     1      35.138 -19.730 -20.293  0.00  0.00    +0.129 C 
ATOM      4  C   UNL     1      34.841 -18.363 -22.216  0.00  0.00    +0.043 C 
ATOM      5  C   UNL     1      34.311 -19.270 -21.305  0.00  0.00    +0.037 C 
ATOM      6  C   UNL     1      36.163 -17.951 -22.089  0.00  0.00    +0.024 C 
ATOM      7  C   UNL     1      36.907 -18.471 -21.042  0.00  0.00    +0.100 C 
ATOM      8  H   UNL     1      35.173 -20.968 -18.668  0.00  0.00    +0.149 HD
ENDROOT
BRANCH   4  10
ATOM      9  O   UNL     1      33.479 -18.623 -24.100  0.00  0.00    -0.287 OA
ATOM     10  C   UNL     1      34.017 -17.846 -23.297  0.00  0.00    +0.196 C 
BRANCH  10  11
ATOM     11  C   UNL     1      33.779 -16.384 -23.495  0.00  0.00    +0.039 C 
ATOM     12  C   UNL     1      33.903 -15.506 -22.417  0.00  0.00    -0.001 C 
ATOM     13  C   UNL     1      33.683 -14.141 -22.602  0.00  0.00    -0.022 C 
ATOM     14  C   UNL     1      33.437 -15.898 -24.755  0.00  0.00    +0.003 C 
ATOM     15  C   UNL     1      33.340 -13.654 -23.863  0.00  0.00    -0.004 C 
ATOM     16  C   UNL     1      33.217 -14.532 -24.940  0.00  0.00    -0.000 C 
ATOM     17  C   UNL     1      33.817 -13.201 -21.452  0.00  0.00    +0.031 C 
ENDBRANCH  10  11
ENDBRANCH   4  10
BRANCH   1  18
ATOM     18  C   UNL     1      33.231 -21.105 -19.457  0.00  0.00    +0.115 C 
BRANCH  18  19
ATOM     19  C   UNL     1      32.839 -21.779 -18.184  0.00  0.00    -0.003 C 
ATOM     20  C   UNL     1      31.509 -21.757 -17.767  0.00  0.00    -0.003 C 
ATOM     21  C   UNL     1      33.803 -22.428 -17.412  0.00  0.00    -0.003 C 
ATOM     22  C   UNL     1      32.105 -23.035 -15.805  0.00  0.00    +0.031 C 
ATOM     23  C   UNL     1      31.142 -22.385 -16.577  0.00  0.00    +0.002 C 
ATOM     24  C   UNL     1      33.435 -23.056 -16.223  0.00  0.00    +0.002 C 
BRANCH  22  27
ATOM     25  N   UNL     1      30.397 -23.698 -14.128  0.00  0.00    -0.343 N 
ATOM     26  N   UNL     1      32.638 -24.288 -13.826  0.00  0.00    -0.285 NA
ATOM     27  C   UNL     1      31.721 -23.689 -14.565  0.00  0.00    +0.117 C 
ATOM     28  H   UNL     1      30.159 -24.148 -13.285  0.00  0.00    +0.144 HD
ATOM     29  H   UNL     1      29.699 -23.255 -14.664  0.00  0.00    +0.144 HD
ATOM     30  H   UNL     1      32.381 -24.732 -12.985  0.00  0.00    +0.188 HD
ENDBRANCH  22  27
ENDBRANCH  18  19
ENDBRANCH   1  18
TORSDOF 5
ENDMDL
MODEL 9
REMARK VINA RESULT:     -11.9      5.196     10.639
REMARK  Name = 17758361
REMARK  5 active torsions:
REMARK  status: ('A' for Active; 'I' for Inactive)
REMARK    1  A    between atoms: N_1  and  C_18
REMARK    2  A    between atoms: C_4  and  C_10
REMARK    3  A    between atoms: C_10  and  C_11
REMARK    4  A    between atoms: C_18  and  C_19
REMARK    5  A    between atoms: C_22  and  C_27
REMARK                            x       y       z     vdW  Elec       q    Type
REMARK                         _______ _______ _______ _____ _____    ______ ____
ROOT
ATOM      1  N   UNL     1      35.532 -21.958 -17.168  0.00  0.00    -0.314 N 
ATOM      2  N   UNL     1      36.826 -22.286 -15.229  0.00  0.00    -0.229 NA
ATOM      3  C   UNL     1      35.624 -22.354 -15.845  0.00  0.00    +0.129 C 
ATOM      4  C   UNL     1      34.541 -23.200 -13.905  0.00  0.00    +0.043 C 
ATOM      5  C   UNL     1      34.463 -22.799 -15.233  0.00  0.00    +0.037 C 
ATOM      6  C   UNL     1      35.760 -23.145 -13.237  0.00  0.00    +0.024 C 
ATOM      7  C   UNL     1      36.863 -22.685 -13.938  0.00  0.00    +0.100 C 
ATOM      8  H   UNL     1      36.349 -21.639 -17.616  0.00  0.00    +0.149 HD
ENDROOT
BRANCH   4  10
ATOM      9  O   UNL     1      33.455 -24.277 -12.135  0.00  0.00    -0.287 OA
ATOM     10  C   UNL     1      33.352 -23.677 -13.214  0.00  0.00    +0.196 C 
BRANCH  10  11
ATOM     11  C   UNL     1      31.975 -23.474 -13.758  0.00  0.00    +0.039 C 
ATOM     12  C   UNL     1      31.073 -24.538 -13.788  0.00  0.00    -0.001 C 
ATOM     13  C   UNL     1      29.788 -24.348 -14.294  0.00  0.00    -0.022 C 
ATOM     14  C   UNL     1      31.592 -22.221 -14.234  0.00  0.00    +0.003 C 
ATOM     15  C   UNL     1      29.404 -23.094 -14.770  0.00  0.00    -0.004 C 
ATOM     16  C   UNL     1      30.305 -22.031 -14.740  0.00  0.00    -0.000 C 
ATOM     17  C   UNL     1      28.822 -25.484 -14.324  0.00  0.00    +0.031 C 
ENDBRANCH  10  11
ENDBRANCH   4  10
BRANCH   1  18
ATOM     18  C   UNL     1      34.303 -21.988 -17.929  0.00  0.00    +0.115 C 
BRANCH  18  19
ATOM     19  C   UNL     1      34.364 -21.041 -19.081  0.00  0.00    -0.003 C 
ATOM     20  C   UNL     1      33.186 -20.592 -19.677  0.00  0.00    -0.003 C 
ATOM     21  C   UNL     1      35.599 -20.607 -19.563  0.00  0.00    -0.003 C 
ATOM     22  C   UNL     1      34.477 -19.274 -21.236  0.00  0.00    +0.031 C 
ATOM     23  C   UNL     1      33.243 -19.709 -20.754  0.00  0.00    +0.002 C 
ATOM     24  C   UNL     1      35.656 -19.724 -20.640  0.00  0.00    +0.002 C 
BRANCH  22  27
ATOM     25  N   UNL     1      35.368 -17.235 -22.339  0.00  0.00    -0.343 N 
ATOM     26  N   UNL     1      33.785 -18.568 -23.425  0.00  0.00    -0.285 NA
ATOM     27  C   UNL     1      34.535 -18.353 -22.359  0.00  0.00    +0.117 C 
ATOM     28  H   UNL     1      35.392 -16.625 -23.111  0.00  0.00    +0.144 HD
ATOM     29  H   UNL     1      35.933 -17.057 -21.552  0.00  0.00    +0.144 HD
ATOM     30  H   UNL     1      33.823 -17.946 -24.188  0.00  0.00    +0.188 HD
ENDBRANCH  22  27
ENDBRANCH  18  19
ENDBRANCH   1  18
TORSDOF 5
ENDMDL
