MODEL 1
REMARK VINA RESULT:     -12.1      0.000      0.000
REMARK  Name = 5326930
REMARK  4 active torsions:
REMARK  status: ('A' for Active; 'I' for Inactive)
REMARK    1  A    between atoms: C_7  and  C_21
REMARK    2  A    between atoms: C_21  and  C_22
REMARK    3  A    between atoms: C_22  and  C_23
REMARK    4  A    between atoms: C_28  and  O_29
REMARK                            x       y       z     vdW  Elec       q    Type
REMARK                         _______ _______ _______ _____ _____    ______ ____
ROOT
ATOM      1  O   UNL     1      34.287 -24.311 -11.708  0.00  0.00    -0.209 OA
ATOM      2  N   UNL     1      34.222 -22.505 -15.283  0.00  0.00    -0.275 N 
ATOM      3  N   UNL     1      29.461 -24.788 -13.733  0.00  0.00    -0.315 N 
ATOM      4  N   UNL     1      29.458 -23.777 -15.711  0.00  0.00    -0.316 N 
ATOM      5  N   UNL     1      35.410 -23.135 -13.320  0.00  0.00    -0.302 NA
ATOM      6  N   UNL     1      36.429 -21.930 -15.052  0.00  0.00    -0.320 N 
ATOM      7  C   UNL     1      31.873 -23.063 -15.629  0.00  0.00    +0.007 C 
ATOM      8  C   UNL     1      33.035 -23.101 -14.843  0.00  0.00    +0.060 C 
ATOM      9  C   UNL     1      30.706 -23.678 -15.142  0.00  0.00    +0.056 C 
ATOM     10  C   UNL     1      30.735 -24.305 -13.900  0.00  0.00    +0.060 C 
ATOM     11  C   UNL     1      33.025 -23.743 -13.595  0.00  0.00    +0.109 C 
ATOM     12  C   UNL     1      31.871 -24.362 -13.091  0.00  0.00    +0.029 C 
ATOM     13  C   UNL     1      34.287 -23.752 -12.801  0.00  0.00    +0.208 C 
ATOM     14  C   UNL     1      28.738 -24.448 -14.842  0.00  0.00    +0.182 C 
ATOM     15  C   UNL     1      35.346 -22.557 -14.490  0.00  0.00    +0.248 C 
ATOM     16  H   UNL     1      34.251 -22.050 -16.155  0.00  0.00    +0.156 HD
ATOM     17  H   UNL     1      29.130 -25.290 -12.955  0.00  0.00    +0.148 HD
ATOM     18  H   UNL     1      29.167 -23.421 -16.583  0.00  0.00    +0.148 HD
ATOM     19  H   UNL     1      36.348 -21.503 -15.936  0.00  0.00    +0.146 HD
ATOM     20  H   UNL     1      37.288 -21.906 -14.571  0.00  0.00    +0.146 HD
ENDROOT
BRANCH   7  21
ATOM     21  C   UNL     1      31.877 -22.381 -16.961  0.00  0.00    +0.034 C 
BRANCH  21  22
ATOM     22  C   UNL     1      33.004 -22.852 -17.899  0.00  0.00    +0.031 C 
BRANCH  22  23
ATOM     23  C   UNL     1      33.509 -21.765 -18.815  0.00  0.00    -0.022 C 
ATOM     24  C   UNL     1      34.874 -21.604 -18.991  0.00  0.00    -0.001 C 
ATOM     25  C   UNL     1      32.599 -20.944 -19.463  0.00  0.00    -0.001 C 
ATOM     26  C   UNL     1      35.342 -20.600 -19.838  0.00  0.00    +0.037 C 
ATOM     27  C   UNL     1      33.067 -19.939 -20.310  0.00  0.00    +0.037 C 
ATOM     28  C   UNL     1      34.439 -19.767 -20.497  0.00  0.00    +0.139 C 
BRANCH  28  29
ATOM     29  O   UNL     1      34.894 -18.786 -21.322  0.00  0.00    -0.471 OA
ATOM     30  C   UNL     1      36.233 -18.336 -21.120  0.00  0.00    +0.252 C 
ENDBRANCH  28  29
ENDBRANCH  22  23
ENDBRANCH  21  22
ENDBRANCH   7  21
TORSDOF 4
ENDMDL
MODEL 2
REMARK VINA RESULT:     -11.9      1.752      4.110
REMARK  Name = 5326930
REMARK  4 active torsions:
REMARK  status: ('A' for Active; 'I' for Inactive)
REMARK    1  A    between atoms: C_7  and  C_21
REMARK    2  A    between atoms: C_21  and  C_22
REMARK    3  A    between atoms: C_22  and  C_23
REMARK    4  A    between atoms: C_28  and  O_29
REMARK                            x       y       z     vdW  Elec       q    Type
REMARK                         _______ _______ _______ _____ _____    ______ ____
ROOT
ATOM      1  O   UNL     1      28.295 -25.114 -13.658  0.00  0.00    -0.209 OA
ATOM      2  N   UNL     1      29.327 -22.698 -16.681  0.00  0.00    -0.275 N 
ATOM      3  N   UNL     1      33.500 -24.405 -13.528  0.00  0.00    -0.315 N 
ATOM      4  N   UNL     1      34.040 -23.064 -15.215  0.00  0.00    -0.316 N 
ATOM      5  N   UNL     1      27.648 -23.866 -15.465  0.00  0.00    -0.302 NA
ATOM      6  N   UNL     1      27.135 -22.550 -17.335  0.00  0.00    -0.320 N 
ATOM      7  C   UNL     1      31.687 -22.786 -16.073  0.00  0.00    +0.007 C 
ATOM      8  C   UNL     1      30.353 -23.160 -15.849  0.00  0.00    +0.060 C 
ATOM      9  C   UNL     1      32.682 -23.278 -15.208  0.00  0.00    +0.056 C 
ATOM     10  C   UNL     1      32.316 -24.116 -14.159  0.00  0.00    +0.060 C 
ATOM     11  C   UNL     1      30.024 -24.007 -14.780  0.00  0.00    +0.109 C 
ATOM     12  C   UNL     1      31.001 -24.508 -13.907  0.00  0.00    +0.029 C 
ATOM     13  C   UNL     1      28.591 -24.372 -14.590  0.00  0.00    +0.208 C 
ATOM     14  C   UNL     1      34.499 -23.753 -14.195  0.00  0.00    +0.182 C 
ATOM     15  C   UNL     1      28.028 -23.080 -16.438  0.00  0.00    +0.248 C 
ATOM     16  H   UNL     1      29.535 -22.102 -17.437  0.00  0.00    +0.156 HD
ATOM     17  H   UNL     1      33.609 -24.978 -12.735  0.00  0.00    +0.148 HD
ATOM     18  H   UNL     1      34.557 -22.513 -15.847  0.00  0.00    +0.148 HD
ATOM     19  H   UNL     1      27.453 -21.962 -18.058  0.00  0.00    +0.146 HD
ATOM     20  H   UNL     1      26.176 -22.759 -17.256  0.00  0.00    +0.146 HD
ENDROOT
BRANCH   7  21
ATOM     21  C   UNL     1      32.044 -21.883 -17.211  0.00  0.00    +0.034 C 
BRANCH  21  22
ATOM     22  C   UNL     1      33.074 -22.484 -18.185  0.00  0.00    +0.031 C 
BRANCH  22  23
ATOM     23  C   UNL     1      33.758 -21.448 -19.043  0.00  0.00    -0.022 C 
ATOM     24  C   UNL     1      35.142 -21.377 -19.050  0.00  0.00    -0.001 C 
ATOM     25  C   UNL     1      32.990 -20.584 -19.807  0.00  0.00    -0.001 C 
ATOM     26  C   UNL     1      35.775 -20.420 -19.842  0.00  0.00    +0.037 C 
ATOM     27  C   UNL     1      33.622 -19.626 -20.601  0.00  0.00    +0.037 C 
ATOM     28  C   UNL     1      35.015 -19.544 -20.618  0.00  0.00    +0.139 C 
BRANCH  28  29
ATOM     29  O   UNL     1      35.631 -18.609 -21.390  0.00  0.00    -0.471 OA
ATOM     30  C   UNL     1      35.074 -17.296 -21.392  0.00  0.00    +0.252 C 
ENDBRANCH  28  29
ENDBRANCH  22  23
ENDBRANCH  21  22
ENDBRANCH   7  21
TORSDOF 4
ENDMDL
MODEL 3
REMARK VINA RESULT:     -11.9      1.897      2.579
REMARK  Name = 5326930
REMARK  4 active torsions:
REMARK  status: ('A' for Active; 'I' for Inactive)
REMARK    1  A    between atoms: C_7  and  C_21
REMARK    2  A    between atoms: C_21  and  C_22
REMARK    3  A    between atoms: C_22  and  C_23
REMARK    4  A    between atoms: C_28  and  O_29
REMARK                            x       y       z     vdW  Elec       q    Type
REMARK                         _______ _______ _______ _____ _____    ______ ____
ROOT
ATOM      1  O   UNL     1      36.459 -25.753 -11.554  0.00  0.00    -0.209 OA
ATOM      2  N   UNL     1      37.136 -23.872 -15.024  0.00  0.00    -0.275 N 
ATOM      3  N   UNL     1      32.092 -23.177 -12.938  0.00  0.00    -0.315 N 
ATOM      4  N   UNL     1      32.500 -22.145 -14.862  0.00  0.00    -0.316 N 
ATOM      5  N   UNL     1      37.908 -25.268 -13.259  0.00  0.00    -0.302 NA
ATOM      6  N   UNL     1      39.278 -24.687 -15.069  0.00  0.00    -0.320 N 
ATOM      7  C   UNL     1      34.878 -22.951 -15.076  0.00  0.00    +0.007 C 
ATOM      8  C   UNL     1      35.867 -23.727 -14.452  0.00  0.00    +0.060 C 
ATOM      9  C   UNL     1      33.619 -22.836 -14.459  0.00  0.00    +0.056 C 
ATOM     10  C   UNL     1      33.390 -23.493 -13.254  0.00  0.00    +0.060 C 
ATOM     11  C   UNL     1      35.598 -24.374 -13.236  0.00  0.00    +0.109 C 
ATOM     12  C   UNL     1      34.349 -24.272 -12.606  0.00  0.00    +0.029 C 
ATOM     13  C   UNL     1      36.686 -25.184 -12.617  0.00  0.00    +0.208 C 
ATOM     14  C   UNL     1      31.605 -22.372 -13.928  0.00  0.00    +0.182 C 
ATOM     15  C   UNL     1      38.086 -24.638 -14.390  0.00  0.00    +0.248 C 
ATOM     16  H   UNL     1      37.346 -23.427 -15.877  0.00  0.00    +0.156 HD
ATOM     17  H   UNL     1      31.602 -23.479 -12.140  0.00  0.00    +0.148 HD
ATOM     18  H   UNL     1      32.393 -21.599 -15.675  0.00  0.00    +0.148 HD
ATOM     19  H   UNL     1      39.381 -24.201 -15.919  0.00  0.00    +0.146 HD
ATOM     20  H   UNL     1      40.031 -25.208 -14.705  0.00  0.00    +0.146 HD
ENDROOT
BRANCH   7  21
ATOM     21  C   UNL     1      35.159 -22.258 -16.372  0.00  0.00    +0.034 C 
BRANCH  21  22
ATOM     22  C   UNL     1      34.101 -22.518 -17.460  0.00  0.00    +0.031 C 
BRANCH  22  23
ATOM     23  C   UNL     1      34.158 -21.527 -18.596  0.00  0.00    -0.022 C 
ATOM     24  C   UNL     1      35.390 -21.104 -19.068  0.00  0.00    -0.001 C 
ATOM     25  C   UNL     1      32.977 -21.056 -19.146  0.00  0.00    -0.001 C 
ATOM     26  C   UNL     1      35.444 -20.188 -20.118  0.00  0.00    +0.037 C 
ATOM     27  C   UNL     1      33.029 -20.139 -20.197  0.00  0.00    +0.037 C 
ATOM     28  C   UNL     1      34.263 -19.705 -20.682  0.00  0.00    +0.139 C 
BRANCH  28  29
ATOM     29  O   UNL     1      34.314 -18.810 -21.706  0.00  0.00    -0.471 OA
ATOM     30  C   UNL     1      34.854 -17.521 -21.417  0.00  0.00    +0.252 C 
ENDBRANCH  28  29
ENDBRANCH  22  23
ENDBRANCH  21  22
ENDBRANCH   7  21
TORSDOF 4
ENDMDL
MODEL 4
REMARK VINA RESULT:     -11.8      1.563      4.154
REMARK  Name = 5326930
REMARK  4 active torsions:
REMARK  status: ('A' for Active; 'I' for Inactive)
REMARK    1  A    between atoms: C_7  and  C_21
REMARK    2  A    between atoms: C_21  and  C_22
REMARK    3  A    between atoms: C_22  and  C_23
REMARK    4  A    between atoms: C_28  and  O_29
REMARK                            x       y       z     vdW  Elec       q    Type
REMARK                         _______ _______ _______ _____ _____    ______ ____
ROOT
ATOM      1  O   UNL     1      29.701 -24.422 -13.216  0.00  0.00    -0.209 OA
ATOM      2  N   UNL     1      29.906 -22.546 -16.750  0.00  0.00    -0.275 N 
ATOM      3  N   UNL     1      34.754 -23.508 -14.333  0.00  0.00    -0.315 N 
ATOM      4  N   UNL     1      34.834 -22.470 -16.295  0.00  0.00    -0.316 N 
ATOM      5  N   UNL     1      28.604 -23.540 -15.023  0.00  0.00    -0.302 NA
ATOM      6  N   UNL     1      27.621 -22.599 -16.930  0.00  0.00    -0.320 N 
ATOM      7  C   UNL     1      32.340 -22.437 -16.659  0.00  0.00    +0.007 C 
ATOM      8  C   UNL     1      31.112 -22.814 -16.094  0.00  0.00    +0.060 C 
ATOM      9  C   UNL     1      33.525 -22.730 -15.960  0.00  0.00    +0.056 C 
ATOM     10  C   UNL     1      33.447 -23.381 -14.733  0.00  0.00    +0.060 C 
ATOM     11  C   UNL     1      31.075 -23.469 -14.854  0.00  0.00    +0.109 C 
ATOM     12  C   UNL     1      32.245 -23.770 -14.141  0.00  0.00    +0.029 C 
ATOM     13  C   UNL     1      29.742 -23.847 -14.301  0.00  0.00    +0.208 C 
ATOM     14  C   UNL     1      35.543 -22.949 -15.299  0.00  0.00    +0.182 C 
ATOM     15  C   UNL     1      28.716 -22.927 -16.172  0.00  0.00    +0.248 C 
ATOM     16  H   UNL     1      29.908 -22.087 -17.620  0.00  0.00    +0.156 HD
ATOM     17  H   UNL     1      35.066 -23.927 -13.499  0.00  0.00    +0.148 HD
ATOM     18  H   UNL     1      35.167 -22.022 -17.107  0.00  0.00    +0.148 HD
ATOM     19  H   UNL     1      27.738 -22.137 -17.792  0.00  0.00    +0.146 HD
ATOM     20  H   UNL     1      26.716 -22.825 -16.612  0.00  0.00    +0.146 HD
ENDROOT
BRANCH   7  21
ATOM     21  C   UNL     1      32.387 -21.738 -17.981  0.00  0.00    +0.034 C 
BRANCH  21  22
ATOM     22  C   UNL     1      33.585 -22.143 -18.859  0.00  0.00    +0.031 C 
BRANCH  22  23
ATOM     23  C   UNL     1      34.203 -20.981 -19.598  0.00  0.00    -0.022 C 
ATOM     24  C   UNL     1      33.394 -20.149 -20.354  0.00  0.00    -0.001 C 
ATOM     25  C   UNL     1      35.569 -20.769 -19.508  0.00  0.00    -0.001 C 
ATOM     26  C   UNL     1      33.964 -19.075 -21.037  0.00  0.00    +0.037 C 
ATOM     27  C   UNL     1      36.141 -19.694 -20.191  0.00  0.00    +0.037 C 
ATOM     28  C   UNL     1      35.338 -18.848 -20.955  0.00  0.00    +0.139 C 
BRANCH  28  29
ATOM     29  O   UNL     1      35.895 -17.801 -21.622  0.00  0.00    -0.471 OA
ATOM     30  C   UNL     1      35.005 -16.832 -22.173  0.00  0.00    +0.252 C 
ENDBRANCH  28  29
ENDBRANCH  22  23
ENDBRANCH  21  22
ENDBRANCH   7  21
TORSDOF 4
ENDMDL
MODEL 5
REMARK VINA RESULT:     -11.6      3.195      7.528
REMARK  Name = 5326930
REMARK  4 active torsions:
REMARK  status: ('A' for Active; 'I' for Inactive)
REMARK    1  A    between atoms: C_7  and  C_21
REMARK    2  A    between atoms: C_21  and  C_22
REMARK    3  A    between atoms: C_22  and  C_23
REMARK    4  A    between atoms: C_28  and  O_29
REMARK                            x       y       z     vdW  Elec       q    Type
REMARK                         _______ _______ _______ _____ _____    ______ ____
ROOT
ATOM      1  O   UNL     1      32.996 -18.796 -22.337  0.00  0.00    -0.209 OA
ATOM      2  N   UNL     1      36.371 -19.533 -20.308  0.00  0.00    -0.275 N 
ATOM      3  N   UNL     1      31.883 -22.061 -18.372  0.00  0.00    -0.315 N 
ATOM      4  N   UNL     1      33.772 -22.450 -17.269  0.00  0.00    -0.316 N 
ATOM      5  N   UNL     1      35.247 -18.443 -22.100  0.00  0.00    -0.302 NA
ATOM      6  N   UNL     1      37.545 -18.176 -21.734  0.00  0.00    -0.320 N 
ATOM      7  C   UNL     1      35.218 -20.997 -18.735  0.00  0.00    +0.007 C 
ATOM      8  C   UNL     1      35.201 -20.152 -19.855  0.00  0.00    +0.060 C 
ATOM      9  C   UNL     1      34.015 -21.596 -18.320  0.00  0.00    +0.056 C 
ATOM     10  C   UNL     1      32.846 -21.335 -19.028  0.00  0.00    +0.060 C 
ATOM     11  C   UNL     1      34.001 -19.914 -20.544  0.00  0.00    +0.109 C 
ATOM     12  C   UNL     1      32.791 -20.502 -20.146  0.00  0.00    +0.029 C 
ATOM     13  C   UNL     1      34.041 -19.009 -21.728  0.00  0.00    +0.208 C 
ATOM     14  C   UNL     1      32.485 -22.708 -17.330  0.00  0.00    +0.182 C 
ATOM     15  C   UNL     1      36.324 -18.710 -21.410  0.00  0.00    +0.248 C 
ATOM     16  H   UNL     1      37.223 -19.685 -19.840  0.00  0.00    +0.156 HD
ATOM     17  H   UNL     1      30.930 -22.105 -18.611  0.00  0.00    +0.148 HD
ATOM     18  H   UNL     1      34.422 -22.794 -16.614  0.00  0.00    +0.148 HD
ATOM     19  H   UNL     1      38.339 -18.397 -21.195  0.00  0.00    +0.146 HD
ATOM     20  H   UNL     1      37.629 -17.571 -22.507  0.00  0.00    +0.146 HD
ENDROOT
BRANCH   7  21
ATOM     21  C   UNL     1      36.493 -21.255 -17.996  0.00  0.00    +0.034 C 
BRANCH  21  22
ATOM     22  C   UNL     1      36.434 -20.887 -16.502  0.00  0.00    +0.031 C 
BRANCH  22  23
ATOM     23  C   UNL     1      36.789 -22.036 -15.591  0.00  0.00    -0.022 C 
ATOM     24  C   UNL     1      35.907 -22.407 -14.589  0.00  0.00    -0.001 C 
ATOM     25  C   UNL     1      37.993 -22.699 -15.771  0.00  0.00    -0.001 C 
ATOM     26  C   UNL     1      36.234 -23.469 -13.746  0.00  0.00    +0.037 C 
ATOM     27  C   UNL     1      38.321 -23.761 -14.928  0.00  0.00    +0.037 C 
ATOM     28  C   UNL     1      37.442 -24.146 -13.916  0.00  0.00    +0.139 C 
BRANCH  28  29
ATOM     29  O   UNL     1      37.763 -25.181 -13.093  0.00  0.00    -0.471 OA
ATOM     30  C   UNL     1      36.877 -25.449 -12.008  0.00  0.00    +0.252 C 
ENDBRANCH  28  29
ENDBRANCH  22  23
ENDBRANCH  21  22
ENDBRANCH   7  21
TORSDOF 4
ENDMDL
MODEL 6
REMARK VINA RESULT:     -11.4      1.479      3.835
REMARK  Name = 5326930
REMARK  4 active torsions:
REMARK  status: ('A' for Active; 'I' for Inactive)
REMARK    1  A    between atoms: C_7  and  C_21
REMARK    2  A    between atoms: C_21  and  C_22
REMARK    3  A    between atoms: C_22  and  C_23
REMARK    4  A    between atoms: C_28  and  O_29
REMARK                            x       y       z     vdW  Elec       q    Type
REMARK                         _______ _______ _______ _____ _____    ______ ____
ROOT
ATOM      1  O   UNL     1      30.232 -23.622 -12.394  0.00  0.00    -0.209 OA
ATOM      2  N   UNL     1      30.789 -22.719 -16.257  0.00  0.00    -0.275 N 
ATOM      3  N   UNL     1      35.373 -23.895 -13.451  0.00  0.00    -0.315 N 
ATOM      4  N   UNL     1      35.648 -23.391 -15.597  0.00  0.00    -0.316 N 
ATOM      5  N   UNL     1      29.321 -23.027 -14.409  0.00  0.00    -0.302 NA
ATOM      6  N   UNL     1      28.532 -22.418 -16.530  0.00  0.00    -0.320 N 
ATOM      7  C   UNL     1      33.203 -23.015 -16.078  0.00  0.00    +0.007 C 
ATOM      8  C   UNL     1      31.924 -23.026 -15.499  0.00  0.00    +0.060 C 
ATOM      9  C   UNL     1      34.312 -23.331 -15.273  0.00  0.00    +0.056 C 
ATOM     10  C   UNL     1      34.112 -23.643 -13.932  0.00  0.00    +0.060 C 
ATOM     11  C   UNL     1      31.763 -23.346 -14.142  0.00  0.00    +0.109 C 
ATOM     12  C   UNL     1      32.857 -23.664 -13.323  0.00  0.00    +0.029 C 
ATOM     13  C   UNL     1      30.382 -23.343 -13.580  0.00  0.00    +0.208 C 
ATOM     14  C   UNL     1      36.254 -23.731 -14.482  0.00  0.00    +0.182 C 
ATOM     15  C   UNL     1      29.547 -22.738 -15.663  0.00  0.00    +0.248 C 
ATOM     16  H   UNL     1      30.878 -22.491 -17.210  0.00  0.00    +0.156 HD
ATOM     17  H   UNL     1      35.600 -24.147 -12.527  0.00  0.00    +0.148 HD
ATOM     18  H   UNL     1      36.060 -23.216 -16.474  0.00  0.00    +0.148 HD
ATOM     19  H   UNL     1      28.735 -22.205 -17.469  0.00  0.00    +0.146 HD
ATOM     20  H   UNL     1      27.601 -22.400 -16.211  0.00  0.00    +0.146 HD
ENDROOT
BRANCH   7  21
ATOM     21  C   UNL     1      33.381 -22.675 -17.524  0.00  0.00    +0.034 C 
BRANCH  21  22
ATOM     22  C   UNL     1      34.643 -21.842 -17.817  0.00  0.00    +0.031 C 
BRANCH  22  23
ATOM     23  C   UNL     1      34.507 -20.963 -19.036  0.00  0.00    -0.022 C 
ATOM     24  C   UNL     1      35.643 -20.421 -19.613  0.00  0.00    -0.001 C 
ATOM     25  C   UNL     1      33.247 -20.713 -19.555  0.00  0.00    -0.001 C 
ATOM     26  C   UNL     1      35.519 -19.609 -20.740  0.00  0.00    +0.037 C 
ATOM     27  C   UNL     1      33.121 -19.900 -20.683  0.00  0.00    +0.037 C 
ATOM     28  C   UNL     1      34.257 -19.348 -21.274  0.00  0.00    +0.139 C 
BRANCH  28  29
ATOM     29  O   UNL     1      34.134 -18.554 -22.373  0.00  0.00    -0.471 OA
ATOM     30  C   UNL     1      34.937 -17.376 -22.417  0.00  0.00    +0.252 C 
ENDBRANCH  28  29
ENDBRANCH  22  23
ENDBRANCH  21  22
ENDBRANCH   7  21
TORSDOF 4
ENDMDL
MODEL 7
REMARK VINA RESULT:     -11.2      1.519      4.250
REMARK  Name = 5326930
REMARK  4 active torsions:
REMARK  status: ('A' for Active; 'I' for Inactive)
REMARK    1  A    between atoms: C_7  and  C_21
REMARK    2  A    between atoms: C_21  and  C_22
REMARK    3  A    between atoms: C_22  and  C_23
REMARK    4  A    between atoms: C_28  and  O_29
REMARK                            x       y       z     vdW  Elec       q    Type
REMARK                         _______ _______ _______ _____ _____    ______ ____
ROOT
ATOM      1  O   UNL     1      31.440 -23.621 -12.821  0.00  0.00    -0.209 OA
ATOM      2  N   UNL     1      31.323 -22.472 -16.657  0.00  0.00    -0.275 N 
ATOM      3  N   UNL     1      36.364 -22.839 -14.482  0.00  0.00    -0.315 N 
ATOM      4  N   UNL     1      36.265 -22.206 -16.609  0.00  0.00    -0.316 N 
ATOM      5  N   UNL     1      30.186 -23.134 -14.674  0.00  0.00    -0.302 NA
ATOM      6  N   UNL     1      29.035 -22.607 -16.646  0.00  0.00    -0.320 N 
ATOM      7  C   UNL     1      33.753 -22.297 -16.778  0.00  0.00    +0.007 C 
ATOM      8  C   UNL     1      32.583 -22.581 -16.057  0.00  0.00    +0.060 C 
ATOM      9  C   UNL     1      34.995 -22.422 -16.130  0.00  0.00    +0.056 C 
ATOM     10  C   UNL     1      35.028 -22.820 -14.797  0.00  0.00    +0.060 C 
ATOM     11  C   UNL     1      32.658 -22.980 -14.714  0.00  0.00    +0.109 C 
ATOM     12  C   UNL     1      33.887 -23.110 -14.049  0.00  0.00    +0.029 C 
ATOM     13  C   UNL     1      31.383 -23.270 -13.996  0.00  0.00    +0.208 C 
ATOM     14  C   UNL     1      37.061 -22.464 -15.596  0.00  0.00    +0.182 C 
ATOM     15  C   UNL     1      30.193 -22.757 -15.925  0.00  0.00    +0.248 C 
ATOM     16  H   UNL     1      31.247 -22.193 -17.598  0.00  0.00    +0.156 HD
ATOM     17  H   UNL     1      36.750 -23.080 -13.609  0.00  0.00    +0.148 HD
ATOM     18  H   UNL     1      36.523 -21.919 -17.516  0.00  0.00    +0.148 HD
ATOM     19  H   UNL     1      29.074 -22.321 -17.587  0.00  0.00    +0.146 HD
ATOM     20  H   UNL     1      28.164 -22.785 -16.221  0.00  0.00    +0.146 HD
ENDROOT
BRANCH   7  21
ATOM     21  C   UNL     1      33.680 -21.870 -18.210  0.00  0.00    +0.034 C 
BRANCH  21  22
ATOM     22  C   UNL     1      35.053 -21.603 -18.853  0.00  0.00    +0.031 C 
BRANCH  22  23
ATOM     23  C   UNL     1      35.046 -20.439 -19.813  0.00  0.00    -0.022 C 
ATOM     24  C   UNL     1      33.875 -20.114 -20.477  0.00  0.00    -0.001 C 
ATOM     25  C   UNL     1      36.212 -19.718 -20.014  0.00  0.00    -0.001 C 
ATOM     26  C   UNL     1      33.867 -19.038 -21.365  0.00  0.00    +0.037 C 
ATOM     27  C   UNL     1      36.205 -18.641 -20.903  0.00  0.00    +0.037 C 
ATOM     28  C   UNL     1      35.033 -18.302 -21.578  0.00  0.00    +0.139 C 
BRANCH  28  29
ATOM     29  O   UNL     1      35.027 -17.253 -22.444  0.00  0.00    -0.471 OA
ATOM     30  C   UNL     1      34.542 -16.005 -21.952  0.00  0.00    +0.252 C 
ENDBRANCH  28  29
ENDBRANCH  22  23
ENDBRANCH  21  22
ENDBRANCH   7  21
TORSDOF 4
ENDMDL
MODEL 8
REMARK VINA RESULT:     -10.8      3.093      6.234
REMARK  Name = 5326930
REMARK  4 active torsions:
REMARK  status: ('A' for Active; 'I' for Inactive)
REMARK    1  A    between atoms: C_7  and  C_21
REMARK    2  A    between atoms: C_21  and  C_22
REMARK    3  A    between atoms: C_22  and  C_23
REMARK    4  A    between atoms: C_28  and  O_29
REMARK                            x       y       z     vdW  Elec       q    Type
REMARK                         _______ _______ _______ _____ _____    ______ ____
ROOT
ATOM      1  O   UNL     1      36.977 -21.371 -16.777  0.00  0.00    -0.209 OA
ATOM      2  N   UNL     1      33.408 -23.066 -16.119  0.00  0.00    -0.275 N 
ATOM      3  N   UNL     1      36.847 -23.125 -11.825  0.00  0.00    -0.315 N 
ATOM      4  N   UNL     1      34.858 -24.057 -11.492  0.00  0.00    -0.316 N 
ATOM      5  N   UNL     1      34.911 -21.944 -17.582  0.00  0.00    -0.302 NA
ATOM      6  N   UNL     1      32.766 -22.591 -18.268  0.00  0.00    -0.320 N 
ATOM      7  C   UNL     1      33.987 -23.618 -13.815  0.00  0.00    +0.007 C 
ATOM      8  C   UNL     1      34.319 -23.056 -15.058  0.00  0.00    +0.060 C 
ATOM      9  C   UNL     1      34.939 -23.582 -12.780  0.00  0.00    +0.056 C 
ATOM     10  C   UNL     1      36.177 -22.993 -13.015  0.00  0.00    +0.060 C 
ATOM     11  C   UNL     1      35.579 -22.470 -15.256  0.00  0.00    +0.109 C 
ATOM     12  C   UNL     1      36.541 -22.424 -14.236  0.00  0.00    +0.029 C 
ATOM     13  C   UNL     1      35.877 -21.886 -16.595  0.00  0.00    +0.208 C 
ATOM     14  C   UNL     1      36.018 -23.767 -10.948  0.00  0.00    +0.182 C 
ATOM     15  C   UNL     1      33.760 -22.506 -17.326  0.00  0.00    +0.248 C 
ATOM     16  H   UNL     1      32.518 -23.472 -16.002  0.00  0.00    +0.156 HD
ATOM     17  H   UNL     1      37.762 -22.814 -11.638  0.00  0.00    +0.148 HD
ATOM     18  H   UNL     1      34.096 -24.515 -11.068  0.00  0.00    +0.148 HD
ATOM     19  H   UNL     1      31.909 -23.020 -18.043  0.00  0.00    +0.146 HD
ATOM     20  H   UNL     1      32.910 -22.222 -19.170  0.00  0.00    +0.146 HD
ENDROOT
BRANCH   7  21
ATOM     21  C   UNL     1      32.646 -24.245 -13.597  0.00  0.00    +0.034 C 
BRANCH  21  22
ATOM     22  C   UNL     1      31.526 -23.232 -13.295  0.00  0.00    +0.031 C 
BRANCH  22  23
ATOM     23  C   UNL     1      30.376 -23.307 -14.269  0.00  0.00    -0.022 C 
ATOM     24  C   UNL     1      29.554 -24.422 -14.265  0.00  0.00    -0.001 C 
ATOM     25  C   UNL     1      30.165 -22.260 -15.151  0.00  0.00    -0.001 C 
ATOM     26  C   UNL     1      28.491 -24.492 -15.165  0.00  0.00    +0.037 C 
ATOM     27  C   UNL     1      29.101 -22.329 -16.052  0.00  0.00    +0.037 C 
ATOM     28  C   UNL     1      28.265 -23.445 -16.059  0.00  0.00    +0.139 C 
BRANCH  28  29
ATOM     29  O   UNL     1      27.229 -23.512 -16.938  0.00  0.00    -0.471 OA
ATOM     30  C   UNL     1      26.643 -22.278 -17.350  0.00  0.00    +0.252 C 
ENDBRANCH  28  29
ENDBRANCH  22  23
ENDBRANCH  21  22
ENDBRANCH   7  21
TORSDOF 4
ENDMDL
MODEL 9
REMARK VINA RESULT:     -10.5      3.074      6.713
REMARK  Name = 5326930
REMARK  4 active torsions:
REMARK  status: ('A' for Active; 'I' for Inactive)
REMARK    1  A    between atoms: C_7  and  C_21
REMARK    2  A    between atoms: C_21  and  C_22
REMARK    3  A    between atoms: C_22  and  C_23
REMARK    4  A    between atoms: C_28  and  O_29
REMARK                            x       y       z     vdW  Elec       q    Type
REMARK                         _______ _______ _______ _____ _____    ______ ____
ROOT
ATOM      1  O   UNL     1      36.361 -20.165 -19.432  0.00  0.00    -0.209 OA
ATOM      2  N   UNL     1      32.920 -21.852 -18.265  0.00  0.00    -0.275 N 
ATOM      3  N   UNL     1      37.198 -22.717 -14.914  0.00  0.00    -0.315 N 
ATOM      4  N   UNL     1      35.274 -23.639 -14.295  0.00  0.00    -0.316 N 
ATOM      5  N   UNL     1      34.138 -20.542 -19.834  0.00  0.00    -0.302 NA
ATOM      6  N   UNL     1      31.859 -21.009 -20.114  0.00  0.00    -0.320 N 
ATOM      7  C   UNL     1      33.950 -22.796 -16.266  0.00  0.00    +0.007 C 
ATOM      8  C   UNL     1      34.039 -22.043 -17.447  0.00  0.00    +0.060 C 
ATOM      9  C   UNL     1      35.103 -22.958 -15.477  0.00  0.00    +0.056 C 
ATOM     10  C   UNL     1      36.295 -22.370 -15.889  0.00  0.00    +0.060 C 
ATOM     11  C   UNL     1      35.260 -21.465 -17.828  0.00  0.00    +0.109 C 
ATOM     12  C   UNL     1      36.421 -21.615 -17.055  0.00  0.00    +0.029 C 
ATOM     13  C   UNL     1      35.297 -20.674 -19.091  0.00  0.00    +0.208 C 
ATOM     14  C   UNL     1      36.540 -23.474 -13.986  0.00  0.00    +0.182 C 
ATOM     15  C   UNL     1      33.037 -21.109 -19.417  0.00  0.00    +0.248 C 
ATOM     16  H   UNL     1      32.054 -22.249 -18.017  0.00  0.00    +0.156 HD
ATOM     17  H   UNL     1      38.149 -22.465 -14.890  0.00  0.00    +0.148 HD
ATOM     18  H   UNL     1      34.594 -24.141 -13.788  0.00  0.00    +0.148 HD
ATOM     19  H   UNL     1      31.046 -21.447 -19.773  0.00  0.00    +0.146 HD
ATOM     20  H   UNL     1      31.827 -20.498 -20.956  0.00  0.00    +0.146 HD
ENDROOT
BRANCH   7  21
ATOM     21  C   UNL     1      32.651 -23.415 -15.854  0.00  0.00    +0.034 C 
BRANCH  21  22
ATOM     22  C   UNL     1      31.874 -22.596 -14.807  0.00  0.00    +0.031 C 
BRANCH  22  23
ATOM     23  C   UNL     1      30.404 -22.465 -15.123  0.00  0.00    -0.022 C 
ATOM     24  C   UNL     1      29.951 -22.790 -16.392  0.00  0.00    -0.001 C 
ATOM     25  C   UNL     1      29.535 -22.021 -14.140  0.00  0.00    -0.001 C 
ATOM     26  C   UNL     1      28.593 -22.669 -16.685  0.00  0.00    +0.037 C 
ATOM     27  C   UNL     1      28.176 -21.900 -14.433  0.00  0.00    +0.037 C 
ATOM     28  C   UNL     1      27.705 -22.224 -15.705  0.00  0.00    +0.139 C 
BRANCH  28  29
ATOM     29  O   UNL     1      26.380 -22.105 -15.991  0.00  0.00    -0.471 OA
ATOM     30  C   UNL     1      26.030 -21.367 -17.160  0.00  0.00    +0.252 C 
ENDBRANCH  28  29
ENDBRANCH  22  23
ENDBRANCH  21  22
ENDBRANCH   7  21
TORSDOF 4
ENDMDL
