MODEL 1
REMARK VINA RESULT:     -11.6      0.000      0.000
REMARK  Name = 53340666
REMARK  11 active torsions:
REMARK  status: ('A' for Active; 'I' for Inactive)
REMARK    1  A    between atoms: N_1  and  C_8
REMARK    2  A    between atoms: N_1  and  C_14
REMARK    3  A    between atoms: C_4  and  C_22
REMARK    4  A    between atoms: N_21  and  C_24
REMARK    5  A    between atoms: C_24  and  C_25
REMARK    6  A    between atoms: C_25  and  C_26
REMARK    7  A    between atoms: C_26  and  C_27
REMARK    8  A    between atoms: C_27  and  C_28
REMARK    9  A    between atoms: C_28  and  C_29
REMARK   10  A    between atoms: C_29  and  C_32
REMARK   11  A    between atoms: N_31  and  O_34
REMARK                            x       y       z     vdW  Elec       q    Type
REMARK                         _______ _______ _______ _____ _____    ______ ____
ROOT
ATOM      1  N   UNL     1      34.044 -23.503 -14.846  0.00  0.00    -0.211 N 
ATOM      2  N   UNL     1      35.576 -22.309 -16.164  0.00  0.00    -0.202 NA
ATOM      3  N   UNL     1      33.365 -22.810 -16.982  0.00  0.00    -0.180 NA
ATOM      4  C   UNL     1      34.910 -21.584 -18.361  0.00  0.00    +0.076 C 
ATOM      5  C   UNL     1      34.343 -22.842 -16.057  0.00  0.00    +0.098 C 
ATOM      6  C   UNL     1      35.826 -21.685 -17.334  0.00  0.00    +0.170 C 
ATOM      7  C   UNL     1      33.684 -22.171 -18.126  0.00  0.00    +0.113 C 
ENDROOT
BRANCH   1   8
ATOM      8  C   UNL     1      35.091 -24.170 -14.070  0.00  0.00    +0.065 C 
ATOM      9  C   UNL     1      35.709 -25.315 -14.574  0.00  0.00    +0.016 C 
ATOM     10  C   UNL     1      35.468 -23.663 -12.828  0.00  0.00    +0.016 C 
ATOM     11  C   UNL     1      36.706 -25.951 -13.834  0.00  0.00    +0.001 C 
ATOM     12  C   UNL     1      36.465 -24.298 -12.088  0.00  0.00    +0.001 C 
ATOM     13  C   UNL     1      37.084 -25.443 -12.591  0.00  0.00    +0.000 C 
ENDBRANCH   1   8
BRANCH   1  14
ATOM     14  C   UNL     1      32.678 -23.545 -14.323  0.00  0.00    +0.065 C 
ATOM     15  C   UNL     1      31.836 -22.445 -14.485  0.00  0.00    +0.016 C 
ATOM     16  C   UNL     1      32.219 -24.685 -13.664  0.00  0.00    +0.016 C 
ATOM     17  C   UNL     1      30.534 -22.485 -13.986  0.00  0.00    +0.001 C 
ATOM     18  C   UNL     1      30.916 -24.724 -13.165  0.00  0.00    +0.001 C 
ATOM     19  C   UNL     1      30.074 -23.625 -13.327  0.00  0.00    +0.000 C 
ENDBRANCH   1  14
BRANCH   4  22
ATOM     20  O   UNL     1      36.243 -21.191 -20.249  0.00  0.00    -0.270 OA
ATOM     21  N   UNL     1      34.301 -19.938 -20.056  0.00  0.00    -0.301 N 
ATOM     22  C   UNL     1      35.224 -20.889 -19.635  0.00  0.00    +0.245 C 
ATOM     23  H   UNL     1      33.512 -19.764 -19.494  0.00  0.00    +0.150 HD
BRANCH  21  24
ATOM     24  C   UNL     1      34.452 -19.199 -21.281  0.00  0.00    +0.090 C 
BRANCH  24  25
ATOM     25  C   UNL     1      35.543 -18.140 -21.164  0.00  0.00    +0.021 C 
BRANCH  25  26
ATOM     26  C   UNL     1      35.226 -16.917 -22.023  0.00  0.00    +0.002 C 
BRANCH  26  27
ATOM     27  C   UNL     1      34.355 -15.914 -21.264  0.00  0.00    +0.001 C 
BRANCH  27  28
ATOM     28  C   UNL     1      33.877 -14.787 -22.185  0.00  0.00    +0.010 C 
BRANCH  28  29
ATOM     29  C   UNL     1      34.441 -14.913 -23.600  0.00  0.00    +0.087 C 
BRANCH  29  32
ATOM     30  O   UNL     1      33.091 -15.841 -25.383  0.00  0.00    -0.273 OA
ATOM     31  N   UNL     1      32.826 -13.620 -24.806  0.00  0.00    -0.197 N 
ATOM     32  C   UNL     1      33.381 -14.871 -24.687  0.00  0.00    +0.244 C 
ATOM     33  H   UNL     1      33.092 -12.872 -24.224  0.00  0.00    +0.182 HD
BRANCH  31  34
ATOM     34  O   UNL     1      31.858 -13.476 -25.809  0.00  0.00    -0.295 OA
ATOM     35  H   UNL     1      32.296 -13.376 -26.669  0.00  0.00    +0.241 HD
ENDBRANCH  31  34
ENDBRANCH  29  32
ENDBRANCH  28  29
ENDBRANCH  27  28
ENDBRANCH  26  27
ENDBRANCH  25  26
ENDBRANCH  24  25
ENDBRANCH  21  24
ENDBRANCH   4  22
TORSDOF 11
ENDMDL
MODEL 2
REMARK VINA RESULT:     -11.5      1.688      2.005
REMARK  Name = 53340666
REMARK  11 active torsions:
REMARK  status: ('A' for Active; 'I' for Inactive)
REMARK    1  A    between atoms: N_1  and  C_8
REMARK    2  A    between atoms: N_1  and  C_14
REMARK    3  A    between atoms: C_4  and  C_22
REMARK    4  A    between atoms: N_21  and  C_24
REMARK    5  A    between atoms: C_24  and  C_25
REMARK    6  A    between atoms: C_25  and  C_26
REMARK    7  A    between atoms: C_26  and  C_27
REMARK    8  A    between atoms: C_27  and  C_28
REMARK    9  A    between atoms: C_28  and  C_29
REMARK   10  A    between atoms: C_29  and  C_32
REMARK   11  A    between atoms: N_31  and  O_34
REMARK                            x       y       z     vdW  Elec       q    Type
REMARK                         _______ _______ _______ _____ _____    ______ ____
ROOT
ATOM      1  N   UNL     1      34.280 -23.324 -15.181  0.00  0.00    -0.211 N 
ATOM      2  N   UNL     1      35.719 -22.056 -16.533  0.00  0.00    -0.202 NA
ATOM      3  N   UNL     1      33.466 -22.543 -17.238  0.00  0.00    -0.180 NA
ATOM      4  C   UNL     1      34.916 -21.240 -18.651  0.00  0.00    +0.076 C 
ATOM      5  C   UNL     1      34.500 -22.606 -16.376  0.00  0.00    +0.098 C 
ATOM      6  C   UNL     1      35.893 -21.378 -17.687  0.00  0.00    +0.170 C 
ATOM      7  C   UNL     1      33.710 -21.850 -18.369  0.00  0.00    +0.113 C 
ENDROOT
BRANCH   1   8
ATOM      8  C   UNL     1      35.377 -24.015 -14.501  0.00  0.00    +0.065 C 
ATOM      9  C   UNL     1      36.018 -23.408 -13.420  0.00  0.00    +0.016 C 
ATOM     10  C   UNL     1      35.780 -25.276 -14.934  0.00  0.00    +0.016 C 
ATOM     11  C   UNL     1      37.063 -24.067 -12.772  0.00  0.00    +0.001 C 
ATOM     12  C   UNL     1      36.825 -25.935 -14.286  0.00  0.00    +0.001 C 
ATOM     13  C   UNL     1      37.468 -25.330 -13.205  0.00  0.00    +0.000 C 
ENDBRANCH   1   8
BRANCH   1  14
ATOM     14  C   UNL     1      32.948 -23.403 -14.579  0.00  0.00    +0.065 C 
ATOM     15  C   UNL     1      32.052 -22.345 -14.728  0.00  0.00    +0.016 C 
ATOM     16  C   UNL     1      32.576 -24.537 -13.857  0.00  0.00    +0.016 C 
ATOM     17  C   UNL     1      30.783 -22.421 -14.154  0.00  0.00    +0.001 C 
ATOM     18  C   UNL     1      31.307 -24.612 -13.282  0.00  0.00    +0.001 C 
ATOM     19  C   UNL     1      30.410 -23.555 -13.432  0.00  0.00    +0.000 C 
ENDBRANCH   1  14
BRANCH   4  22
ATOM     20  O   UNL     1      34.494 -20.773 -20.909  0.00  0.00    -0.270 OA
ATOM     21  N   UNL     1      36.091 -19.468 -19.848  0.00  0.00    -0.301 N 
ATOM     22  C   UNL     1      35.146 -20.485 -19.909  0.00  0.00    +0.245 C 
ATOM     23  H   UNL     1      36.563 -19.312 -18.999  0.00  0.00    +0.150 HD
BRANCH  21  24
ATOM     24  C   UNL     1      36.407 -18.633 -20.976  0.00  0.00    +0.090 C 
BRANCH  24  25
ATOM     25  C   UNL     1      35.366 -17.536 -21.169  0.00  0.00    +0.021 C 
BRANCH  25  26
ATOM     26  C   UNL     1      34.917 -17.446 -22.628  0.00  0.00    +0.002 C 
BRANCH  26  27
ATOM     27  C   UNL     1      34.356 -16.060 -22.952  0.00  0.00    +0.001 C 
BRANCH  27  28
ATOM     28  C   UNL     1      34.187 -15.219 -21.682  0.00  0.00    +0.010 C 
BRANCH  28  29
ATOM     29  C   UNL     1      33.813 -13.770 -21.991  0.00  0.00    +0.087 C 
BRANCH  29  32
ATOM     30  O   UNL     1      32.132 -13.811 -20.247  0.00  0.00    -0.273 OA
ATOM     31  N   UNL     1      31.951 -12.265 -21.953  0.00  0.00    -0.197 N 
ATOM     32  C   UNL     1      32.555 -13.298 -21.280  0.00  0.00    +0.244 C 
ATOM     33  H   UNL     1      32.328 -11.887 -22.780  0.00  0.00    +0.182 HD
BRANCH  31  34
ATOM     34  O   UNL     1      30.761 -11.784 -21.389  0.00  0.00    -0.295 OA
ATOM     35  H   UNL     1      30.022 -11.960 -21.992  0.00  0.00    +0.241 HD
ENDBRANCH  31  34
ENDBRANCH  29  32
ENDBRANCH  28  29
ENDBRANCH  27  28
ENDBRANCH  26  27
ENDBRANCH  25  26
ENDBRANCH  24  25
ENDBRANCH  21  24
ENDBRANCH   4  22
TORSDOF 11
ENDMDL
MODEL 3
REMARK VINA RESULT:     -11.5      1.710      3.807
REMARK  Name = 53340666
REMARK  11 active torsions:
REMARK  status: ('A' for Active; 'I' for Inactive)
REMARK    1  A    between atoms: N_1  and  C_8
REMARK    2  A    between atoms: N_1  and  C_14
REMARK    3  A    between atoms: C_4  and  C_22
REMARK    4  A    between atoms: N_21  and  C_24
REMARK    5  A    between atoms: C_24  and  C_25
REMARK    6  A    between atoms: C_25  and  C_26
REMARK    7  A    between atoms: C_26  and  C_27
REMARK    8  A    between atoms: C_27  and  C_28
REMARK    9  A    between atoms: C_28  and  C_29
REMARK   10  A    between atoms: C_29  and  C_32
REMARK   11  A    between atoms: N_31  and  O_34
REMARK                            x       y       z     vdW  Elec       q    Type
REMARK                         _______ _______ _______ _____ _____    ______ ____
ROOT
ATOM      1  N   UNL     1      34.380 -23.283 -15.112  0.00  0.00    -0.211 N 
ATOM      2  N   UNL     1      33.529 -22.548 -17.172  0.00  0.00    -0.202 NA
ATOM      3  N   UNL     1      35.781 -22.014 -16.501  0.00  0.00    -0.180 NA
ATOM      4  C   UNL     1      34.941 -21.243 -18.621  0.00  0.00    +0.076 C 
ATOM      5  C   UNL     1      34.573 -22.581 -16.322  0.00  0.00    +0.098 C 
ATOM      6  C   UNL     1      33.748 -21.868 -18.317  0.00  0.00    +0.170 C 
ATOM      7  C   UNL     1      35.931 -21.351 -17.666  0.00  0.00    +0.113 C 
ENDROOT
BRANCH   1   8
ATOM      8  C   UNL     1      33.057 -23.375 -14.493  0.00  0.00    +0.065 C 
ATOM      9  C   UNL     1      32.682 -24.538 -13.820  0.00  0.00    +0.016 C 
ATOM     10  C   UNL     1      32.173 -22.301 -14.578  0.00  0.00    +0.016 C 
ATOM     11  C   UNL     1      31.421 -24.625 -13.230  0.00  0.00    +0.001 C 
ATOM     12  C   UNL     1      30.912 -22.389 -13.987  0.00  0.00    +0.001 C 
ATOM     13  C   UNL     1      30.535 -23.551 -13.314  0.00  0.00    +0.000 C 
ENDBRANCH   1   8
BRANCH   1  14
ATOM     14  C   UNL     1      35.496 -23.946 -14.435  0.00  0.00    +0.065 C 
ATOM     15  C   UNL     1      36.101 -23.340 -13.334  0.00  0.00    +0.016 C 
ATOM     16  C   UNL     1      35.953 -25.182 -14.891  0.00  0.00    +0.016 C 
ATOM     17  C   UNL     1      37.164 -23.971 -12.689  0.00  0.00    +0.001 C 
ATOM     18  C   UNL     1      37.017 -25.812 -14.245  0.00  0.00    +0.001 C 
ATOM     19  C   UNL     1      37.622 -25.207 -13.144  0.00  0.00    +0.000 C 
ENDBRANCH   1  14
BRANCH   4  22
ATOM     20  O   UNL     1      34.502 -20.830 -20.887  0.00  0.00    -0.270 OA
ATOM     21  N   UNL     1      36.056 -19.455 -19.851  0.00  0.00    -0.301 N 
ATOM     22  C   UNL     1      35.144 -20.504 -19.893  0.00  0.00    +0.245 C 
ATOM     23  H   UNL     1      36.524 -19.269 -19.006  0.00  0.00    +0.150 HD
BRANCH  21  24
ATOM     24  C   UNL     1      36.343 -18.631 -20.994  0.00  0.00    +0.090 C 
BRANCH  24  25
ATOM     25  C   UNL     1      35.337 -17.493 -21.131  0.00  0.00    +0.021 C 
BRANCH  25  26
ATOM     26  C   UNL     1      34.846 -17.354 -22.571  0.00  0.00    +0.002 C 
BRANCH  26  27
ATOM     27  C   UNL     1      34.567 -15.892 -22.926  0.00  0.00    +0.001 C 
BRANCH  27  28
ATOM     28  C   UNL     1      34.134 -15.095 -21.691  0.00  0.00    +0.010 C 
BRANCH  28  29
ATOM     29  C   UNL     1      33.719 -13.666 -22.038  0.00  0.00    +0.087 C 
BRANCH  29  32
ATOM     30  O   UNL     1      32.066 -13.722 -20.269  0.00  0.00    -0.273 OA
ATOM     31  N   UNL     1      31.879 -12.136 -21.939  0.00  0.00    -0.197 N 
ATOM     32  C   UNL     1      32.479 -13.193 -21.298  0.00  0.00    +0.244 C 
ATOM     33  H   UNL     1      32.248 -11.745 -22.763  0.00  0.00    +0.182 HD
BRANCH  31  34
ATOM     34  O   UNL     1      30.706 -11.651 -21.345  0.00  0.00    -0.295 OA
ATOM     35  H   UNL     1      30.402 -12.279 -20.670  0.00  0.00    +0.241 HD
ENDBRANCH  31  34
ENDBRANCH  29  32
ENDBRANCH  28  29
ENDBRANCH  27  28
ENDBRANCH  26  27
ENDBRANCH  25  26
ENDBRANCH  24  25
ENDBRANCH  21  24
ENDBRANCH   4  22
TORSDOF 11
ENDMDL
MODEL 4
REMARK VINA RESULT:     -11.5      1.024      1.729
REMARK  Name = 53340666
REMARK  11 active torsions:
REMARK  status: ('A' for Active; 'I' for Inactive)
REMARK    1  A    between atoms: N_1  and  C_8
REMARK    2  A    between atoms: N_1  and  C_14
REMARK    3  A    between atoms: C_4  and  C_22
REMARK    4  A    between atoms: N_21  and  C_24
REMARK    5  A    between atoms: C_24  and  C_25
REMARK    6  A    between atoms: C_25  and  C_26
REMARK    7  A    between atoms: C_26  and  C_27
REMARK    8  A    between atoms: C_27  and  C_28
REMARK    9  A    between atoms: C_28  and  C_29
REMARK   10  A    between atoms: C_29  and  C_32
REMARK   11  A    between atoms: N_31  and  O_34
REMARK                            x       y       z     vdW  Elec       q    Type
REMARK                         _______ _______ _______ _____ _____    ______ ____
ROOT
ATOM      1  N   UNL     1      34.249 -23.450 -14.961  0.00  0.00    -0.211 N 
ATOM      2  N   UNL     1      35.770 -22.242 -16.279  0.00  0.00    -0.202 NA
ATOM      3  N   UNL     1      33.548 -22.724 -17.079  0.00  0.00    -0.180 NA
ATOM      4  C   UNL     1      35.082 -21.483 -18.458  0.00  0.00    +0.076 C 
ATOM      5  C   UNL     1      34.537 -22.772 -16.166  0.00  0.00    +0.098 C 
ATOM      6  C   UNL     1      36.009 -21.602 -17.442  0.00  0.00    +0.170 C 
ATOM      7  C   UNL     1      33.856 -22.070 -18.217  0.00  0.00    +0.113 C 
ENDROOT
BRANCH   1   8
ATOM      8  C   UNL     1      35.302 -24.131 -14.206  0.00  0.00    +0.065 C 
ATOM      9  C   UNL     1      35.776 -23.579 -13.017  0.00  0.00    +0.016 C 
ATOM     10  C   UNL     1      35.831 -25.332 -14.678  0.00  0.00    +0.016 C 
ATOM     11  C   UNL     1      36.779 -24.228 -12.298  0.00  0.00    +0.001 C 
ATOM     12  C   UNL     1      36.834 -25.981 -13.959  0.00  0.00    +0.001 C 
ATOM     13  C   UNL     1      37.309 -25.430 -12.769  0.00  0.00    +0.000 C 
ENDBRANCH   1   8
BRANCH   1  14
ATOM     14  C   UNL     1      32.888 -23.495 -14.423  0.00  0.00    +0.065 C 
ATOM     15  C   UNL     1      32.439 -24.636 -13.759  0.00  0.00    +0.016 C 
ATOM     16  C   UNL     1      32.043 -22.397 -14.575  0.00  0.00    +0.016 C 
ATOM     17  C   UNL     1      31.142 -24.679 -13.248  0.00  0.00    +0.001 C 
ATOM     18  C   UNL     1      30.746 -22.440 -14.063  0.00  0.00    +0.001 C 
ATOM     19  C   UNL     1      30.296 -23.580 -13.399  0.00  0.00    +0.000 C 
ENDBRANCH   1  14
BRANCH   4  22
ATOM     20  O   UNL     1      34.942 -21.213 -20.782  0.00  0.00    -0.270 OA
ATOM     21  N   UNL     1      36.145 -19.614 -19.610  0.00  0.00    -0.301 N 
ATOM     22  C   UNL     1      35.384 -20.771 -19.725  0.00  0.00    +0.245 C 
ATOM     23  H   UNL     1      36.455 -19.338 -18.718  0.00  0.00    +0.150 HD
BRANCH  21  24
ATOM     24  C   UNL     1      36.499 -18.802 -20.744  0.00  0.00    +0.090 C 
BRANCH  24  25
ATOM     25  C   UNL     1      35.278 -18.114 -21.343  0.00  0.00    +0.021 C 
BRANCH  25  26
ATOM     26  C   UNL     1      35.270 -18.220 -22.867  0.00  0.00    +0.002 C 
BRANCH  26  27
ATOM     27  C   UNL     1      33.891 -18.628 -23.390  0.00  0.00    +0.001 C 
BRANCH  27  28
ATOM     28  C   UNL     1      33.336 -17.583 -24.364  0.00  0.00    +0.010 C 
BRANCH  28  29
ATOM     29  C   UNL     1      34.160 -16.296 -24.366  0.00  0.00    +0.087 C 
BRANCH  29  32
ATOM     30  O   UNL     1      33.161 -14.717 -25.906  0.00  0.00    -0.273 OA
ATOM     31  N   UNL     1      32.931 -14.376 -23.634  0.00  0.00    -0.197 N 
ATOM     32  C   UNL     1      33.361 -15.060 -24.744  0.00  0.00    +0.244 C 
ATOM     33  H   UNL     1      33.116 -14.691 -22.720  0.00  0.00    +0.182 HD
BRANCH  31  34
ATOM     34  O   UNL     1      32.211 -13.199 -23.885  0.00  0.00    -0.295 OA
ATOM     35  H   UNL     1      32.825 -12.491 -24.134  0.00  0.00    +0.241 HD
ENDBRANCH  31  34
ENDBRANCH  29  32
ENDBRANCH  28  29
ENDBRANCH  27  28
ENDBRANCH  26  27
ENDBRANCH  25  26
ENDBRANCH  24  25
ENDBRANCH  21  24
ENDBRANCH   4  22
TORSDOF 11
ENDMDL
MODEL 5
REMARK VINA RESULT:     -11.4      0.280      3.408
REMARK  Name = 53340666
REMARK  11 active torsions:
REMARK  status: ('A' for Active; 'I' for Inactive)
REMARK    1  A    between atoms: N_1  and  C_8
REMARK    2  A    between atoms: N_1  and  C_14
REMARK    3  A    between atoms: C_4  and  C_22
REMARK    4  A    between atoms: N_21  and  C_24
REMARK    5  A    between atoms: C_24  and  C_25
REMARK    6  A    between atoms: C_25  and  C_26
REMARK    7  A    between atoms: C_26  and  C_27
REMARK    8  A    between atoms: C_27  and  C_28
REMARK    9  A    between atoms: C_28  and  C_29
REMARK   10  A    between atoms: C_29  and  C_32
REMARK   11  A    between atoms: N_31  and  O_34
REMARK                            x       y       z     vdW  Elec       q    Type
REMARK                         _______ _______ _______ _____ _____    ______ ____
ROOT
ATOM      1  N   UNL     1      33.840 -23.534 -14.921  0.00  0.00    -0.211 N 
ATOM      2  N   UNL     1      33.161 -22.717 -17.014  0.00  0.00    -0.202 NA
ATOM      3  N   UNL     1      35.394 -22.325 -16.197  0.00  0.00    -0.180 NA
ATOM      4  C   UNL     1      34.731 -21.472 -18.348  0.00  0.00    +0.076 C 
ATOM      5  C   UNL     1      34.146 -22.824 -16.102  0.00  0.00    +0.098 C 
ATOM      6  C   UNL     1      33.489 -22.032 -18.129  0.00  0.00    +0.170 C 
ATOM      7  C   UNL     1      35.653 -21.652 -17.337  0.00  0.00    +0.113 C 
ENDROOT
BRANCH   1   8
ATOM      8  C   UNL     1      32.478 -23.560 -14.386  0.00  0.00    +0.065 C 
ATOM      9  C   UNL     1      31.685 -22.414 -14.442  0.00  0.00    +0.016 C 
ATOM     10  C   UNL     1      31.975 -24.730 -13.819  0.00  0.00    +0.016 C 
ATOM     11  C   UNL     1      30.388 -22.439 -13.931  0.00  0.00    +0.001 C 
ATOM     12  C   UNL     1      30.677 -24.755 -13.309  0.00  0.00    +0.001 C 
ATOM     13  C   UNL     1      29.883 -23.609 -13.364  0.00  0.00    +0.000 C 
ENDBRANCH   1   8
BRANCH   1  14
ATOM     14  C   UNL     1      34.873 -24.270 -14.191  0.00  0.00    +0.065 C 
ATOM     15  C   UNL     1      35.150 -23.948 -12.862  0.00  0.00    +0.016 C 
ATOM     16  C   UNL     1      35.578 -25.294 -14.823  0.00  0.00    +0.016 C 
ATOM     17  C   UNL     1      36.135 -24.649 -12.166  0.00  0.00    +0.001 C 
ATOM     18  C   UNL     1      36.563 -25.994 -14.126  0.00  0.00    +0.001 C 
ATOM     19  C   UNL     1      36.841 -25.673 -12.798  0.00  0.00    +0.000 C 
ENDBRANCH   1  14
BRANCH   4  22
ATOM     20  O   UNL     1      36.180 -20.819 -20.071  0.00  0.00    -0.270 OA
ATOM     21  N   UNL     1      34.022 -19.972 -20.137  0.00  0.00    -0.301 N 
ATOM     22  C   UNL     1      35.054 -20.724 -19.589  0.00  0.00    +0.245 C 
ATOM     23  H   UNL     1      33.152 -19.957 -19.677  0.00  0.00    +0.150 HD
BRANCH  21  24
ATOM     24  C   UNL     1      34.173 -19.213 -21.349  0.00  0.00    +0.090 C 
BRANCH  24  25
ATOM     25  C   UNL     1      35.528 -18.518 -21.410  0.00  0.00    +0.021 C 
BRANCH  25  26
ATOM     26  C   UNL     1      35.413 -17.124 -22.026  0.00  0.00    +0.002 C 
BRANCH  26  27
ATOM     27  C   UNL     1      34.389 -16.268 -21.278  0.00  0.00    +0.001 C 
BRANCH  27  28
ATOM     28  C   UNL     1      33.941 -15.073 -22.126  0.00  0.00    +0.010 C 
BRANCH  28  29
ATOM     29  C   UNL     1      34.517 -15.116 -23.541  0.00  0.00    +0.087 C 
BRANCH  29  32
ATOM     30  O   UNL     1      33.183 -15.920 -25.395  0.00  0.00    -0.273 OA
ATOM     31  N   UNL     1      32.915 -13.742 -24.673  0.00  0.00    -0.197 N 
ATOM     32  C   UNL     1      33.467 -15.000 -24.633  0.00  0.00    +0.244 C 
ATOM     33  H   UNL     1      33.176 -13.035 -24.040  0.00  0.00    +0.182 HD
BRANCH  31  34
ATOM     34  O   UNL     1      31.956 -13.530 -25.673  0.00  0.00    -0.295 OA
ATOM     35  H   UNL     1      32.374 -13.617 -26.544  0.00  0.00    +0.241 HD
ENDBRANCH  31  34
ENDBRANCH  29  32
ENDBRANCH  28  29
ENDBRANCH  27  28
ENDBRANCH  26  27
ENDBRANCH  25  26
ENDBRANCH  24  25
ENDBRANCH  21  24
ENDBRANCH   4  22
TORSDOF 11
ENDMDL
MODEL 6
REMARK VINA RESULT:     -10.7      7.990     16.617
REMARK  Name = 53340666
REMARK  11 active torsions:
REMARK  status: ('A' for Active; 'I' for Inactive)
REMARK    1  A    between atoms: N_1  and  C_8
REMARK    2  A    between atoms: N_1  and  C_14
REMARK    3  A    between atoms: C_4  and  C_22
REMARK    4  A    between atoms: N_21  and  C_24
REMARK    5  A    between atoms: C_24  and  C_25
REMARK    6  A    between atoms: C_25  and  C_26
REMARK    7  A    between atoms: C_26  and  C_27
REMARK    8  A    between atoms: C_27  and  C_28
REMARK    9  A    between atoms: C_28  and  C_29
REMARK   10  A    between atoms: C_29  and  C_32
REMARK   11  A    between atoms: N_31  and  O_34
REMARK                            x       y       z     vdW  Elec       q    Type
REMARK                         _______ _______ _______ _____ _____    ______ ____
ROOT
ATOM      1  N   UNL     1      31.928  -5.676 -23.520  0.00  0.00    -0.211 N 
ATOM      2  N   UNL     1      31.734  -6.729 -21.431  0.00  0.00    -0.202 NA
ATOM      3  N   UNL     1      31.809  -8.019 -23.466  0.00  0.00    -0.180 NA
ATOM      4  C   UNL     1      31.608  -9.132 -21.341  0.00  0.00    +0.076 C 
ATOM      5  C   UNL     1      31.818  -6.867 -22.768  0.00  0.00    +0.098 C 
ATOM      6  C   UNL     1      31.630  -7.887 -20.746  0.00  0.00    +0.170 C 
ATOM      7  C   UNL     1      31.702  -9.136 -22.718  0.00  0.00    +0.113 C 
ENDROOT
BRANCH   1   8
ATOM      8  C   UNL     1      31.329  -4.426 -23.049  0.00  0.00    +0.065 C 
ATOM      9  C   UNL     1      30.284  -4.459 -22.125  0.00  0.00    +0.016 C 
ATOM     10  C   UNL     1      31.802  -3.205 -23.525  0.00  0.00    +0.016 C 
ATOM     11  C   UNL     1      29.713  -3.268 -21.677  0.00  0.00    +0.001 C 
ATOM     12  C   UNL     1      31.231  -2.014 -23.077  0.00  0.00    +0.001 C 
ATOM     13  C   UNL     1      30.187  -2.045 -22.153  0.00  0.00    +0.000 C 
ENDBRANCH   1   8
BRANCH   1  14
ATOM     14  C   UNL     1      32.645  -5.649 -24.795  0.00  0.00    +0.065 C 
ATOM     15  C   UNL     1      31.933  -5.636 -25.995  0.00  0.00    +0.016 C 
ATOM     16  C   UNL     1      34.039  -5.636 -24.811  0.00  0.00    +0.016 C 
ATOM     17  C   UNL     1      32.617  -5.611 -27.210  0.00  0.00    +0.001 C 
ATOM     18  C   UNL     1      34.722  -5.611 -26.027  0.00  0.00    +0.001 C 
ATOM     19  C   UNL     1      34.012  -5.597 -27.226  0.00  0.00    +0.000 C 
ENDBRANCH   1  14
BRANCH   4  22
ATOM     20  O   UNL     1      31.098 -10.328 -19.390  0.00  0.00    -0.270 OA
ATOM     21  N   UNL     1      31.827 -11.559 -21.216  0.00  0.00    -0.301 N 
ATOM     22  C   UNL     1      31.492 -10.384 -20.552  0.00  0.00    +0.245 C 
ATOM     23  H   UNL     1      32.134 -11.503 -22.149  0.00  0.00    +0.150 HD
BRANCH  21  24
ATOM     24  C   UNL     1      31.743 -12.853 -20.594  0.00  0.00    +0.090 C 
BRANCH  24  25
ATOM     25  C   UNL     1      32.961 -13.711 -20.920  0.00  0.00    +0.021 C 
BRANCH  25  26
ATOM     26  C   UNL     1      33.589 -13.303 -22.252  0.00  0.00    +0.002 C 
BRANCH  26  27
ATOM     27  C   UNL     1      33.404 -14.392 -23.311  0.00  0.00    +0.001 C 
BRANCH  27  28
ATOM     28  C   UNL     1      34.648 -15.280 -23.416  0.00  0.00    +0.010 C 
BRANCH  28  29
ATOM     29  C   UNL     1      34.387 -16.706 -22.934  0.00  0.00    +0.087 C 
BRANCH  29  32
ATOM     30  O   UNL     1      34.872 -16.722 -20.561  0.00  0.00    -0.273 OA
ATOM     31  N   UNL     1      36.276 -17.850 -22.008  0.00  0.00    -0.197 N 
ATOM     32  C   UNL     1      35.178 -17.087 -21.694  0.00  0.00    +0.244 C 
ATOM     33  H   UNL     1      36.481 -18.117 -22.932  0.00  0.00    +0.182 HD
BRANCH  31  34
ATOM     34  O   UNL     1      37.087 -18.223 -20.927  0.00  0.00    -0.295 OA
ATOM     35  H   UNL     1      37.968 -17.830 -21.034  0.00  0.00    +0.241 HD
ENDBRANCH  31  34
ENDBRANCH  29  32
ENDBRANCH  28  29
ENDBRANCH  27  28
ENDBRANCH  26  27
ENDBRANCH  25  26
ENDBRANCH  24  25
ENDBRANCH  21  24
ENDBRANCH   4  22
TORSDOF 11
ENDMDL
MODEL 7
REMARK VINA RESULT:     -10.5      7.970     16.656
REMARK  Name = 53340666
REMARK  11 active torsions:
REMARK  status: ('A' for Active; 'I' for Inactive)
REMARK    1  A    between atoms: N_1  and  C_8
REMARK    2  A    between atoms: N_1  and  C_14
REMARK    3  A    between atoms: C_4  and  C_22
REMARK    4  A    between atoms: N_21  and  C_24
REMARK    5  A    between atoms: C_24  and  C_25
REMARK    6  A    between atoms: C_25  and  C_26
REMARK    7  A    between atoms: C_26  and  C_27
REMARK    8  A    between atoms: C_27  and  C_28
REMARK    9  A    between atoms: C_28  and  C_29
REMARK   10  A    between atoms: C_29  and  C_32
REMARK   11  A    between atoms: N_31  and  O_34
REMARK                            x       y       z     vdW  Elec       q    Type
REMARK                         _______ _______ _______ _____ _____    ______ ____
ROOT
ATOM      1  N   UNL     1      32.017  -5.416 -23.609  0.00  0.00    -0.211 N 
ATOM      2  N   UNL     1      31.952  -7.762 -23.591  0.00  0.00    -0.202 NA
ATOM      3  N   UNL     1      31.768  -6.503 -21.544  0.00  0.00    -0.180 NA
ATOM      4  C   UNL     1      31.698  -8.908 -21.489  0.00  0.00    +0.076 C 
ATOM      5  C   UNL     1      31.907  -6.620 -22.879  0.00  0.00    +0.098 C 
ATOM      6  C   UNL     1      31.844  -8.892 -22.861  0.00  0.00    +0.170 C 
ATOM      7  C   UNL     1      31.667  -7.671 -20.878  0.00  0.00    +0.113 C 
ENDROOT
BRANCH   1   8
ATOM      8  C   UNL     1      32.782  -5.355 -24.855  0.00  0.00    +0.065 C 
ATOM      9  C   UNL     1      34.150  -5.085 -24.821  0.00  0.00    +0.016 C 
ATOM     10  C   UNL     1      32.142  -5.564 -26.075  0.00  0.00    +0.016 C 
ATOM     11  C   UNL     1      34.879  -5.027 -26.009  0.00  0.00    +0.001 C 
ATOM     12  C   UNL     1      32.871  -5.505 -27.263  0.00  0.00    +0.001 C 
ATOM     13  C   UNL     1      34.239  -5.236 -27.230  0.00  0.00    +0.000 C 
ENDBRANCH   1   8
BRANCH   1  14
ATOM     14  C   UNL     1      31.371  -4.188 -23.145  0.00  0.00    +0.065 C 
ATOM     15  C   UNL     1      31.747  -2.957 -23.683  0.00  0.00    +0.016 C 
ATOM     16  C   UNL     1      30.378  -4.249 -22.168  0.00  0.00    +0.016 C 
ATOM     17  C   UNL     1      31.131  -1.786 -23.241  0.00  0.00    +0.001 C 
ATOM     18  C   UNL     1      29.763  -3.078 -21.726  0.00  0.00    +0.001 C 
ATOM     19  C   UNL     1      30.138  -1.847 -22.263  0.00  0.00    +0.000 C 
ENDBRANCH   1  14
BRANCH   4  22
ATOM     20  O   UNL     1      31.400 -10.124 -19.506  0.00  0.00    -0.270 OA
ATOM     21  N   UNL     1      31.670 -11.348 -21.458  0.00  0.00    -0.301 N 
ATOM     22  C   UNL     1      31.583 -10.173 -20.720  0.00  0.00    +0.245 C 
ATOM     23  H   UNL     1      31.819 -11.286 -22.429  0.00  0.00    +0.150 HD
BRANCH  21  24
ATOM     24  C   UNL     1      31.553 -12.651 -20.860  0.00  0.00    +0.090 C 
BRANCH  24  25
ATOM     25  C   UNL     1      32.891 -13.382 -20.845  0.00  0.00    +0.021 C 
BRANCH  25  26
ATOM     26  C   UNL     1      33.638 -13.205 -22.167  0.00  0.00    +0.002 C 
BRANCH  26  27
ATOM     27  C   UNL     1      33.376 -14.376 -23.116  0.00  0.00    +0.001 C 
BRANCH  27  28
ATOM     28  C   UNL     1      34.636 -15.227 -23.306  0.00  0.00    +0.010 C 
BRANCH  28  29
ATOM     29  C   UNL     1      34.416 -16.686 -22.909  0.00  0.00    +0.087 C 
BRANCH  29  32
ATOM     30  O   UNL     1      34.881 -16.764 -20.533  0.00  0.00    -0.273 OA
ATOM     31  N   UNL     1      36.281 -17.878 -21.994  0.00  0.00    -0.197 N 
ATOM     32  C   UNL     1      35.191 -17.106 -21.671  0.00  0.00    +0.244 C 
ATOM     33  H   UNL     1      36.490 -18.127 -22.923  0.00  0.00    +0.182 HD
BRANCH  31  34
ATOM     34  O   UNL     1      37.078 -18.287 -20.915  0.00  0.00    -0.295 OA
ATOM     35  H   UNL     1      37.597 -17.533 -20.593  0.00  0.00    +0.241 HD
ENDBRANCH  31  34
ENDBRANCH  29  32
ENDBRANCH  28  29
ENDBRANCH  27  28
ENDBRANCH  26  27
ENDBRANCH  25  26
ENDBRANCH  24  25
ENDBRANCH  21  24
ENDBRANCH   4  22
TORSDOF 11
ENDMDL
MODEL 8
REMARK VINA RESULT:     -10.0      4.915     13.759
REMARK  Name = 53340666
REMARK  11 active torsions:
REMARK  status: ('A' for Active; 'I' for Inactive)
REMARK    1  A    between atoms: N_1  and  C_8
REMARK    2  A    between atoms: N_1  and  C_14
REMARK    3  A    between atoms: C_4  and  C_22
REMARK    4  A    between atoms: N_21  and  C_24
REMARK    5  A    between atoms: C_24  and  C_25
REMARK    6  A    between atoms: C_25  and  C_26
REMARK    7  A    between atoms: C_26  and  C_27
REMARK    8  A    between atoms: C_27  and  C_28
REMARK    9  A    between atoms: C_28  and  C_29
REMARK   10  A    between atoms: C_29  and  C_32
REMARK   11  A    between atoms: N_31  and  O_34
REMARK                            x       y       z     vdW  Elec       q    Type
REMARK                         _______ _______ _______ _____ _____    ______ ____
ROOT
ATOM      1  N   UNL     1      32.320  -9.441 -22.667  0.00  0.00    -0.211 N 
ATOM      2  N   UNL     1      32.974 -11.653 -22.232  0.00  0.00    -0.202 NA
ATOM      3  N   UNL     1      32.401 -10.947 -24.464  0.00  0.00    -0.180 NA
ATOM      4  C   UNL     1      33.067 -13.223 -24.055  0.00  0.00    +0.076 C 
ATOM      5  C   UNL     1      32.578 -10.745 -23.144  0.00  0.00    +0.098 C 
ATOM      6  C   UNL     1      33.211 -12.887 -22.724  0.00  0.00    +0.170 C 
ATOM      7  C   UNL     1      32.656 -12.202 -24.887  0.00  0.00    +0.113 C 
ENDROOT
BRANCH   1   8
ATOM      8  C   UNL     1      31.842  -9.217 -21.302  0.00  0.00    +0.065 C 
ATOM      9  C   UNL     1      31.276 -10.268 -20.580  0.00  0.00    +0.016 C 
ATOM     10  C   UNL     1      31.951  -7.953 -20.725  0.00  0.00    +0.016 C 
ATOM     11  C   UNL     1      30.820 -10.053 -19.279  0.00  0.00    +0.001 C 
ATOM     12  C   UNL     1      31.495  -7.738 -19.424  0.00  0.00    +0.001 C 
ATOM     13  C   UNL     1      30.929  -8.788 -18.701  0.00  0.00    +0.000 C 
ENDBRANCH   1   8
BRANCH   1  14
ATOM     14  C   UNL     1      32.522  -8.269 -23.519  0.00  0.00    +0.065 C 
ATOM     15  C   UNL     1      33.806  -7.753 -23.701  0.00  0.00    +0.016 C 
ATOM     16  C   UNL     1      31.433  -7.669 -24.149  0.00  0.00    +0.016 C 
ATOM     17  C   UNL     1      33.998  -6.635 -24.512  0.00  0.00    +0.001 C 
ATOM     18  C   UNL     1      31.626  -6.551 -24.960  0.00  0.00    +0.001 C 
ATOM     19  C   UNL     1      32.908  -6.034 -25.143  0.00  0.00    +0.000 C 
ENDBRANCH   1  14
BRANCH   4  22
ATOM     20  O   UNL     1      33.121 -14.854 -25.739  0.00  0.00    -0.270 OA
ATOM     21  N   UNL     1      33.850 -15.496 -23.633  0.00  0.00    -0.301 N 
ATOM     22  C   UNL     1      33.338 -14.594 -24.558  0.00  0.00    +0.245 C 
ATOM     23  H   UNL     1      33.989 -15.194 -22.706  0.00  0.00    +0.150 HD
BRANCH  21  24
ATOM     24  C   UNL     1      34.185 -16.852 -23.974  0.00  0.00    +0.090 C 
BRANCH  24  25
ATOM     25  C   UNL     1      34.257 -17.739 -22.736  0.00  0.00    +0.021 C 
BRANCH  25  26
ATOM     26  C   UNL     1      35.391 -17.307 -21.807  0.00  0.00    +0.002 C 
BRANCH  26  27
ATOM     27  C   UNL     1      35.982 -18.502 -21.055  0.00  0.00    +0.001 C 
BRANCH  27  28
ATOM     28  C   UNL     1      34.911 -19.560 -20.768  0.00  0.00    +0.010 C 
BRANCH  28  29
ATOM     29  C   UNL     1      35.358 -20.567 -19.710  0.00  0.00    +0.087 C 
BRANCH  29  32
ATOM     30  O   UNL     1      34.370 -22.331 -18.377  0.00  0.00    -0.273 OA
ATOM     31  N   UNL     1      32.996 -20.762 -19.369  0.00  0.00    -0.197 N 
ATOM     32  C   UNL     1      34.211 -21.325 -19.063  0.00  0.00    +0.244 C 
ATOM     33  H   UNL     1      32.918 -19.954 -19.924  0.00  0.00    +0.182 HD
BRANCH  31  34
ATOM     34  O   UNL     1      31.873 -21.414 -18.841  0.00  0.00    -0.295 OA
ATOM     35  H   UNL     1      32.003 -22.374 -18.891  0.00  0.00    +0.241 HD
ENDBRANCH  31  34
ENDBRANCH  29  32
ENDBRANCH  28  29
ENDBRANCH  27  28
ENDBRANCH  26  27
ENDBRANCH  25  26
ENDBRANCH  24  25
ENDBRANCH  21  24
ENDBRANCH   4  22
TORSDOF 11
ENDMDL
MODEL 9
REMARK VINA RESULT:      -9.7      8.490     16.489
REMARK  Name = 53340666
REMARK  11 active torsions:
REMARK  status: ('A' for Active; 'I' for Inactive)
REMARK    1  A    between atoms: N_1  and  C_8
REMARK    2  A    between atoms: N_1  and  C_14
REMARK    3  A    between atoms: C_4  and  C_22
REMARK    4  A    between atoms: N_21  and  C_24
REMARK    5  A    between atoms: C_24  and  C_25
REMARK    6  A    between atoms: C_25  and  C_26
REMARK    7  A    between atoms: C_26  and  C_27
REMARK    8  A    between atoms: C_27  and  C_28
REMARK    9  A    between atoms: C_28  and  C_29
REMARK   10  A    between atoms: C_29  and  C_32
REMARK   11  A    between atoms: N_31  and  O_34
REMARK                            x       y       z     vdW  Elec       q    Type
REMARK                         _______ _______ _______ _____ _____    ______ ____
ROOT
ATOM      1  N   UNL     1      31.960  -5.723 -23.751  0.00  0.00    -0.211 N 
ATOM      2  N   UNL     1      31.669  -6.955 -21.775  0.00  0.00    -0.202 NA
ATOM      3  N   UNL     1      31.833  -8.060 -23.910  0.00  0.00    -0.180 NA
ATOM      4  C   UNL     1      31.534  -9.356 -21.904  0.00  0.00    +0.076 C 
ATOM      5  C   UNL     1      31.814  -6.975 -23.113  0.00  0.00    +0.098 C 
ATOM      6  C   UNL     1      31.531  -8.169 -21.200  0.00  0.00    +0.170 C 
ATOM      7  C   UNL     1      31.690  -9.239 -23.270  0.00  0.00    +0.113 C 
ENDROOT
BRANCH   1   8
ATOM      8  C   UNL     1      31.344  -4.516 -23.199  0.00  0.00    +0.065 C 
ATOM      9  C   UNL     1      30.267  -4.624 -22.318  0.00  0.00    +0.016 C 
ATOM     10  C   UNL     1      31.831  -3.260 -23.554  0.00  0.00    +0.016 C 
ATOM     11  C   UNL     1      29.679  -3.474 -21.792  0.00  0.00    +0.001 C 
ATOM     12  C   UNL     1      31.243  -2.110 -23.028  0.00  0.00    +0.001 C 
ATOM     13  C   UNL     1      30.167  -2.216 -22.147  0.00  0.00    +0.000 C 
ENDBRANCH   1   8
BRANCH   1  14
ATOM     14  C   UNL     1      32.735  -5.588 -24.985  0.00  0.00    +0.065 C 
ATOM     15  C   UNL     1      32.088  -5.617 -26.220  0.00  0.00    +0.016 C 
ATOM     16  C   UNL     1      34.119  -5.430 -24.926  0.00  0.00    +0.016 C 
ATOM     17  C   UNL     1      32.826  -5.489 -27.397  0.00  0.00    +0.001 C 
ATOM     18  C   UNL     1      34.857  -5.302 -26.102  0.00  0.00    +0.001 C 
ATOM     19  C   UNL     1      34.211  -5.330 -27.338  0.00  0.00    +0.000 C 
ENDBRANCH   1  14
BRANCH   4  22
ATOM     20  O   UNL     1      30.481 -10.826 -20.412  0.00  0.00    -0.270 OA
ATOM     21  N   UNL     1      32.276 -11.663 -21.619  0.00  0.00    -0.301 N 
ATOM     22  C   UNL     1      31.379 -10.672 -21.235  0.00  0.00    +0.245 C 
ATOM     23  H   UNL     1      32.964 -11.444 -22.287  0.00  0.00    +0.150 HD
BRANCH  21  24
ATOM     24  C   UNL     1      32.238 -12.996 -21.079  0.00  0.00    +0.090 C 
BRANCH  24  25
ATOM     25  C   UNL     1      33.427 -13.825 -21.552  0.00  0.00    +0.021 C 
BRANCH  25  26
ATOM     26  C   UNL     1      33.900 -14.790 -20.465  0.00  0.00    +0.002 C 
BRANCH  26  27
ATOM     27  C   UNL     1      34.260 -16.156 -21.052  0.00  0.00    +0.001 C 
BRANCH  27  28
ATOM     28  C   UNL     1      34.843 -16.017 -22.462  0.00  0.00    +0.010 C 
BRANCH  28  29
ATOM     29  C   UNL     1      34.362 -17.121 -23.402  0.00  0.00    +0.087 C 
BRANCH  29  32
ATOM     30  O   UNL     1      32.659 -17.340 -25.110  0.00  0.00    -0.273 OA
ATOM     31  N   UNL     1      33.695 -15.298 -24.805  0.00  0.00    -0.197 N 
ATOM     32  C   UNL     1      33.465 -16.623 -24.523  0.00  0.00    +0.244 C 
ATOM     33  H   UNL     1      34.353 -14.763 -24.306  0.00  0.00    +0.182 HD
BRANCH  31  34
ATOM     34  O   UNL     1      32.934 -14.757 -25.850  0.00  0.00    -0.295 OA
ATOM     35  H   UNL     1      32.108 -14.393 -25.494  0.00  0.00    +0.241 HD
ENDBRANCH  31  34
ENDBRANCH  29  32
ENDBRANCH  28  29
ENDBRANCH  27  28
ENDBRANCH  26  27
ENDBRANCH  25  26
ENDBRANCH  24  25
ENDBRANCH  21  24
ENDBRANCH   4  22
TORSDOF 11
ENDMDL
