MODEL 1
REMARK VINA RESULT:     -12.1      0.000      0.000
REMARK  Name = 445332
REMARK  5 active torsions:
REMARK  status: ('A' for Active; 'I' for Inactive)
REMARK    1  A    between atoms: C_1  and  C_18
REMARK    2  A    between atoms: C_2  and  N_6
REMARK    3  A    between atoms: C_19  and  O_24
REMARK    4  A    between atoms: C_21  and  C_27
REMARK    5  A    between atoms: C_27  and  C_28
REMARK                            x       y       z     vdW  Elec       q    Type
REMARK                         _______ _______ _______ _____ _____    ______ ____
ROOT
ATOM      1  C   UNL     1      35.688 -19.244 -21.789  0.00  0.00    +0.047 C 
ATOM      2  C   UNL     1      35.853 -17.763 -21.912  0.00  0.00    +0.078 C 
ATOM      3  C   UNL     1      36.829 -18.564 -21.103  0.00  0.00    +0.026 C 
ENDROOT
BRANCH   2   6
ATOM      4 BR   UNL     1      30.848  -9.755 -22.034  0.00  0.00    -0.047 Br
ATOM      5  O   UNL     1      34.898 -15.303 -22.983  0.00  0.00    -0.252 OA
ATOM      6  N   UNL     1      34.934 -16.872 -21.286  0.00  0.00    -0.290 N 
ATOM      7  N   UNL     1      33.610 -15.001 -21.041  0.00  0.00    -0.254 N 
ATOM      8  N   UNL     1      33.214 -13.132 -22.436  0.00  0.00    -0.228 NA
ATOM      9  C   UNL     1      34.507 -15.671 -21.877  0.00  0.00    +0.305 C 
ATOM     10  C   UNL     1      32.961 -13.766 -21.277  0.00  0.00    +0.135 C 
ATOM     11  C   UNL     1      32.113 -13.308 -20.291  0.00  0.00    +0.035 C 
ATOM     12  C   UNL     1      31.471 -12.096 -20.513  0.00  0.00    +0.011 C 
ATOM     13  C   UNL     1      32.572 -11.956 -22.616  0.00  0.00    +0.107 C 
ATOM     14  C   UNL     1      31.698 -11.400 -21.695  0.00  0.00    +0.054 C 
ATOM     15  H   UNL     1      34.583 -17.108 -20.397  0.00  0.00    +0.151 HD
ATOM     16  H   UNL     1      33.405 -15.441 -20.185  0.00  0.00    +0.158 HD
ENDBRANCH   2   6
BRANCH   1  18
ATOM     17  F   UNL     1      32.994 -18.723 -22.401  0.00  0.00    -0.204 F 
ATOM     18  C   UNL     1      34.564 -19.785 -20.970  0.00  0.00    +0.040 C 
ATOM     19  C   UNL     1      34.817 -20.580 -19.852  0.00  0.00    +0.134 C 
ATOM     20  C   UNL     1      33.249 -19.486 -21.329  0.00  0.00    +0.139 C 
ATOM     21  C   UNL     1      33.757 -21.077 -19.094  0.00  0.00    +0.068 C 
ATOM     22  C   UNL     1      32.188 -19.984 -20.572  0.00  0.00    +0.030 C 
ATOM     23  C   UNL     1      32.442 -20.780 -19.454  0.00  0.00    +0.008 C 
BRANCH  19  24
ATOM     24  O   UNL     1      36.103 -20.870 -19.500  0.00  0.00    -0.506 OA
ATOM     25  H   UNL     1      36.705 -21.183 -20.145  0.00  0.00    +0.292 HD
ENDBRANCH  19  24
BRANCH  21  27
ATOM     26  O   UNL     1      35.143 -22.013 -17.441  0.00  0.00    -0.291 OA
ATOM     27  C   UNL     1      33.999 -21.910 -17.924  0.00  0.00    +0.176 C 
BRANCH  27  28
ATOM     28  C   UNL     1      32.832 -22.672 -17.273  0.00  0.00    +0.069 C 
ATOM     29  C   UNL     1      32.977 -22.830 -15.768  0.00  0.00    +0.009 C 
ENDBRANCH  27  28
ENDBRANCH  21  27
ENDBRANCH   1  18
TORSDOF 5
ENDMDL
MODEL 2
REMARK VINA RESULT:     -10.0      1.719      2.467
REMARK  Name = 445332
REMARK  5 active torsions:
REMARK  status: ('A' for Active; 'I' for Inactive)
REMARK    1  A    between atoms: C_1  and  C_18
REMARK    2  A    between atoms: C_2  and  N_6
REMARK    3  A    between atoms: C_19  and  O_24
REMARK    4  A    between atoms: C_21  and  C_27
REMARK    5  A    between atoms: C_27  and  C_28
REMARK                            x       y       z     vdW  Elec       q    Type
REMARK                         _______ _______ _______ _____ _____    ______ ____
ROOT
ATOM      1  C   UNL     1      35.379 -21.306 -19.982  0.00  0.00    +0.047 C 
ATOM      2  C   UNL     1      36.055 -20.017 -20.325  0.00  0.00    +0.078 C 
ATOM      3  C   UNL     1      36.550 -20.843 -19.175  0.00  0.00    +0.026 C 
ENDROOT
BRANCH   2   6
ATOM      4 BR   UNL     1      33.072 -11.668 -23.578  0.00  0.00    -0.047 Br
ATOM      5  O   UNL     1      35.657 -17.966 -22.259  0.00  0.00    -0.252 OA
ATOM      6  N   UNL     1      35.401 -18.771 -20.108  0.00  0.00    -0.290 N 
ATOM      7  N   UNL     1      34.566 -16.684 -20.620  0.00  0.00    -0.254 N 
ATOM      8  N   UNL     1      34.557 -15.415 -22.617  0.00  0.00    -0.228 NA
ATOM      9  C   UNL     1      35.241 -17.803 -21.114  0.00  0.00    +0.305 C 
ATOM     10  C   UNL     1      34.216 -15.504 -21.319  0.00  0.00    +0.135 C 
ATOM     11  C   UNL     1      33.545 -14.533 -20.606  0.00  0.00    +0.035 C 
ATOM     12  C   UNL     1      33.196 -13.370 -21.283  0.00  0.00    +0.011 C 
ATOM     13  C   UNL     1      34.202 -14.269 -23.241  0.00  0.00    +0.107 C 
ATOM     14  C   UNL     1      33.527 -13.227 -22.626  0.00  0.00    +0.054 C 
ATOM     15  H   UNL     1      35.046 -18.577 -19.211  0.00  0.00    +0.151 HD
ATOM     16  H   UNL     1      34.303 -16.721 -19.673  0.00  0.00    +0.158 HD
ENDBRANCH   2   6
BRANCH   1  18
ATOM     17  F   UNL     1      33.226 -19.959 -21.185  0.00  0.00    -0.204 F 
ATOM     18  C   UNL     1      34.016 -21.273 -19.373  0.00  0.00    +0.040 C 
ATOM     19  C   UNL     1      33.763 -21.921 -18.164  0.00  0.00    +0.134 C 
ATOM     20  C   UNL     1      32.993 -20.585 -20.024  0.00  0.00    +0.139 C 
ATOM     21  C   UNL     1      32.485 -21.880 -17.605  0.00  0.00    +0.068 C 
ATOM     22  C   UNL     1      31.714 -20.544 -19.465  0.00  0.00    +0.030 C 
ATOM     23  C   UNL     1      31.461 -21.192 -18.256  0.00  0.00    +0.008 C 
BRANCH  19  24
ATOM     24  O   UNL     1      34.766 -22.592 -17.526  0.00  0.00    -0.506 OA
ATOM     25  H   UNL     1      34.558 -23.271 -16.915  0.00  0.00    +0.292 HD
ENDBRANCH  19  24
BRANCH  21  27
ATOM     26  O   UNL     1      33.115 -22.831 -15.548  0.00  0.00    -0.291 OA
ATOM     27  C   UNL     1      32.198 -22.549 -16.344  0.00  0.00    +0.176 C 
BRANCH  27  28
ATOM     28  C   UNL     1      30.747 -22.914 -15.984  0.00  0.00    +0.069 C 
ATOM     29  C   UNL     1      30.293 -22.345 -14.650  0.00  0.00    +0.009 C 
ENDBRANCH  27  28
ENDBRANCH  21  27
ENDBRANCH   1  18
TORSDOF 5
ENDMDL
MODEL 3
REMARK VINA RESULT:      -9.7      6.110     12.156
REMARK  Name = 445332
REMARK  5 active torsions:
REMARK  status: ('A' for Active; 'I' for Inactive)
REMARK    1  A    between atoms: C_1  and  C_18
REMARK    2  A    between atoms: C_2  and  N_6
REMARK    3  A    between atoms: C_19  and  O_24
REMARK    4  A    between atoms: C_21  and  C_27
REMARK    5  A    between atoms: C_27  and  C_28
REMARK                            x       y       z     vdW  Elec       q    Type
REMARK                         _______ _______ _______ _____ _____    ______ ____
ROOT
ATOM      1  C   UNL     1      31.027  -7.290 -21.133  0.00  0.00    +0.047 C 
ATOM      2  C   UNL     1      30.825  -8.755 -20.909  0.00  0.00    +0.078 C 
ATOM      3  C   UNL     1      31.574  -7.937 -19.900  0.00  0.00    +0.026 C 
ENDROOT
BRANCH   2   6
ATOM      4 BR   UNL     1      35.043 -17.152 -21.849  0.00  0.00    -0.047 Br
ATOM      5  O   UNL     1      31.797 -11.292 -20.058  0.00  0.00    -0.252 OA
ATOM      6  N   UNL     1      31.494  -9.716 -21.720  0.00  0.00    -0.290 N 
ATOM      7  N   UNL     1      32.565 -11.689 -22.242  0.00  0.00    -0.254 N 
ATOM      8  N   UNL     1      33.122 -13.593 -20.952  0.00  0.00    -0.228 NA
ATOM      9  C   UNL     1      31.948 -10.952 -21.229  0.00  0.00    +0.305 C 
ATOM     10  C   UNL     1      33.148 -12.975 -22.147  0.00  0.00    +0.135 C 
ATOM     11  C   UNL     1      33.700 -13.497 -23.298  0.00  0.00    +0.035 C 
ATOM     12  C   UNL     1      34.275 -14.760 -23.215  0.00  0.00    +0.011 C 
ATOM     13  C   UNL     1      33.691 -14.819 -20.910  0.00  0.00    +0.107 C 
ATOM     14  C   UNL     1      34.275 -15.441 -22.003  0.00  0.00    +0.054 C 
ATOM     15  H   UNL     1      31.648  -9.504 -22.669  0.00  0.00    +0.151 HD
ATOM     16  H   UNL     1      32.599 -11.263 -23.128  0.00  0.00    +0.158 HD
ENDBRANCH   2   6
BRANCH   1  18
ATOM     17  F   UNL     1      33.713  -6.661 -20.595  0.00  0.00    -0.204 F 
ATOM     18  C   UNL     1      31.971  -6.841 -22.198  0.00  0.00    +0.040 C 
ATOM     19  C   UNL     1      31.543  -6.714 -23.519  0.00  0.00    +0.134 C 
ATOM     20  C   UNL     1      33.291  -6.544 -21.861  0.00  0.00    +0.139 C 
ATOM     21  C   UNL     1      32.436  -6.291 -24.505  0.00  0.00    +0.068 C 
ATOM     22  C   UNL     1      34.185  -6.121 -22.847  0.00  0.00    +0.030 C 
ATOM     23  C   UNL     1      33.756  -5.995 -24.168  0.00  0.00    +0.008 C 
BRANCH  19  24
ATOM     24  O   UNL     1      30.250  -7.003 -23.848  0.00  0.00    -0.506 OA
ATOM     25  H   UNL     1      29.831  -6.540 -24.546  0.00  0.00    +0.292 HD
ENDBRANCH  19  24
BRANCH  21  27
ATOM     26  O   UNL     1      31.209  -6.964 -26.395  0.00  0.00    -0.291 OA
ATOM     27  C   UNL     1      32.010  -6.153 -25.891  0.00  0.00    +0.176 C 
BRANCH  27  28
ATOM     28  C   UNL     1      32.552  -4.995 -26.746  0.00  0.00    +0.069 C 
ATOM     29  C   UNL     1      33.180  -5.450 -28.054  0.00  0.00    +0.009 C 
ENDBRANCH  27  28
ENDBRANCH  21  27
ENDBRANCH   1  18
TORSDOF 5
ENDMDL
MODEL 4
REMARK VINA RESULT:      -9.6      5.768      8.957
REMARK  Name = 445332
REMARK  5 active torsions:
REMARK  status: ('A' for Active; 'I' for Inactive)
REMARK    1  A    between atoms: C_1  and  C_18
REMARK    2  A    between atoms: C_2  and  N_6
REMARK    3  A    between atoms: C_19  and  O_24
REMARK    4  A    between atoms: C_21  and  C_27
REMARK    5  A    between atoms: C_27  and  C_28
REMARK                            x       y       z     vdW  Elec       q    Type
REMARK                         _______ _______ _______ _____ _____    ______ ____
ROOT
ATOM      1  C   UNL     1      33.385 -24.178 -13.112  0.00  0.00    +0.047 C 
ATOM      2  C   UNL     1      32.871 -23.609 -14.396  0.00  0.00    +0.078 C 
ATOM      3  C   UNL     1      32.804 -25.087 -14.148  0.00  0.00    +0.026 C 
ENDROOT
BRANCH   2   6
ATOM      4 BR   UNL     1      34.331 -18.999 -22.508  0.00  0.00    -0.047 Br
ATOM      5  O   UNL     1      32.139 -22.243 -16.784  0.00  0.00    -0.252 OA
ATOM      6  N   UNL     1      33.765 -23.065 -15.362  0.00  0.00    -0.290 N 
ATOM      7  N   UNL     1      34.419 -21.974 -17.285  0.00  0.00    -0.254 N 
ATOM      8  N   UNL     1      33.197 -20.964 -19.041  0.00  0.00    -0.228 NA
ATOM      9  C   UNL     1      33.330 -22.401 -16.522  0.00  0.00    +0.305 C 
ATOM     10  C   UNL     1      34.396 -21.274 -18.514  0.00  0.00    +0.135 C 
ATOM     11  C   UNL     1      35.615 -20.961 -19.077  0.00  0.00    +0.035 C 
ATOM     12  C   UNL     1      35.603 -20.273 -20.285  0.00  0.00    +0.011 C 
ATOM     13  C   UNL     1      33.226 -20.296 -20.216  0.00  0.00    +0.107 C 
ATOM     14  C   UNL     1      34.390 -19.930 -20.873  0.00  0.00    +0.054 C 
ATOM     15  H   UNL     1      34.733 -23.159 -15.211  0.00  0.00    +0.151 HD
ATOM     16  H   UNL     1      35.309 -22.185 -16.924  0.00  0.00    +0.158 HD
ENDBRANCH   2   6
BRANCH   1  18
ATOM     17  F   UNL     1      34.592 -22.687 -11.058  0.00  0.00    -0.204 F 
ATOM     18  C   UNL     1      34.857 -24.203 -12.866  0.00  0.00    +0.040 C 
ATOM     19  C   UNL     1      35.698 -24.981 -13.662  0.00  0.00    +0.134 C 
ATOM     20  C   UNL     1      35.390 -23.437 -11.829  0.00  0.00    +0.139 C 
ATOM     21  C   UNL     1      37.072 -24.993 -13.421  0.00  0.00    +0.068 C 
ATOM     22  C   UNL     1      36.765 -23.450 -11.587  0.00  0.00    +0.030 C 
ATOM     23  C   UNL     1      37.605 -24.228 -12.384  0.00  0.00    +0.008 C 
BRANCH  19  24
ATOM     24  O   UNL     1      35.176 -25.728 -14.678  0.00  0.00    -0.506 OA
ATOM     25  H   UNL     1      35.744 -26.234 -15.224  0.00  0.00    +0.292 HD
ENDBRANCH  19  24
BRANCH  21  27
ATOM     26  O   UNL     1      37.660 -26.961 -14.568  0.00  0.00    -0.291 OA
ATOM     27  C   UNL     1      37.969 -25.798 -14.240  0.00  0.00    +0.176 C 
BRANCH  27  28
ATOM     28  C   UNL     1      39.312 -25.212 -14.707  0.00  0.00    +0.069 C 
ATOM     29  C   UNL     1      40.518 -25.853 -14.038  0.00  0.00    +0.009 C 
ENDBRANCH  27  28
ENDBRANCH  21  27
ENDBRANCH   1  18
TORSDOF 5
ENDMDL
