MODEL 1
REMARK VINA RESULT:     -13.6      0.000      0.000
REMARK  Name = 24996872
REMARK  6 active torsions:
REMARK  status: ('A' for Active; 'I' for Inactive)
REMARK    1  A    between atoms: O_1  and  C_3
REMARK    2  A    between atoms: O_1  and  C_18
REMARK    3  A    between atoms: C_7  and  C_8
REMARK    4  A    between atoms: C_11  and  S_14
REMARK    5  A    between atoms: C_18  and  C_23
REMARK    6  A    between atoms: C_29  and  C_30
REMARK                            x       y       z     vdW  Elec       q    Type
REMARK                         _______ _______ _______ _____ _____    ______ ____
ROOT
ATOM      1  O   UNL     1      35.134 -18.236 -22.622  0.00  0.00    -0.474 OA
ENDROOT
BRANCH   1   3
ATOM      2  N   UNL     1      34.055 -14.966 -21.378  0.00  0.00    -0.241 NA
ATOM      3  C   UNL     1      34.609 -16.967 -22.617  0.00  0.00    +0.158 C 
ATOM      4  C   UNL     1      34.114 -16.391 -23.782  0.00  0.00    +0.040 C 
ATOM      5  C   UNL     1      34.557 -16.219 -21.451  0.00  0.00    +0.136 C 
ATOM      6  C   UNL     1      33.588 -15.104 -23.746  0.00  0.00    +0.022 C 
ATOM      7  C   UNL     1      33.583 -14.440 -22.530  0.00  0.00    +0.082 C 
BRANCH   7   8
ATOM      8  C   UNL     1      33.053 -13.102 -22.418  0.00  0.00    +0.018 C 
ATOM      9  C   UNL     1      32.199 -12.775 -21.364  0.00  0.00    +0.003 C 
ATOM     10  C   UNL     1      33.396 -12.134 -23.361  0.00  0.00    +0.003 C 
ATOM     11  C   UNL     1      32.031 -10.515 -22.200  0.00  0.00    +0.106 C 
ATOM     12  C   UNL     1      31.688 -11.482 -21.256  0.00  0.00    +0.018 C 
ATOM     13  C   UNL     1      32.886 -10.841 -23.254  0.00  0.00    +0.018 C 
BRANCH  11  14
ATOM     14  S   UNL     1      31.392  -8.896 -22.064  0.00  0.00    +0.010 S 
ATOM     15  O   UNL     1      30.206  -8.810 -22.906  0.00  0.00    -0.169 OA
ATOM     16  O   UNL     1      31.304  -8.539 -20.655  0.00  0.00    -0.169 OA
ATOM     17  C   UNL     1      32.648  -7.862 -22.784  0.00  0.00    +0.182 C 
ENDBRANCH  11  14
ENDBRANCH   7   8
ENDBRANCH   1   3
BRANCH   1  18
ATOM     18  C   UNL     1      35.766 -18.675 -21.434  0.00  0.00    +0.205 C 
BRANCH  18  23
ATOM     19  O   UNL     1      33.557 -22.485 -16.784  0.00  0.00    -0.296 OA
ATOM     20  N   UNL     1      33.549 -21.212 -18.749  0.00  0.00    -0.251 N 
ATOM     21  N   UNL     1      31.534 -22.088 -17.660  0.00  0.00    -0.300 NA
ATOM     22  N   UNL     1      32.634 -23.112 -15.935  0.00  0.00    -0.010 NA
ATOM     23  C   UNL     1      34.974 -19.854 -20.872  0.00  0.00    +0.047 C 
ATOM     24  C   UNL     1      33.576 -19.409 -20.428  0.00  0.00    +0.025 C 
ATOM     25  C   UNL     1      35.708 -20.489 -19.686  0.00  0.00    +0.025 C 
ATOM     26  C   UNL     1      32.785 -20.571 -19.828  0.00  0.00    +0.096 C 
ATOM     27  C   UNL     1      34.910 -21.644 -19.083  0.00  0.00    +0.096 C 
ATOM     28  C   UNL     1      32.826 -21.906 -17.772  0.00  0.00    +0.379 C 
ATOM     29  C   UNL     1      31.465 -22.832 -16.518  0.00  0.00    +0.104 C 
BRANCH  29  30
ATOM     30  C   UNL     1      30.190 -23.296 -15.964  0.00  0.00    +0.101 C 
ATOM     31  C   UNL     1      30.260 -23.613 -14.447  0.00  0.00    +0.017 C 
ATOM     32  C   UNL     1      29.017 -22.316 -16.215  0.00  0.00    +0.017 C 
ENDBRANCH  29  30
ENDBRANCH  18  23
ENDBRANCH   1  18
TORSDOF 6
ENDMDL
MODEL 2
REMARK VINA RESULT:     -13.3      4.190     11.289
REMARK  Name = 24996872
REMARK  6 active torsions:
REMARK  status: ('A' for Active; 'I' for Inactive)
REMARK    1  A    between atoms: O_1  and  C_3
REMARK    2  A    between atoms: O_1  and  C_18
REMARK    3  A    between atoms: C_7  and  C_8
REMARK    4  A    between atoms: C_11  and  S_14
REMARK    5  A    between atoms: C_18  and  C_23
REMARK    6  A    between atoms: C_29  and  C_30
REMARK                            x       y       z     vdW  Elec       q    Type
REMARK                         _______ _______ _______ _____ _____    ______ ____
ROOT
ATOM      1  O   UNL     1      34.097 -18.702 -22.009  0.00  0.00    -0.474 OA
ENDROOT
BRANCH   1   3
ATOM      2  N   UNL     1      35.973 -20.201 -19.245  0.00  0.00    -0.241 NA
ATOM      3  C   UNL     1      34.365 -19.445 -20.885  0.00  0.00    +0.158 C 
ATOM      4  C   UNL     1      33.365 -20.174 -20.253  0.00  0.00    +0.040 C 
ATOM      5  C   UNL     1      35.641 -19.491 -20.347  0.00  0.00    +0.136 C 
ATOM      6  C   UNL     1      33.667 -20.918 -19.117  0.00  0.00    +0.022 C 
ATOM      7  C   UNL     1      34.974 -20.897 -18.657  0.00  0.00    +0.082 C 
BRANCH   7   8
ATOM      8  C   UNL     1      35.360 -21.645 -17.484  0.00  0.00    +0.018 C 
ATOM      9  C   UNL     1      34.420 -22.432 -16.817  0.00  0.00    +0.003 C 
ATOM     10  C   UNL     1      36.672 -21.581 -17.017  0.00  0.00    +0.003 C 
ATOM     11  C   UNL     1      36.107 -23.090 -15.217  0.00  0.00    +0.106 C 
ATOM     12  C   UNL     1      34.794 -23.154 -15.684  0.00  0.00    +0.018 C 
ATOM     13  C   UNL     1      37.046 -22.302 -15.883  0.00  0.00    +0.018 C 
BRANCH  11  14
ATOM     14  S   UNL     1      36.575 -23.993 -13.799  0.00  0.00    +0.010 S 
ATOM     15  O   UNL     1      36.180 -25.381 -14.000  0.00  0.00    -0.169 OA
ATOM     16  O   UNL     1      37.958 -23.676 -13.471  0.00  0.00    -0.169 OA
ATOM     17  C   UNL     1      35.567 -23.323 -12.495  0.00  0.00    +0.182 C 
ENDBRANCH  11  14
ENDBRANCH   7   8
ENDBRANCH   1   3
BRANCH   1  18
ATOM     18  C   UNL     1      35.185 -18.019 -22.603  0.00  0.00    +0.205 C 
BRANCH  18  23
ATOM     19  O   UNL     1      31.929 -12.522 -23.047  0.00  0.00    -0.296 OA
ATOM     20  N   UNL     1      33.298 -14.178 -22.115  0.00  0.00    -0.251 N 
ATOM     21  N   UNL     1      32.330 -12.311 -20.853  0.00  0.00    -0.300 NA
ATOM     22  N   UNL     1      31.241 -11.373 -22.633  0.00  0.00    -0.010 NA
ATOM     23  C   UNL     1      34.975 -16.518 -22.417  0.00  0.00    +0.047 C 
ATOM     24  C   UNL     1      34.221 -16.231 -21.114  0.00  0.00    +0.025 C 
ATOM     25  C   UNL     1      34.199 -15.925 -23.598  0.00  0.00    +0.025 C 
ATOM     26  C   UNL     1      33.970 -14.734 -20.933  0.00  0.00    +0.096 C 
ATOM     27  C   UNL     1      33.941 -14.430 -23.409  0.00  0.00    +0.096 C 
ATOM     28  C   UNL     1      32.542 -13.012 -21.938  0.00  0.00    +0.379 C 
ATOM     29  C   UNL     1      31.527 -11.316 -21.329  0.00  0.00    +0.104 C 
BRANCH  29  30
ATOM     30  C   UNL     1      31.007 -10.251 -20.466  0.00  0.00    +0.101 C 
ATOM     31  C   UNL     1      31.614 -10.266 -19.039  0.00  0.00    +0.017 C 
ATOM     32  C   UNL     1      31.180  -8.833 -21.068  0.00  0.00    +0.017 C 
ENDBRANCH  29  30
ENDBRANCH  18  23
ENDBRANCH   1  18
TORSDOF 6
ENDMDL
MODEL 3
REMARK VINA RESULT:     -13.0      2.003      2.543
REMARK  Name = 24996872
REMARK  6 active torsions:
REMARK  status: ('A' for Active; 'I' for Inactive)
REMARK    1  A    between atoms: O_1  and  C_3
REMARK    2  A    between atoms: O_1  and  C_18
REMARK    3  A    between atoms: C_7  and  C_8
REMARK    4  A    between atoms: C_11  and  S_14
REMARK    5  A    between atoms: C_18  and  C_23
REMARK    6  A    between atoms: C_29  and  C_30
REMARK                            x       y       z     vdW  Elec       q    Type
REMARK                         _______ _______ _______ _____ _____    ______ ____
ROOT
ATOM      1  O   UNL     1      34.936 -17.640 -21.985  0.00  0.00    -0.474 OA
ENDROOT
BRANCH   1   3
ATOM      2  N   UNL     1      33.678 -14.471 -23.320  0.00  0.00    -0.241 NA
ATOM      3  C   UNL     1      34.440 -16.360 -22.016  0.00  0.00    +0.158 C 
ATOM      4  C   UNL     1      34.195 -15.657 -20.842  0.00  0.00    +0.040 C 
ATOM      5  C   UNL     1      34.167 -15.727 -23.219  0.00  0.00    +0.136 C 
ATOM      6  C   UNL     1      33.693 -14.362 -20.905  0.00  0.00    +0.022 C 
ATOM      7  C   UNL     1      33.453 -13.819 -22.157  0.00  0.00    +0.082 C 
BRANCH   7   8
ATOM      8  C   UNL     1      32.932 -12.481 -22.300  0.00  0.00    +0.018 C 
ATOM      9  C   UNL     1      31.939 -12.023 -21.433  0.00  0.00    +0.003 C 
ATOM     10  C   UNL     1      33.421 -11.645 -23.302  0.00  0.00    +0.003 C 
ATOM     11  C   UNL     1      31.925  -9.893 -22.574  0.00  0.00    +0.106 C 
ATOM     12  C   UNL     1      31.436 -10.729 -21.571  0.00  0.00    +0.018 C 
ATOM     13  C   UNL     1      32.918 -10.351 -23.441  0.00  0.00    +0.018 C 
BRANCH  11  14
ATOM     14  S   UNL     1      31.296  -8.274 -22.746  0.00  0.00    +0.010 S 
ATOM     15  O   UNL     1      32.174  -7.545 -23.652  0.00  0.00    -0.169 OA
ATOM     16  O   UNL     1      29.869  -8.349 -23.029  0.00  0.00    -0.169 OA
ATOM     17  C   UNL     1      31.466  -7.558 -21.127  0.00  0.00    +0.182 C 
ENDBRANCH  11  14
ENDBRANCH   7   8
ENDBRANCH   1   3
BRANCH   1  18
ATOM     18  C   UNL     1      34.014 -18.693 -22.198  0.00  0.00    +0.205 C 
BRANCH  18  23
ATOM     19  O   UNL     1      36.508 -21.388 -16.951  0.00  0.00    -0.296 OA
ATOM     20  N   UNL     1      35.006 -21.016 -18.710  0.00  0.00    -0.251 N 
ATOM     21  N   UNL     1      34.537 -22.437 -16.766  0.00  0.00    -0.300 NA
ATOM     22  N   UNL     1      36.558 -22.104 -15.747  0.00  0.00    -0.010 NA
ATOM     23  C   UNL     1      34.396 -19.861 -21.293  0.00  0.00    +0.047 C 
ATOM     24  C   UNL     1      33.304 -20.121 -20.249  0.00  0.00    +0.025 C 
ATOM     25  C   UNL     1      35.726 -19.591 -20.584  0.00  0.00    +0.025 C 
ATOM     26  C   UNL     1      33.689 -21.265 -19.311  0.00  0.00    +0.096 C 
ATOM     27  C   UNL     1      36.104 -20.733 -19.640  0.00  0.00    +0.096 C 
ATOM     28  C   UNL     1      35.284 -21.639 -17.486  0.00  0.00    +0.379 C 
ATOM     29  C   UNL     1      35.360 -22.695 -15.710  0.00  0.00    +0.104 C 
BRANCH  29  30
ATOM     30  C   UNL     1      34.958 -23.566 -14.601  0.00  0.00    +0.101 C 
ATOM     31  C   UNL     1      33.421 -23.652 -14.413  0.00  0.00    +0.017 C 
ATOM     32  C   UNL     1      35.529 -25.003 -14.710  0.00  0.00    +0.017 C 
ENDBRANCH  29  30
ENDBRANCH  18  23
ENDBRANCH   1  18
TORSDOF 6
ENDMDL
MODEL 4
REMARK VINA RESULT:     -12.9      2.102      2.707
REMARK  Name = 24996872
REMARK  6 active torsions:
REMARK  status: ('A' for Active; 'I' for Inactive)
REMARK    1  A    between atoms: O_1  and  C_3
REMARK    2  A    between atoms: O_1  and  C_18
REMARK    3  A    between atoms: C_7  and  C_8
REMARK    4  A    between atoms: C_11  and  S_14
REMARK    5  A    between atoms: C_18  and  C_23
REMARK    6  A    between atoms: C_29  and  C_30
REMARK                            x       y       z     vdW  Elec       q    Type
REMARK                         _______ _______ _______ _____ _____    ______ ____
ROOT
ATOM      1  O   UNL     1      35.290 -18.386 -22.304  0.00  0.00    -0.474 OA
ENDROOT
BRANCH   1   3
ATOM      2  N   UNL     1      34.082 -15.136 -21.128  0.00  0.00    -0.241 NA
ATOM      3  C   UNL     1      34.753 -17.122 -22.332  0.00  0.00    +0.158 C 
ATOM      4  C   UNL     1      34.342 -16.545 -23.528  0.00  0.00    +0.040 C 
ATOM      5  C   UNL     1      34.603 -16.383 -21.170  0.00  0.00    +0.136 C 
ATOM      6  C   UNL     1      33.801 -15.264 -23.526  0.00  0.00    +0.022 C 
ATOM      7  C   UNL     1      33.694 -14.608 -22.310  0.00  0.00    +0.082 C 
BRANCH   7   8
ATOM      8  C   UNL     1      33.142 -13.276 -22.231  0.00  0.00    +0.018 C 
ATOM      9  C   UNL     1      32.343 -12.915 -21.146  0.00  0.00    +0.003 C 
ATOM     10  C   UNL     1      33.409 -12.349 -23.239  0.00  0.00    +0.003 C 
ATOM     11  C   UNL     1      32.077 -10.701 -22.078  0.00  0.00    +0.106 C 
ATOM     12  C   UNL     1      31.810 -11.628 -21.071  0.00  0.00    +0.018 C 
ATOM     13  C   UNL     1      32.877 -11.063 -23.163  0.00  0.00    +0.018 C 
BRANCH  11  14
ATOM     14  S   UNL     1      31.411  -9.091 -21.984  0.00  0.00    +0.010 S 
ATOM     15  O   UNL     1      32.422  -8.158 -22.463  0.00  0.00    -0.169 OA
ATOM     16  O   UNL     1      30.085  -9.092 -22.586  0.00  0.00    -0.169 OA
ATOM     17  C   UNL     1      31.188  -8.806 -20.242  0.00  0.00    +0.182 C 
ENDBRANCH  11  14
ENDBRANCH   7   8
ENDBRANCH   1   3
BRANCH   1  18
ATOM     18  C   UNL     1      34.398 -19.460 -22.071  0.00  0.00    +0.205 C 
BRANCH  18  23
ATOM     19  O   UNL     1      33.498 -23.135 -16.904  0.00  0.00    -0.296 OA
ATOM     20  N   UNL     1      34.511 -21.563 -18.314  0.00  0.00    -0.251 N 
ATOM     21  N   UNL     1      35.578 -22.534 -16.331  0.00  0.00    -0.300 NA
ATOM     22  N   UNL     1      33.809 -23.860 -15.746  0.00  0.00    -0.010 NA
ATOM     23  C   UNL     1      34.379 -19.759 -20.574  0.00  0.00    +0.047 C 
ATOM     24  C   UNL     1      35.699 -20.399 -20.130  0.00  0.00    +0.025 C 
ATOM     25  C   UNL     1      33.216 -20.690 -20.218  0.00  0.00    +0.025 C 
ATOM     26  C   UNL     1      35.682 -20.739 -18.641  0.00  0.00    +0.096 C 
ATOM     27  C   UNL     1      33.207 -21.035 -18.728  0.00  0.00    +0.096 C 
ATOM     28  C   UNL     1      34.594 -22.381 -17.180  0.00  0.00    +0.379 C 
ATOM     29  C   UNL     1      35.051 -23.452 -15.470  0.00  0.00    +0.104 C 
BRANCH  29  30
ATOM     30  C   UNL     1      35.797 -23.959 -14.314  0.00  0.00    +0.101 C 
ATOM     31  C   UNL     1      36.710 -25.165 -14.655  0.00  0.00    +0.017 C 
ATOM     32  C   UNL     1      36.647 -22.874 -13.607  0.00  0.00    +0.017 C 
ENDBRANCH  29  30
ENDBRANCH  18  23
ENDBRANCH   1  18
TORSDOF 6
ENDMDL
MODEL 5
REMARK VINA RESULT:     -12.4      3.844     11.053
REMARK  Name = 24996872
REMARK  6 active torsions:
REMARK  status: ('A' for Active; 'I' for Inactive)
REMARK    1  A    between atoms: O_1  and  C_3
REMARK    2  A    between atoms: O_1  and  C_18
REMARK    3  A    between atoms: C_7  and  C_8
REMARK    4  A    between atoms: C_11  and  S_14
REMARK    5  A    between atoms: C_18  and  C_23
REMARK    6  A    between atoms: C_29  and  C_30
REMARK                            x       y       z     vdW  Elec       q    Type
REMARK                         _______ _______ _______ _____ _____    ______ ____
ROOT
ATOM      1  O   UNL     1      35.547 -17.544 -22.921  0.00  0.00    -0.474 OA
ENDROOT
BRANCH   1   3
ATOM      2  N   UNL     1      34.165 -19.900 -20.483  0.00  0.00    -0.241 NA
ATOM      3  C   UNL     1      35.476 -18.385 -21.838  0.00  0.00    +0.158 C 
ATOM      4  C   UNL     1      36.576 -18.589 -21.014  0.00  0.00    +0.040 C 
ATOM      5  C   UNL     1      34.303 -19.059 -21.533  0.00  0.00    +0.136 C 
ATOM      6  C   UNL     1      36.474 -19.447 -19.924  0.00  0.00    +0.022 C 
ATOM      7  C   UNL     1      35.257 -20.073 -19.705  0.00  0.00    +0.082 C 
BRANCH   7   8
ATOM      8  C   UNL     1      35.077 -20.976 -18.594  0.00  0.00    +0.018 C 
ATOM      9  C   UNL     1      36.089 -21.127 -17.646  0.00  0.00    +0.003 C 
ATOM     10  C   UNL     1      33.891 -21.699 -18.467  0.00  0.00    +0.003 C 
ATOM     11  C   UNL     1      34.728 -22.723 -16.446  0.00  0.00    +0.106 C 
ATOM     12  C   UNL     1      35.914 -22.001 -16.573  0.00  0.00    +0.018 C 
ATOM     13  C   UNL     1      33.715 -22.572 -17.394  0.00  0.00    +0.018 C 
BRANCH  11  14
ATOM     14  S   UNL     1      34.509 -23.815 -15.103  0.00  0.00    +0.010 S 
ATOM     15  O   UNL     1      33.095 -23.818 -14.752  0.00  0.00    -0.169 OA
ATOM     16  O   UNL     1      35.181 -25.073 -15.402  0.00  0.00    -0.169 OA
ATOM     17  C   UNL     1      35.402 -23.056 -13.765  0.00  0.00    +0.182 C 
ENDBRANCH  11  14
ENDBRANCH   7   8
ENDBRANCH   1   3
BRANCH   1  18
ATOM     18  C   UNL     1      34.325 -17.037 -23.425  0.00  0.00    +0.205 C 
BRANCH  18  23
ATOM     19  O   UNL     1      31.318 -11.427 -22.717  0.00  0.00    -0.296 OA
ATOM     20  N   UNL     1      32.756 -13.209 -22.226  0.00  0.00    -0.251 N 
ATOM     21  N   UNL     1      32.137 -11.451 -20.632  0.00  0.00    -0.300 NA
ATOM     22  N   UNL     1      30.778 -10.305 -22.073  0.00  0.00    -0.010 NA
ATOM     23  C   UNL     1      34.228 -15.557 -23.063  0.00  0.00    +0.047 C 
ATOM     24  C   UNL     1      33.749 -15.380 -21.618  0.00  0.00    +0.025 C 
ATOM     25  C   UNL     1      33.273 -14.825 -24.011  0.00  0.00    +0.025 C 
ATOM     26  C   UNL     1      33.610 -13.903 -21.252  0.00  0.00    +0.096 C 
ATOM     27  C   UNL     1      33.130 -13.349 -23.637  0.00  0.00    +0.096 C 
ATOM     28  C   UNL     1      32.105 -12.045 -21.798  0.00  0.00    +0.379 C 
ATOM     29  C   UNL     1      31.308 -10.389 -20.849  0.00  0.00    +0.104 C 
BRANCH  29  30
ATOM     30  C   UNL     1      31.013  -9.401 -19.807  0.00  0.00    +0.101 C 
ATOM     31  C   UNL     1      31.549  -9.806 -18.409  0.00  0.00    +0.017 C 
ATOM     32  C   UNL     1      31.527  -7.979 -20.146  0.00  0.00    +0.017 C 
ENDBRANCH  29  30
ENDBRANCH  18  23
ENDBRANCH   1  18
TORSDOF 6
ENDMDL
MODEL 6
REMARK VINA RESULT:     -12.4      3.638     11.292
REMARK  Name = 24996872
REMARK  6 active torsions:
REMARK  status: ('A' for Active; 'I' for Inactive)
REMARK    1  A    between atoms: O_1  and  C_3
REMARK    2  A    between atoms: O_1  and  C_18
REMARK    3  A    between atoms: C_7  and  C_8
REMARK    4  A    between atoms: C_11  and  S_14
REMARK    5  A    between atoms: C_18  and  C_23
REMARK    6  A    between atoms: C_29  and  C_30
REMARK                            x       y       z     vdW  Elec       q    Type
REMARK                         _______ _______ _______ _____ _____    ______ ____
ROOT
ATOM      1  O   UNL     1      34.549 -16.106 -24.201  0.00  0.00    -0.474 OA
ENDROOT
BRANCH   1   3
ATOM      2  N   UNL     1      34.714 -17.860 -20.991  0.00  0.00    -0.241 NA
ATOM      3  C   UNL     1      34.388 -17.096 -23.262  0.00  0.00    +0.158 C 
ATOM      4  C   UNL     1      33.767 -18.296 -23.585  0.00  0.00    +0.040 C 
ATOM      5  C   UNL     1      34.840 -16.928 -21.963  0.00  0.00    +0.136 C 
ATOM      6  C   UNL     1      33.619 -19.280 -22.614  0.00  0.00    +0.022 C 
ATOM      7  C   UNL     1      34.104 -19.015 -21.343  0.00  0.00    +0.082 C 
BRANCH   7   8
ATOM      8  C   UNL     1      33.985 -19.989 -20.285  0.00  0.00    +0.018 C 
ATOM      9  C   UNL     1      35.132 -20.521 -19.694  0.00  0.00    +0.003 C 
ATOM     10  C   UNL     1      32.724 -20.397 -19.851  0.00  0.00    +0.003 C 
ATOM     11  C   UNL     1      33.755 -21.870 -18.237  0.00  0.00    +0.106 C 
ATOM     12  C   UNL     1      35.016 -21.462 -18.671  0.00  0.00    +0.018 C 
ATOM     13  C   UNL     1      32.608 -21.338 -18.828  0.00  0.00    +0.018 C 
BRANCH  11  14
ATOM     14  S   UNL     1      33.610 -23.048 -16.957  0.00  0.00    +0.010 S 
ATOM     15  O   UNL     1      33.132 -24.293 -17.544  0.00  0.00    -0.169 OA
ATOM     16  O   UNL     1      34.836 -23.044 -16.170  0.00  0.00    -0.169 OA
ATOM     17  C   UNL     1      32.321 -22.408 -15.911  0.00  0.00    +0.182 C 
ENDBRANCH  11  14
ENDBRANCH   7   8
ENDBRANCH   1   3
BRANCH   1  18
ATOM     18  C   UNL     1      33.394 -15.377 -24.572  0.00  0.00    +0.205 C 
BRANCH  18  23
ATOM     19  O   UNL     1      31.478  -9.345 -23.588  0.00  0.00    -0.296 OA
ATOM     20  N   UNL     1      32.488 -11.412 -23.151  0.00  0.00    -0.251 N 
ATOM     21  N   UNL     1      32.071  -9.690 -21.456  0.00  0.00    -0.300 NA
ATOM     22  N   UNL     1      31.106  -8.190 -22.888  0.00  0.00    -0.010 NA
ATOM     23  C   UNL     1      33.551 -13.939 -24.082  0.00  0.00    +0.047 C 
ATOM     24  C   UNL     1      32.978 -13.778 -22.670  0.00  0.00    +0.025 C 
ATOM     25  C   UNL     1      32.853 -12.960 -25.032  0.00  0.00    +0.025 C 
ATOM     26  C   UNL     1      33.093 -12.335 -22.181  0.00  0.00    +0.096 C 
ATOM     27  C   UNL     1      32.963 -11.518 -24.535  0.00  0.00    +0.096 C 
ATOM     28  C   UNL     1      32.037 -10.177 -22.671  0.00  0.00    +0.379 C 
ATOM     29  C   UNL     1      31.488  -8.470 -21.639  0.00  0.00    +0.104 C 
BRANCH  29  30
ATOM     30  C   UNL     1      31.292  -7.524 -20.536  0.00  0.00    +0.101 C 
ATOM     31  C   UNL     1      31.354  -8.191 -19.137  0.00  0.00    +0.017 C 
ATOM     32  C   UNL     1      32.281  -6.332 -20.565  0.00  0.00    +0.017 C 
ENDBRANCH  29  30
ENDBRANCH  18  23
ENDBRANCH   1  18
TORSDOF 6
ENDMDL
MODEL 7
REMARK VINA RESULT:     -11.9      1.613      2.434
REMARK  Name = 24996872
REMARK  6 active torsions:
REMARK  status: ('A' for Active; 'I' for Inactive)
REMARK    1  A    between atoms: O_1  and  C_3
REMARK    2  A    between atoms: O_1  and  C_18
REMARK    3  A    between atoms: C_7  and  C_8
REMARK    4  A    between atoms: C_11  and  S_14
REMARK    5  A    between atoms: C_18  and  C_23
REMARK    6  A    between atoms: C_29  and  C_30
REMARK                            x       y       z     vdW  Elec       q    Type
REMARK                         _______ _______ _______ _____ _____    ______ ____
ROOT
ATOM      1  O   UNL     1      34.517 -17.777 -23.505  0.00  0.00    -0.474 OA
ENDROOT
BRANCH   1   3
ATOM      2  N   UNL     1      33.106 -14.437 -24.016  0.00  0.00    -0.241 NA
ATOM      3  C   UNL     1      34.152 -16.478 -23.249  0.00  0.00    +0.158 C 
ATOM      4  C   UNL     1      34.430 -15.884 -22.024  0.00  0.00    +0.040 C 
ATOM      5  C   UNL     1      33.493 -15.719 -24.203  0.00  0.00    +0.136 C 
ATOM      6  C   UNL     1      34.049 -14.566 -21.793  0.00  0.00    +0.022 C 
ATOM      7  C   UNL     1      33.394 -13.893 -22.812  0.00  0.00    +0.082 C 
BRANCH   7   8
ATOM      8  C   UNL     1      32.968 -12.524 -22.644  0.00  0.00    +0.018 C 
ATOM      9  C   UNL     1      33.454 -11.532 -23.497  0.00  0.00    +0.003 C 
ATOM     10  C   UNL     1      32.071 -12.193 -21.630  0.00  0.00    +0.003 C 
ATOM     11  C   UNL     1      32.143  -9.879 -22.319  0.00  0.00    +0.106 C 
ATOM     12  C   UNL     1      33.041 -10.210 -23.333  0.00  0.00    +0.018 C 
ATOM     13  C   UNL     1      31.658 -10.870 -21.466  0.00  0.00    +0.018 C 
BRANCH  11  14
ATOM     14  S   UNL     1      31.628  -8.224 -22.115  0.00  0.00    +0.010 S 
ATOM     15  O   UNL     1      30.962  -8.117 -20.824  0.00  0.00    -0.169 OA
ATOM     16  O   UNL     1      32.742  -7.339 -22.428  0.00  0.00    -0.169 OA
ATOM     17  C   UNL     1      30.403  -7.983 -23.382  0.00  0.00    +0.182 C 
ENDBRANCH  11  14
ENDBRANCH   7   8
ENDBRANCH   1   3
BRANCH   1  18
ATOM     18  C   UNL     1      35.604 -18.298 -22.762  0.00  0.00    +0.205 C 
BRANCH  18  23
ATOM     19  O   UNL     1      32.718 -22.265 -18.645  0.00  0.00    -0.296 OA
ATOM     20  N   UNL     1      34.299 -20.744 -19.466  0.00  0.00    -0.251 N 
ATOM     21  N   UNL     1      34.578 -22.059 -17.414  0.00  0.00    -0.300 NA
ATOM     22  N   UNL     1      32.566 -23.138 -17.560  0.00  0.00    -0.010 NA
ATOM     23  C   UNL     1      35.090 -18.733 -21.392  0.00  0.00    +0.047 C 
ATOM     24  C   UNL     1      36.121 -19.613 -20.678  0.00  0.00    +0.025 C 
ATOM     25  C   UNL     1      33.769 -19.498 -21.523  0.00  0.00    +0.025 C 
ATOM     26  C   UNL     1      35.605 -20.088 -19.320  0.00  0.00    +0.096 C 
ATOM     27  C   UNL     1      33.260 -19.979 -20.164  0.00  0.00    +0.096 C 
ATOM     28  C   UNL     1      33.928 -21.670 -18.483  0.00  0.00    +0.379 C 
ATOM     29  C   UNL     1      33.703 -22.959 -16.881  0.00  0.00    +0.104 C 
BRANCH  29  30
ATOM     30  C   UNL     1      33.990 -23.687 -15.641  0.00  0.00    +0.101 C 
ATOM     31  C   UNL     1      35.386 -23.365 -15.048  0.00  0.00    +0.017 C 
ATOM     32  C   UNL     1      32.919 -23.473 -14.541  0.00  0.00    +0.017 C 
ENDBRANCH  29  30
ENDBRANCH  18  23
ENDBRANCH   1  18
TORSDOF 6
ENDMDL
MODEL 8
REMARK VINA RESULT:     -11.8      2.297      3.805
REMARK  Name = 24996872
REMARK  6 active torsions:
REMARK  status: ('A' for Active; 'I' for Inactive)
REMARK    1  A    between atoms: O_1  and  C_3
REMARK    2  A    between atoms: O_1  and  C_18
REMARK    3  A    between atoms: C_7  and  C_8
REMARK    4  A    between atoms: C_11  and  S_14
REMARK    5  A    between atoms: C_18  and  C_23
REMARK    6  A    between atoms: C_29  and  C_30
REMARK                            x       y       z     vdW  Elec       q    Type
REMARK                         _______ _______ _______ _____ _____    ______ ____
ROOT
ATOM      1  O   UNL     1      36.100 -21.106 -19.672  0.00  0.00    -0.474 OA
ENDROOT
BRANCH   1   3
ATOM      2  N   UNL     1      36.013 -17.643 -20.857  0.00  0.00    -0.241 NA
ATOM      3  C   UNL     1      35.621 -19.944 -20.224  0.00  0.00    +0.158 C 
ATOM      4  C   UNL     1      34.317 -19.860 -20.700  0.00  0.00    +0.040 C 
ATOM      5  C   UNL     1      36.422 -18.817 -20.325  0.00  0.00    +0.136 C 
ATOM      6  C   UNL     1      33.860 -18.669 -21.254  0.00  0.00    +0.022 C 
ATOM      7  C   UNL     1      34.739 -17.600 -21.309  0.00  0.00    +0.082 C 
BRANCH   7   8
ATOM      8  C   UNL     1      34.334 -16.334 -21.871  0.00  0.00    +0.018 C 
ATOM      9  C   UNL     1      34.176 -16.201 -23.251  0.00  0.00    +0.003 C 
ATOM     10  C   UNL     1      34.100 -15.243 -21.034  0.00  0.00    +0.003 C 
ATOM     11  C   UNL     1      33.550 -13.886 -22.956  0.00  0.00    +0.106 C 
ATOM     12  C   UNL     1      33.785 -14.977 -23.792  0.00  0.00    +0.018 C 
ATOM     13  C   UNL     1      33.708 -14.018 -21.576  0.00  0.00    +0.018 C 
BRANCH  11  14
ATOM     14  S   UNL     1      33.060 -12.354 -23.634  0.00  0.00    +0.010 S 
ATOM     15  O   UNL     1      34.080 -11.369 -23.301  0.00  0.00    -0.169 OA
ATOM     16  O   UNL     1      32.676 -12.554 -25.025  0.00  0.00    -0.169 OA
ATOM     17  C   UNL     1      31.579 -11.929 -22.744  0.00  0.00    +0.182 C 
ENDBRANCH  11  14
ENDBRANCH   7   8
ENDBRANCH   1   3
BRANCH   1  18
ATOM     18  C   UNL     1      36.309 -21.114 -18.271  0.00  0.00    +0.205 C 
BRANCH  18  23
ATOM     19  O   UNL     1      31.886 -22.871 -13.985  0.00  0.00    -0.296 OA
ATOM     20  N   UNL     1      32.939 -22.641 -16.064  0.00  0.00    -0.251 N 
ATOM     21  N   UNL     1      30.623 -23.390 -15.761  0.00  0.00    -0.300 NA
ATOM     22  N   UNL     1      30.637 -23.254 -13.478  0.00  0.00    -0.010 NA
ATOM     23  C   UNL     1      35.302 -22.071 -17.637  0.00  0.00    +0.047 C 
ATOM     24  C   UNL     1      33.892 -21.818 -18.182  0.00  0.00    +0.025 C 
ATOM     25  C   UNL     1      35.294 -21.923 -16.112  0.00  0.00    +0.025 C 
ATOM     26  C   UNL     1      32.866 -22.743 -17.528  0.00  0.00    +0.096 C 
ATOM     27  C   UNL     1      34.261 -22.844 -15.462  0.00  0.00    +0.096 C 
ATOM     28  C   UNL     1      31.792 -22.979 -15.336  0.00  0.00    +0.379 C 
ATOM     29  C   UNL     1      29.949 -23.544 -14.586  0.00  0.00    +0.104 C 
BRANCH  29  30
ATOM     30  C   UNL     1      28.556 -24.000 -14.538  0.00  0.00    +0.101 C 
ATOM     31  C   UNL     1      27.788 -23.768 -15.866  0.00  0.00    +0.017 C 
ATOM     32  C   UNL     1      28.410 -25.488 -14.130  0.00  0.00    +0.017 C 
ENDBRANCH  29  30
ENDBRANCH  18  23
ENDBRANCH   1  18
TORSDOF 6
ENDMDL
MODEL 9
REMARK VINA RESULT:     -11.8      5.084     13.841
REMARK  Name = 24996872
REMARK  6 active torsions:
REMARK  status: ('A' for Active; 'I' for Inactive)
REMARK    1  A    between atoms: O_1  and  C_3
REMARK    2  A    between atoms: O_1  and  C_18
REMARK    3  A    between atoms: C_7  and  C_8
REMARK    4  A    between atoms: C_11  and  S_14
REMARK    5  A    between atoms: C_18  and  C_23
REMARK    6  A    between atoms: C_29  and  C_30
REMARK                            x       y       z     vdW  Elec       q    Type
REMARK                         _______ _______ _______ _____ _____    ______ ____
ROOT
ATOM      1  O   UNL     1      30.903  -9.050 -22.255  0.00  0.00    -0.474 OA
ENDROOT
BRANCH   1   3
ATOM      2  N   UNL     1      31.948 -12.366 -21.109  0.00  0.00    -0.241 NA
ATOM      3  C   UNL     1      31.557 -10.257 -22.224  0.00  0.00    +0.158 C 
ATOM      4  C   UNL     1      32.462 -10.607 -23.219  0.00  0.00    +0.040 C 
ATOM      5  C   UNL     1      31.337 -11.163 -21.199  0.00  0.00    +0.136 C 
ATOM      6  C   UNL     1      33.111 -11.836 -23.161  0.00  0.00    +0.022 C 
ATOM      7  C   UNL     1      32.820 -12.672 -22.095  0.00  0.00    +0.082 C 
BRANCH   7   8
ATOM      8  C   UNL     1      33.455 -13.962 -21.969  0.00  0.00    +0.018 C 
ATOM      9  C   UNL     1      33.623 -14.538 -20.709  0.00  0.00    +0.003 C 
ATOM     10  C   UNL     1      33.899 -14.635 -23.107  0.00  0.00    +0.003 C 
ATOM     11  C   UNL     1      34.680 -16.457 -21.726  0.00  0.00    +0.106 C 
ATOM     12  C   UNL     1      34.236 -15.784 -20.589  0.00  0.00    +0.018 C 
ATOM     13  C   UNL     1      34.513 -15.882 -22.986  0.00  0.00    +0.018 C 
BRANCH  11  14
ATOM     14  S   UNL     1      35.448 -18.018 -21.575  0.00  0.00    +0.010 S 
ATOM     15  O   UNL     1      35.777 -18.488 -22.914  0.00  0.00    -0.169 OA
ATOM     16  O   UNL     1      36.491 -17.936 -20.562  0.00  0.00    -0.169 OA
ATOM     17  C   UNL     1      34.175 -19.075 -20.923  0.00  0.00    +0.182 C 
ENDBRANCH  11  14
ENDBRANCH   7   8
ENDBRANCH   1   3
BRANCH   1  18
ATOM     18  C   UNL     1      31.498  -7.976 -21.550  0.00  0.00    +0.205 C 
BRANCH  18  23
ATOM     19  O   UNL     1      35.033  -5.466 -26.264  0.00  0.00    -0.296 OA
ATOM     20  N   UNL     1      33.124  -6.016 -25.024  0.00  0.00    -0.251 N 
ATOM     21  N   UNL     1      33.081  -5.125 -27.309  0.00  0.00    -0.300 NA
ATOM     22  N   UNL     1      35.352  -4.962 -27.532  0.00  0.00    -0.010 NA
ATOM     23  C   UNL     1      31.897  -6.898 -22.555  0.00  0.00    +0.047 C 
ATOM     24  C   UNL     1      31.240  -7.153 -23.916  0.00  0.00    +0.025 C 
ATOM     25  C   UNL     1      33.418  -6.845 -22.724  0.00  0.00    +0.025 C 
ATOM     26  C   UNL     1      31.660  -6.103 -24.944  0.00  0.00    +0.096 C 
ATOM     27  C   UNL     1      33.834  -5.800 -23.759  0.00  0.00    +0.096 C 
ATOM     28  C   UNL     1      33.677  -5.531 -26.216  0.00  0.00    +0.379 C 
ATOM     29  C   UNL     1      34.149  -4.786 -28.087  0.00  0.00    +0.104 C 
BRANCH  29  30
ATOM     30  C   UNL     1      33.990  -4.262 -29.447  0.00  0.00    +0.101 C 
ATOM     31  C   UNL     1      32.796  -3.284 -29.593  0.00  0.00    +0.017 C 
ATOM     32  C   UNL     1      35.267  -3.575 -29.994  0.00  0.00    +0.017 C 
ENDBRANCH  29  30
ENDBRANCH  18  23
ENDBRANCH   1  18
TORSDOF 6
ENDMDL
