MODEL 1
REMARK VINA RESULT:     -10.4      0.000      0.000
REMARK  Name = 107994
REMARK  10 active torsions:
REMARK  status: ('A' for Active; 'I' for Inactive)
REMARK    1  A    between atoms: CA_1  and  C_10
REMARK    2  A    between atoms: CA_1  and  N_19
REMARK    3  A    between atoms: CA_5  and  C_16
REMARK    4  A    between atoms: C_16  and  O_17
REMARK    5  A    between atoms: N_19  and  CA_22
REMARK    6  A    between atoms: CA_22  and  C_24
REMARK    7  A    between atoms: CA_22  and  C_27
REMARK    8  A    between atoms: C_24  and  O_25
REMARK    9  A    between atoms: C_27  and  C_28
REMARK   10  A    between atoms: C_28  and  C_29
REMARK                            x       y       z     vdW  Elec       q    Type
REMARK                         _______ _______ _______ _____ _____    ______ ____
ROOT
ATOM      1  CA  UNL     1      31.753 -22.782 -13.949  0.00  0.00    +0.018 C 
ATOM      2  CB  UNL     1      30.592 -22.385 -13.062  0.00  0.00    -0.014 C 
ENDROOT
BRANCH   1  10
ATOM      3  O   UNL     1      32.036 -24.700 -12.582  0.00  0.00    -0.277 OA
ATOM      4  N   UNL     1      33.978 -23.748 -13.456  0.00  0.00    -0.269 N 
ATOM      5  CA  UNL     1      34.856 -24.608 -12.660  0.00  0.00    +0.179 C 
ATOM      6  C   UNL     1      36.028 -25.159 -13.464  0.00  0.00    +0.057 C 
ATOM      7  C   UNL     1      34.604 -22.698 -14.276  0.00  0.00    +0.120 C 
ATOM      8  C   UNL     1      36.715 -24.111 -14.297  0.00  0.00    -0.022 C 
ATOM      9  C   UNL     1      36.029 -22.954 -14.690  0.00  0.00    -0.006 C 
ATOM     10  C   UNL     1      32.592 -23.833 -13.261  0.00  0.00    +0.206 C 
ATOM     11  C   UNL     1      38.035 -24.315 -14.724  0.00  0.00    -0.004 C 
ATOM     12  C   UNL     1      36.686 -22.002 -15.485  0.00  0.00    -0.003 C 
ATOM     13  C   UNL     1      38.678 -23.365 -15.516  0.00  0.00    -0.000 C 
ATOM     14  C   UNL     1      38.004 -22.207 -15.894  0.00  0.00    -0.000 C 
BRANCH   5  16
ATOM     15  OXT UNL     1      35.787 -22.684 -11.522  0.00  0.00    -0.248 OA
ATOM     16  C   UNL     1      35.296 -23.802 -11.470  0.00  0.00    +0.332 C 
BRANCH  16  17
ATOM     17  O   UNL     1      35.077 -24.487 -10.321  0.00  0.00    -0.479 OA
ATOM     18  H   UNL     1      34.200 -24.655 -10.036  0.00  0.00    +0.295 HD
ENDBRANCH  16  17
ENDBRANCH   5  16
ENDBRANCH   1  10
BRANCH   1  19
ATOM     19  N   UNL     1      31.286 -23.367 -15.194  0.00  0.00    +0.399 N 
ATOM     20  H1  UNL     1      30.671 -24.152 -14.983  0.00  0.00    -0.083 HD
ATOM     21  H2  UNL     1      32.096 -23.680 -15.730  0.00  0.00    -0.083 HD
BRANCH  19  22
ATOM     22  CA  UNL     1      30.554 -22.389 -15.991  0.00  0.00    +0.041 C 
BRANCH  22  24
ATOM     23  OXT UNL     1      28.711 -23.934 -15.616  0.00  0.00    -0.253 OA
ATOM     24  C   UNL     1      29.126 -22.892 -16.106  0.00  0.00    +0.293 C 
BRANCH  24  25
ATOM     25  O   UNL     1      28.329 -22.040 -16.800  0.00  0.00    -0.482 OA
ATOM     26  H   UNL     1      28.709 -21.413 -17.384  0.00  0.00    +0.295 HD
ENDBRANCH  24  25
ENDBRANCH  22  24
BRANCH  22  27
ATOM     27  C   UNL     1      31.212 -22.269 -17.373  0.00  0.00    -0.006 C 
BRANCH  27  28
ATOM     28  C   UNL     1      32.735 -22.468 -17.374  0.00  0.00    +0.025 C 
BRANCH  28  29
ATOM     29  C   UNL     1      33.474 -21.643 -18.400  0.00  0.00    -0.022 C 
ATOM     30  C   UNL     1      34.866 -21.689 -18.462  0.00  0.00    -0.004 C 
ATOM     31  C   UNL     1      32.762 -20.836 -19.288  0.00  0.00    -0.004 C 
ATOM     32  C   UNL     1      35.548 -20.927 -19.410  0.00  0.00    -0.000 C 
ATOM     33  C   UNL     1      33.444 -20.075 -20.237  0.00  0.00    -0.000 C 
ATOM     34  C   UNL     1      34.837 -20.120 -20.298  0.00  0.00    -0.000 C 
ENDBRANCH  28  29
ENDBRANCH  27  28
ENDBRANCH  22  27
ENDBRANCH  19  22
ENDBRANCH   1  19
TORSDOF 10
ENDMDL
MODEL 2
REMARK VINA RESULT:     -10.2      1.339      2.128
REMARK  Name = 107994
REMARK  10 active torsions:
REMARK  status: ('A' for Active; 'I' for Inactive)
REMARK    1  A    between atoms: CA_1  and  C_10
REMARK    2  A    between atoms: CA_1  and  N_19
REMARK    3  A    between atoms: CA_5  and  C_16
REMARK    4  A    between atoms: C_16  and  O_17
REMARK    5  A    between atoms: N_19  and  CA_22
REMARK    6  A    between atoms: CA_22  and  C_24
REMARK    7  A    between atoms: CA_22  and  C_27
REMARK    8  A    between atoms: C_24  and  O_25
REMARK    9  A    between atoms: C_27  and  C_28
REMARK   10  A    between atoms: C_28  and  C_29
REMARK                            x       y       z     vdW  Elec       q    Type
REMARK                         _______ _______ _______ _____ _____    ______ ____
ROOT
ATOM      1  CA  UNL     1      33.450 -23.047 -14.448  0.00  0.00    +0.018 C 
ATOM      2  CB  UNL     1      34.501 -22.036 -14.856  0.00  0.00    -0.014 C 
ENDROOT
BRANCH   1  10
ATOM      3  O   UNL     1      33.057 -24.115 -12.367  0.00  0.00    -0.277 OA
ATOM      4  N   UNL     1      35.269 -24.044 -13.100  0.00  0.00    -0.269 N 
ATOM      5  CA  UNL     1      35.791 -24.570 -11.837  0.00  0.00    +0.179 C 
ATOM      6  C   UNL     1      36.867 -25.632 -12.039  0.00  0.00    +0.057 C 
ATOM      7  C   UNL     1      36.241 -23.631 -14.125  0.00  0.00    +0.120 C 
ATOM      8  C   UNL     1      37.898 -25.237 -13.061  0.00  0.00    -0.022 C 
ATOM      9  C   UNL     1      37.590 -24.299 -14.056  0.00  0.00    -0.006 C 
ATOM     10  C   UNL     1      33.897 -23.781 -13.207  0.00  0.00    +0.206 C 
ATOM     11  C   UNL     1      39.161 -25.847 -13.049  0.00  0.00    -0.004 C 
ATOM     12  C   UNL     1      38.563 -23.965 -15.010  0.00  0.00    -0.003 C 
ATOM     13  C   UNL     1      40.119 -25.510 -14.003  0.00  0.00    -0.000 C 
ATOM     14  C   UNL     1      39.820 -24.566 -14.983  0.00  0.00    -0.000 C 
BRANCH   5  16
ATOM     15  OXT UNL     1      36.775 -22.382 -11.516  0.00  0.00    -0.248 OA
ATOM     16  C   UNL     1      36.280 -23.393 -11.041  0.00  0.00    +0.332 C 
BRANCH  16  17
ATOM     17  O   UNL     1      36.100 -23.603  -9.715  0.00  0.00    -0.479 OA
ATOM     18  H   UNL     1      36.810 -23.467  -9.118  0.00  0.00    +0.295 HD
ENDBRANCH  16  17
ENDBRANCH   5  16
ENDBRANCH   1  10
BRANCH   1  19
ATOM     19  N   UNL     1      32.194 -22.394 -14.121  0.00  0.00    +0.399 N 
ATOM     20  H1  UNL     1      32.366 -21.401 -13.964  0.00  0.00    -0.083 HD
ATOM     21  H2  UNL     1      31.812 -22.829 -13.282  0.00  0.00    -0.083 HD
BRANCH  19  22
ATOM     22  CA  UNL     1      31.227 -22.544 -15.201  0.00  0.00    +0.041 C 
BRANCH  22  24
ATOM     23  OXT UNL     1      29.692 -24.391 -15.601  0.00  0.00    -0.253 OA
ATOM     24  C   UNL     1      30.300 -23.681 -14.810  0.00  0.00    +0.293 C 
BRANCH  24  25
ATOM     25  O   UNL     1      30.228 -23.855 -13.466  0.00  0.00    -0.482 OA
ATOM     26  H   UNL     1      29.960 -24.681 -13.114  0.00  0.00    +0.295 HD
ENDBRANCH  24  25
ENDBRANCH  22  24
BRANCH  22  27
ATOM     27  C   UNL     1      31.971 -22.861 -16.507  0.00  0.00    -0.006 C 
BRANCH  27  28
ATOM     28  C   UNL     1      31.531 -22.016 -17.712  0.00  0.00    +0.025 C 
BRANCH  28  29
ATOM     29  C   UNL     1      32.668 -21.465 -18.539  0.00  0.00    -0.022 C 
ATOM     30  C   UNL     1      32.418 -20.502 -19.516  0.00  0.00    -0.004 C 
ATOM     31  C   UNL     1      33.969 -21.921 -18.325  0.00  0.00    -0.004 C 
ATOM     32  C   UNL     1      33.468 -19.994 -20.280  0.00  0.00    -0.000 C 
ATOM     33  C   UNL     1      35.019 -21.412 -19.088  0.00  0.00    -0.000 C 
ATOM     34  C   UNL     1      34.769 -20.449 -20.066  0.00  0.00    -0.000 C 
ENDBRANCH  28  29
ENDBRANCH  27  28
ENDBRANCH  22  27
ENDBRANCH  19  22
ENDBRANCH   1  19
TORSDOF 10
ENDMDL
MODEL 3
REMARK VINA RESULT:      -9.7      1.829      2.723
REMARK  Name = 107994
REMARK  10 active torsions:
REMARK  status: ('A' for Active; 'I' for Inactive)
REMARK    1  A    between atoms: CA_1  and  C_10
REMARK    2  A    between atoms: CA_1  and  N_19
REMARK    3  A    between atoms: CA_5  and  C_16
REMARK    4  A    between atoms: C_16  and  O_17
REMARK    5  A    between atoms: N_19  and  CA_22
REMARK    6  A    between atoms: CA_22  and  C_24
REMARK    7  A    between atoms: CA_22  and  C_27
REMARK    8  A    between atoms: C_24  and  O_25
REMARK    9  A    between atoms: C_27  and  C_28
REMARK   10  A    between atoms: C_28  and  C_29
REMARK                            x       y       z     vdW  Elec       q    Type
REMARK                         _______ _______ _______ _____ _____    ______ ____
ROOT
ATOM      1  CA  UNL     1      33.587 -22.552 -14.626  0.00  0.00    +0.018 C 
ATOM      2  CB  UNL     1      32.094 -22.311 -14.711  0.00  0.00    -0.014 C 
ENDROOT
BRANCH   1  10
ATOM      3  O   UNL     1      32.944 -24.143 -12.988  0.00  0.00    -0.277 OA
ATOM      4  N   UNL     1      35.222 -24.005 -13.468  0.00  0.00    -0.269 N 
ATOM      5  CA  UNL     1      35.591 -24.901 -12.370  0.00  0.00    +0.179 C 
ATOM      6  C   UNL     1      36.645 -25.925 -12.775  0.00  0.00    +0.057 C 
ATOM      7  C   UNL     1      36.308 -23.377 -14.237  0.00  0.00    +0.120 C 
ATOM      8  C   UNL     1      37.790 -25.321 -13.541  0.00  0.00    -0.022 C 
ATOM      9  C   UNL     1      37.619 -24.120 -14.244  0.00  0.00    -0.006 C 
ATOM     10  C   UNL     1      33.877 -23.636 -13.616  0.00  0.00    +0.206 C 
ATOM     11  C   UNL     1      39.023 -25.987 -13.594  0.00  0.00    -0.004 C 
ATOM     12  C   UNL     1      38.697 -23.589 -14.969  0.00  0.00    -0.003 C 
ATOM     13  C   UNL     1      40.086 -25.452 -14.319  0.00  0.00    -0.000 C 
ATOM     14  C   UNL     1      39.924 -24.251 -15.004  0.00  0.00    -0.000 C 
BRANCH   5  16
ATOM     15  OXT UNL     1      37.184 -23.931 -10.827  0.00  0.00    -0.248 OA
ATOM     16  C   UNL     1      36.034 -24.033 -11.227  0.00  0.00    +0.332 C 
BRANCH  16  17
ATOM     17  O   UNL     1      34.979 -23.372 -10.690  0.00  0.00    -0.479 OA
ATOM     18  H   UNL     1      35.006 -23.095  -9.796  0.00  0.00    +0.295 HD
ENDBRANCH  16  17
ENDBRANCH   5  16
ENDBRANCH   1  10
BRANCH   1  19
ATOM     19  N   UNL     1      34.117 -23.009 -15.899  0.00  0.00    +0.399 N 
ATOM     20  H1  UNL     1      33.682 -23.899 -16.140  0.00  0.00    -0.083 HD
ATOM     21  H2  UNL     1      35.128 -23.118 -15.808  0.00  0.00    -0.083 HD
BRANCH  19  22
ATOM     22  CA  UNL     1      33.849 -22.044 -16.957  0.00  0.00    +0.041 C 
BRANCH  22  24
ATOM     23  OXT UNL     1      33.132 -23.867 -18.402  0.00  0.00    -0.253 OA
ATOM     24  C   UNL     1      32.954 -22.735 -17.970  0.00  0.00    +0.293 C 
BRANCH  24  25
ATOM     25  O   UNL     1      31.897 -21.968 -18.340  0.00  0.00    -0.482 OA
ATOM     26  H   UNL     1      31.201 -22.341 -18.845  0.00  0.00    +0.295 HD
ENDBRANCH  24  25
ENDBRANCH  22  24
BRANCH  22  27
ATOM     27  C   UNL     1      35.177 -21.611 -17.596  0.00  0.00    -0.006 C 
BRANCH  27  28
ATOM     28  C   UNL     1      35.229 -21.766 -19.124  0.00  0.00    +0.025 C 
BRANCH  28  29
ATOM     29  C   UNL     1      35.170 -20.466 -19.888  0.00  0.00    -0.022 C 
ATOM     30  C   UNL     1      33.952 -20.001 -20.382  0.00  0.00    -0.004 C 
ATOM     31  C   UNL     1      36.335 -19.728 -20.099  0.00  0.00    -0.004 C 
ATOM     32  C   UNL     1      33.897 -18.800 -21.088  0.00  0.00    -0.000 C 
ATOM     33  C   UNL     1      36.281 -18.526 -20.804  0.00  0.00    -0.000 C 
ATOM     34  C   UNL     1      35.062 -18.062 -21.299  0.00  0.00    -0.000 C 
ENDBRANCH  28  29
ENDBRANCH  27  28
ENDBRANCH  22  27
ENDBRANCH  19  22
ENDBRANCH   1  19
TORSDOF 10
ENDMDL
MODEL 4
REMARK VINA RESULT:      -9.6     12.439     16.372
REMARK  Name = 107994
REMARK  10 active torsions:
REMARK  status: ('A' for Active; 'I' for Inactive)
REMARK    1  A    between atoms: CA_1  and  C_10
REMARK    2  A    between atoms: CA_1  and  N_19
REMARK    3  A    between atoms: CA_5  and  C_16
REMARK    4  A    between atoms: C_16  and  O_17
REMARK    5  A    between atoms: N_19  and  CA_22
REMARK    6  A    between atoms: CA_22  and  C_24
REMARK    7  A    between atoms: CA_22  and  C_27
REMARK    8  A    between atoms: C_24  and  O_25
REMARK    9  A    between atoms: C_27  and  C_28
REMARK   10  A    between atoms: C_28  and  C_29
REMARK                            x       y       z     vdW  Elec       q    Type
REMARK                         _______ _______ _______ _____ _____    ______ ____
ROOT
ATOM      1  CA  UNL     1      31.200  -9.778 -22.342  0.00  0.00    +0.018 C 
ATOM      2  CB  UNL     1      29.874 -10.226 -21.763  0.00  0.00    -0.014 C 
ENDROOT
BRANCH   1  10
ATOM      3  O   UNL     1      31.859  -8.549 -20.423  0.00  0.00    -0.277 OA
ATOM      4  N   UNL     1      31.871  -7.398 -22.451  0.00  0.00    -0.269 N 
ATOM      5  CA  UNL     1      32.131  -6.107 -21.811  0.00  0.00    +0.179 C 
ATOM      6  C   UNL     1      33.182  -5.285 -22.548  0.00  0.00    +0.057 C 
ATOM      7  C   UNL     1      31.636  -7.410 -23.904  0.00  0.00    +0.120 C 
ATOM      8  C   UNL     1      32.963  -5.246 -24.036  0.00  0.00    -0.022 C 
ATOM      9  C   UNL     1      32.242  -6.265 -24.674  0.00  0.00    -0.006 C 
ATOM     10  C   UNL     1      31.670  -8.525 -21.642  0.00  0.00    +0.206 C 
ATOM     11  C   UNL     1      33.526  -4.212 -24.798  0.00  0.00    -0.004 C 
ATOM     12  C   UNL     1      32.071  -6.218 -26.066  0.00  0.00    -0.003 C 
ATOM     13  C   UNL     1      33.352  -4.175 -26.180  0.00  0.00    -0.000 C 
ATOM     14  C   UNL     1      32.622  -5.177 -26.814  0.00  0.00    -0.000 C 
BRANCH   5  16
ATOM     15  OXT UNL     1      29.817  -5.662 -22.365  0.00  0.00    -0.248 OA
ATOM     16  C   UNL     1      30.810  -5.399 -21.704  0.00  0.00    +0.332 C 
BRANCH  16  17
ATOM     17  O   UNL     1      30.867  -4.418 -20.769  0.00  0.00    -0.479 OA
ATOM     18  H   UNL     1      30.178  -3.786 -20.712  0.00  0.00    +0.295 HD
ENDBRANCH  16  17
ENDBRANCH   5  16
ENDBRANCH   1  10
BRANCH   1  19
ATOM     19  N   UNL     1      32.228 -10.784 -22.139  0.00  0.00    +0.399 N 
ATOM     20  H1  UNL     1      32.715 -10.591 -21.265  0.00  0.00    -0.083 HD
ATOM     21  H2  UNL     1      32.877 -10.748 -22.926  0.00  0.00    -0.083 HD
BRANCH  19  22
ATOM     22  CA  UNL     1      31.650 -12.120 -22.078  0.00  0.00    +0.041 C 
BRANCH  22  24
ATOM     23  OXT UNL     1      31.611 -13.748 -20.268  0.00  0.00    -0.253 OA
ATOM     24  C   UNL     1      31.782 -12.594 -20.642  0.00  0.00    +0.293 C 
BRANCH  24  25
ATOM     25  O   UNL     1      32.142 -11.596 -19.795  0.00  0.00    -0.482 OA
ATOM     26  H   UNL     1      32.922 -11.103 -19.958  0.00  0.00    +0.295 HD
ENDBRANCH  24  25
ENDBRANCH  22  24
BRANCH  22  27
ATOM     27  C   UNL     1      32.410 -13.046 -23.038  0.00  0.00    -0.006 C 
BRANCH  27  28
ATOM     28  C   UNL     1      33.818 -13.438 -22.565  0.00  0.00    +0.025 C 
BRANCH  28  29
ATOM     29  C   UNL     1      34.096 -14.921 -22.587  0.00  0.00    -0.022 C 
ATOM     30  C   UNL     1      34.446 -15.583 -21.411  0.00  0.00    -0.004 C 
ATOM     31  C   UNL     1      34.001 -15.631 -23.784  0.00  0.00    -0.004 C 
ATOM     32  C   UNL     1      34.703 -16.954 -21.430  0.00  0.00    -0.000 C 
ATOM     33  C   UNL     1      34.256 -17.001 -23.805  0.00  0.00    -0.000 C 
ATOM     34  C   UNL     1      34.608 -17.663 -22.628  0.00  0.00    -0.000 C 
ENDBRANCH  28  29
ENDBRANCH  27  28
ENDBRANCH  22  27
ENDBRANCH  19  22
ENDBRANCH   1  19
TORSDOF 10
ENDMDL
MODEL 5
REMARK VINA RESULT:      -9.6      4.278      6.722
REMARK  Name = 107994
REMARK  10 active torsions:
REMARK  status: ('A' for Active; 'I' for Inactive)
REMARK    1  A    between atoms: CA_1  and  C_10
REMARK    2  A    between atoms: CA_1  and  N_19
REMARK    3  A    between atoms: CA_5  and  C_16
REMARK    4  A    between atoms: C_16  and  O_17
REMARK    5  A    between atoms: N_19  and  CA_22
REMARK    6  A    between atoms: CA_22  and  C_24
REMARK    7  A    between atoms: CA_22  and  C_27
REMARK    8  A    between atoms: C_24  and  O_25
REMARK    9  A    between atoms: C_27  and  C_28
REMARK   10  A    between atoms: C_28  and  C_29
REMARK                            x       y       z     vdW  Elec       q    Type
REMARK                         _______ _______ _______ _____ _____    ______ ____
ROOT
ATOM      1  CA  UNL     1      34.659 -21.368 -19.164  0.00  0.00    +0.018 C 
ATOM      2  CB  UNL     1      35.490 -22.167 -20.146  0.00  0.00    -0.014 C 
ENDROOT
BRANCH   1  10
ATOM      3  O   UNL     1      36.379 -21.054 -17.560  0.00  0.00    -0.277 OA
ATOM      4  N   UNL     1      34.430 -22.091 -16.808  0.00  0.00    -0.269 N 
ATOM      5  CA  UNL     1      35.009 -22.417 -15.503  0.00  0.00    +0.179 C 
ATOM      6  C   UNL     1      34.051 -22.145 -14.349  0.00  0.00    +0.057 C 
ATOM      7  C   UNL     1      33.079 -22.594 -17.105  0.00  0.00    +0.120 C 
ATOM      8  C   UNL     1      32.663 -22.669 -14.600  0.00  0.00    -0.022 C 
ATOM      9  C   UNL     1      32.204 -22.866 -15.910  0.00  0.00    -0.006 C 
ATOM     10  C   UNL     1      35.244 -21.487 -17.777  0.00  0.00    +0.206 C 
ATOM     11  C   UNL     1      31.804 -22.917 -13.519  0.00  0.00    -0.004 C 
ATOM     12  C   UNL     1      30.897 -23.334 -16.117  0.00  0.00    -0.003 C 
ATOM     13  C   UNL     1      30.508 -23.379 -13.736  0.00  0.00    -0.000 C 
ATOM     14  C   UNL     1      30.055 -23.590 -15.035  0.00  0.00    -0.000 C 
BRANCH   5  16
ATOM     15  OXT UNL     1      34.702 -24.811 -15.692  0.00  0.00    -0.248 OA
ATOM     16  C   UNL     1      35.449 -23.853 -15.567  0.00  0.00    +0.332 C 
BRANCH  16  17
ATOM     17  O   UNL     1      36.798 -23.944 -15.465  0.00  0.00    -0.479 OA
ATOM     18  H   UNL     1      37.273 -24.510 -16.040  0.00  0.00    +0.295 HD
ENDBRANCH  16  17
ENDBRANCH   5  16
ENDBRANCH   1  10
BRANCH   1  19
ATOM     19  N   UNL     1      34.664 -19.955 -19.502  0.00  0.00    +0.399 N 
ATOM     20  H1  UNL     1      35.298 -19.464 -18.872  0.00  0.00    -0.083 HD
ATOM     21  H2  UNL     1      33.714 -19.595 -19.407  0.00  0.00    -0.083 HD
BRANCH  19  22
ATOM     22  CA  UNL     1      35.102 -19.746 -20.876  0.00  0.00    +0.041 C 
BRANCH  22  24
ATOM     23  OXT UNL     1      36.914 -18.400 -21.790  0.00  0.00    -0.253 OA
ATOM     24  C   UNL     1      36.355 -18.890 -20.816  0.00  0.00    +0.293 C 
BRANCH  24  25
ATOM     25  O   UNL     1      36.791 -18.693 -19.546  0.00  0.00    -0.482 OA
ATOM     26  H   UNL     1      36.335 -18.101 -18.980  0.00  0.00    +0.295 HD
ENDBRANCH  24  25
ENDBRANCH  22  24
BRANCH  22  27
ATOM     27  C   UNL     1      33.987 -19.040 -21.662  0.00  0.00    -0.006 C 
BRANCH  27  28
ATOM     28  C   UNL     1      34.405 -18.541 -23.053  0.00  0.00    +0.025 C 
BRANCH  28  29
ATOM     29  C   UNL     1      34.146 -17.074 -23.296  0.00  0.00    -0.022 C 
ATOM     30  C   UNL     1      33.624 -16.650 -24.517  0.00  0.00    -0.004 C 
ATOM     31  C   UNL     1      34.427 -16.142 -22.296  0.00  0.00    -0.004 C 
ATOM     32  C   UNL     1      33.384 -15.295 -24.742  0.00  0.00    -0.000 C 
ATOM     33  C   UNL     1      34.186 -14.786 -22.520  0.00  0.00    -0.000 C 
ATOM     34  C   UNL     1      33.665 -14.362 -23.742  0.00  0.00    -0.000 C 
ENDBRANCH  28  29
ENDBRANCH  27  28
ENDBRANCH  22  27
ENDBRANCH  19  22
ENDBRANCH   1  19
TORSDOF 10
ENDMDL
MODEL 6
REMARK VINA RESULT:      -9.4      2.385      6.980
REMARK  Name = 107994
REMARK  10 active torsions:
REMARK  status: ('A' for Active; 'I' for Inactive)
REMARK    1  A    between atoms: CA_1  and  C_10
REMARK    2  A    between atoms: CA_1  and  N_19
REMARK    3  A    between atoms: CA_5  and  C_16
REMARK    4  A    between atoms: C_16  and  O_17
REMARK    5  A    between atoms: N_19  and  CA_22
REMARK    6  A    between atoms: CA_22  and  C_24
REMARK    7  A    between atoms: CA_22  and  C_27
REMARK    8  A    between atoms: C_24  and  O_25
REMARK    9  A    between atoms: C_27  and  C_28
REMARK   10  A    between atoms: C_28  and  C_29
REMARK                            x       y       z     vdW  Elec       q    Type
REMARK                         _______ _______ _______ _____ _____    ______ ____
ROOT
ATOM      1  CA  UNL     1      35.397 -22.462 -15.246  0.00  0.00    +0.018 C 
ATOM      2  CB  UNL     1      36.172 -23.760 -15.347  0.00  0.00    -0.014 C 
ENDROOT
BRANCH   1  10
ATOM      3  O   UNL     1      33.121 -23.083 -15.491  0.00  0.00    -0.277 OA
ATOM      4  N   UNL     1      34.124 -22.060 -17.330  0.00  0.00    -0.269 N 
ATOM      5  CA  UNL     1      32.976 -22.314 -18.203  0.00  0.00    +0.179 C 
ATOM      6  C   UNL     1      32.613 -21.110 -19.065  0.00  0.00    +0.057 C 
ATOM      7  C   UNL     1      35.323 -21.454 -17.933  0.00  0.00    +0.120 C 
ATOM      8  C   UNL     1      33.808 -20.476 -19.723  0.00  0.00    -0.022 C 
ATOM      9  C   UNL     1      35.088 -20.631 -19.172  0.00  0.00    -0.006 C 
ATOM     10  C   UNL     1      34.107 -22.571 -16.025  0.00  0.00    +0.206 C 
ATOM     11  C   UNL     1      33.636 -19.683 -20.867  0.00  0.00    -0.004 C 
ATOM     12  C   UNL     1      36.183 -20.010 -19.793  0.00  0.00    -0.003 C 
ATOM     13  C   UNL     1      34.730 -19.069 -21.474  0.00  0.00    -0.000 C 
ATOM     14  C   UNL     1      36.004 -19.235 -20.938  0.00  0.00    -0.000 C 
BRANCH   5  16
ATOM     15  OXT UNL     1      33.820 -23.519 -20.125  0.00  0.00    -0.248 OA
ATOM     16  C   UNL     1      33.306 -23.533 -19.017  0.00  0.00    +0.332 C 
BRANCH  16  17
ATOM     17  O   UNL     1      32.952 -24.661 -18.354  0.00  0.00    -0.479 OA
ATOM     18  H   UNL     1      32.263 -25.202 -18.685  0.00  0.00    +0.295 HD
ENDBRANCH  16  17
ENDBRANCH   5  16
ENDBRANCH   1  10
BRANCH   1  19
ATOM     19  N   UNL     1      35.033 -22.174 -13.869  0.00  0.00    +0.399 N 
ATOM     20  H1  UNL     1      34.017 -22.141 -13.793  0.00  0.00    -0.083 HD
ATOM     21  H2  UNL     1      35.442 -21.277 -13.607  0.00  0.00    -0.083 HD
BRANCH  19  22
ATOM     22  CA  UNL     1      35.546 -23.197 -12.966  0.00  0.00    +0.041 C 
BRANCH  22  24
ATOM     23  OXT UNL     1      34.446 -24.503 -11.231  0.00  0.00    -0.253 OA
ATOM     24  C   UNL     1      34.367 -23.699 -12.152  0.00  0.00    +0.293 C 
BRANCH  24  25
ATOM     25  O   UNL     1      33.192 -23.139 -12.536  0.00  0.00    -0.482 OA
ATOM     26  H   UNL     1      33.117 -22.207 -12.601  0.00  0.00    +0.295 HD
ENDBRANCH  24  25
ENDBRANCH  22  24
BRANCH  22  27
ATOM     27  C   UNL     1      36.621 -22.580 -12.060  0.00  0.00    -0.006 C 
BRANCH  27  28
ATOM     28  C   UNL     1      37.704 -23.566 -11.595  0.00  0.00    +0.025 C 
BRANCH  28  29
ATOM     29  C   UNL     1      38.299 -24.408 -12.697  0.00  0.00    -0.022 C 
ATOM     30  C   UNL     1      39.412 -23.952 -13.402  0.00  0.00    -0.004 C 
ATOM     31  C   UNL     1      37.734 -25.645 -13.011  0.00  0.00    -0.004 C 
ATOM     32  C   UNL     1      39.962 -24.730 -14.420  0.00  0.00    -0.000 C 
ATOM     33  C   UNL     1      38.284 -26.424 -14.029  0.00  0.00    -0.000 C 
ATOM     34  C   UNL     1      39.397 -25.967 -14.734  0.00  0.00    -0.000 C 
ENDBRANCH  28  29
ENDBRANCH  27  28
ENDBRANCH  22  27
ENDBRANCH  19  22
ENDBRANCH   1  19
TORSDOF 10
ENDMDL
MODEL 7
REMARK VINA RESULT:      -9.2      3.539      5.925
REMARK  Name = 107994
REMARK  10 active torsions:
REMARK  status: ('A' for Active; 'I' for Inactive)
REMARK    1  A    between atoms: CA_1  and  C_10
REMARK    2  A    between atoms: CA_1  and  N_19
REMARK    3  A    between atoms: CA_5  and  C_16
REMARK    4  A    between atoms: C_16  and  O_17
REMARK    5  A    between atoms: N_19  and  CA_22
REMARK    6  A    between atoms: CA_22  and  C_24
REMARK    7  A    between atoms: CA_22  and  C_27
REMARK    8  A    between atoms: C_24  and  O_25
REMARK    9  A    between atoms: C_27  and  C_28
REMARK   10  A    between atoms: C_28  and  C_29
REMARK                            x       y       z     vdW  Elec       q    Type
REMARK                         _______ _______ _______ _____ _____    ______ ____
ROOT
ATOM      1  CA  UNL     1      33.825 -21.998 -19.117  0.00  0.00    +0.018 C 
ATOM      2  CB  UNL     1      33.835 -23.408 -19.671  0.00  0.00    -0.014 C 
ENDROOT
BRANCH   1  10
ATOM      3  O   UNL     1      35.707 -21.484 -17.768  0.00  0.00    -0.277 OA
ATOM      4  N   UNL     1      33.886 -22.460 -16.687  0.00  0.00    -0.269 N 
ATOM      5  CA  UNL     1      34.618 -22.632 -15.431  0.00  0.00    +0.179 C 
ATOM      6  C   UNL     1      33.791 -22.248 -14.209  0.00  0.00    +0.057 C 
ATOM      7  C   UNL     1      32.524 -23.013 -16.769  0.00  0.00    +0.120 C 
ATOM      8  C   UNL     1      32.399 -22.817 -14.239  0.00  0.00    -0.022 C 
ATOM      9  C   UNL     1      31.799 -23.163 -15.457  0.00  0.00    -0.006 C 
ATOM     10  C   UNL     1      34.567 -21.955 -17.803  0.00  0.00    +0.206 C 
ATOM     11  C   UNL     1      31.676 -22.956 -13.045  0.00  0.00    -0.004 C 
ATOM     12  C   UNL     1      30.490 -23.670 -15.459  0.00  0.00    -0.003 C 
ATOM     13  C   UNL     1      30.376 -23.458 -13.058  0.00  0.00    -0.000 C 
ATOM     14  C   UNL     1      29.784 -23.818 -14.266  0.00  0.00    -0.000 C 
BRANCH   5  16
ATOM     15  OXT UNL     1      34.357 -25.037 -15.362  0.00  0.00    -0.248 OA
ATOM     16  C   UNL     1      35.088 -24.059 -15.390  0.00  0.00    +0.332 C 
BRANCH  16  17
ATOM     17  O   UNL     1      36.442 -24.117 -15.386  0.00  0.00    -0.479 OA
ATOM     18  H   UNL     1      36.940 -23.452 -15.818  0.00  0.00    +0.295 HD
ENDBRANCH  16  17
ENDBRANCH   5  16
ENDBRANCH   1  10
BRANCH   1  19
ATOM     19  N   UNL     1      34.504 -21.078 -20.014  0.00  0.00    +0.399 N 
ATOM     20  H1  UNL     1      34.549 -21.493 -20.944  0.00  0.00    -0.083 HD
ATOM     21  H2  UNL     1      35.443 -20.907 -19.652  0.00  0.00    -0.083 HD
BRANCH  19  22
ATOM     22  CA  UNL     1      33.799 -19.805 -20.093  0.00  0.00    +0.041 C 
BRANCH  22  24
ATOM     23  OXT UNL     1      31.677 -20.406 -19.063  0.00  0.00    -0.253 OA
ATOM     24  C   UNL     1      32.314 -20.119 -20.068  0.00  0.00    +0.293 C 
BRANCH  24  25
ATOM     25  O   UNL     1      31.741 -20.023 -21.295  0.00  0.00    -0.482 OA
ATOM     26  H   UNL     1      32.122 -19.469 -21.948  0.00  0.00    +0.295 HD
ENDBRANCH  24  25
ENDBRANCH  22  24
BRANCH  22  27
ATOM     27  C   UNL     1      34.192 -19.088 -21.393  0.00  0.00    -0.006 C 
BRANCH  27  28
ATOM     28  C   UNL     1      35.181 -17.927 -21.206  0.00  0.00    +0.025 C 
BRANCH  28  29
ATOM     29  C   UNL     1      34.684 -16.594 -21.712  0.00  0.00    -0.022 C 
ATOM     30  C   UNL     1      34.640 -16.340 -23.082  0.00  0.00    -0.004 C 
ATOM     31  C   UNL     1      34.268 -15.617 -20.807  0.00  0.00    -0.004 C 
ATOM     32  C   UNL     1      34.182 -15.108 -23.549  0.00  0.00    -0.000 C 
ATOM     33  C   UNL     1      33.808 -14.386 -21.274  0.00  0.00    -0.000 C 
ATOM     34  C   UNL     1      33.765 -14.131 -22.645  0.00  0.00    -0.000 C 
ENDBRANCH  28  29
ENDBRANCH  27  28
ENDBRANCH  22  27
ENDBRANCH  19  22
ENDBRANCH   1  19
TORSDOF 10
ENDMDL
MODEL 8
REMARK VINA RESULT:      -9.1      2.862      5.101
REMARK  Name = 107994
REMARK  10 active torsions:
REMARK  status: ('A' for Active; 'I' for Inactive)
REMARK    1  A    between atoms: CA_1  and  C_10
REMARK    2  A    between atoms: CA_1  and  N_19
REMARK    3  A    between atoms: CA_5  and  C_16
REMARK    4  A    between atoms: C_16  and  O_17
REMARK    5  A    between atoms: N_19  and  CA_22
REMARK    6  A    between atoms: CA_22  and  C_24
REMARK    7  A    between atoms: CA_22  and  C_27
REMARK    8  A    between atoms: C_24  and  O_25
REMARK    9  A    between atoms: C_27  and  C_28
REMARK   10  A    between atoms: C_28  and  C_29
REMARK                            x       y       z     vdW  Elec       q    Type
REMARK                         _______ _______ _______ _____ _____    ______ ____
ROOT
ATOM      1  CA  UNL     1      36.681 -21.567 -17.257  0.00  0.00    +0.018 C 
ATOM      2  CB  UNL     1      36.643 -20.100 -16.882  0.00  0.00    -0.014 C 
ENDROOT
BRANCH   1  10
ATOM      3  O   UNL     1      38.100 -22.515 -15.608  0.00  0.00    -0.277 OA
ATOM      4  N   UNL     1      35.827 -23.007 -15.435  0.00  0.00    -0.269 N 
ATOM      5  CA  UNL     1      36.037 -23.988 -14.368  0.00  0.00    +0.179 C 
ATOM      6  C   UNL     1      35.016 -23.863 -13.243  0.00  0.00    +0.057 C 
ATOM      7  C   UNL     1      34.463 -22.851 -15.966  0.00  0.00    +0.120 C 
ATOM      8  C   UNL     1      33.603 -23.730 -13.742  0.00  0.00    -0.022 C 
ATOM      9  C   UNL     1      33.348 -23.235 -15.028  0.00  0.00    -0.006 C 
ATOM     10  C   UNL     1      36.945 -22.405 -16.029  0.00  0.00    +0.206 C 
ATOM     11  C   UNL     1      32.532 -24.054 -12.897  0.00  0.00    -0.004 C 
ATOM     12  C   UNL     1      32.020 -23.099 -15.461  0.00  0.00    -0.003 C 
ATOM     13  C   UNL     1      31.216 -23.914 -13.336  0.00  0.00    -0.000 C 
ATOM     14  C   UNL     1      30.961 -23.438 -14.620  0.00  0.00    -0.000 C 
BRANCH   5  16
ATOM     15  OXT UNL     1      35.029 -26.027 -15.198  0.00  0.00    -0.248 OA
ATOM     16  C   UNL     1      36.026 -25.345 -15.014  0.00  0.00    +0.332 C 
BRANCH  16  17
ATOM     17  O   UNL     1      37.281 -25.718 -15.366  0.00  0.00    -0.479 OA
ATOM     18  H   UNL     1      37.487 -26.625 -15.472  0.00  0.00    +0.295 HD
ENDBRANCH  16  17
ENDBRANCH   5  16
ENDBRANCH   1  10
BRANCH   1  19
ATOM     19  N   UNL     1      35.405 -22.003 -17.797  0.00  0.00    +0.399 N 
ATOM     20  H1  UNL     1      34.761 -22.180 -17.027  0.00  0.00    -0.083 HD
ATOM     21  H2  UNL     1      35.557 -22.854 -18.340  0.00  0.00    -0.083 HD
BRANCH  19  22
ATOM     22  CA  UNL     1      34.833 -20.990 -18.675  0.00  0.00    +0.041 C 
BRANCH  22  24
ATOM     23  OXT UNL     1      32.479 -20.749 -19.246  0.00  0.00    -0.253 OA
ATOM     24  C   UNL     1      33.448 -21.475 -19.066  0.00  0.00    +0.293 C 
BRANCH  24  25
ATOM     25  O   UNL     1      33.395 -22.822 -19.227  0.00  0.00    -0.482 OA
ATOM     26  H   UNL     1      32.737 -23.203 -19.776  0.00  0.00    +0.295 HD
ENDBRANCH  24  25
ENDBRANCH  22  24
BRANCH  22  27
ATOM     27  C   UNL     1      35.731 -20.824 -19.909  0.00  0.00    -0.006 C 
BRANCH  27  28
ATOM     28  C   UNL     1      36.168 -19.378 -20.189  0.00  0.00    +0.025 C 
BRANCH  28  29
ATOM     29  C   UNL     1      35.412 -18.701 -21.307  0.00  0.00    -0.022 C 
ATOM     30  C   UNL     1      35.463 -17.314 -21.445  0.00  0.00    -0.004 C 
ATOM     31  C   UNL     1      34.663 -19.463 -22.204  0.00  0.00    -0.004 C 
ATOM     32  C   UNL     1      34.766 -16.688 -22.478  0.00  0.00    -0.000 C 
ATOM     33  C   UNL     1      33.966 -18.838 -23.237  0.00  0.00    -0.000 C 
ATOM     34  C   UNL     1      34.017 -17.451 -23.374  0.00  0.00    -0.000 C 
ENDBRANCH  28  29
ENDBRANCH  27  28
ENDBRANCH  22  27
ENDBRANCH  19  22
ENDBRANCH   1  19
TORSDOF 10
ENDMDL
MODEL 9
REMARK VINA RESULT:      -9.1     14.323     18.328
REMARK  Name = 107994
REMARK  10 active torsions:
REMARK  status: ('A' for Active; 'I' for Inactive)
REMARK    1  A    between atoms: CA_1  and  C_10
REMARK    2  A    between atoms: CA_1  and  N_19
REMARK    3  A    between atoms: CA_5  and  C_16
REMARK    4  A    between atoms: C_16  and  O_17
REMARK    5  A    between atoms: N_19  and  CA_22
REMARK    6  A    between atoms: CA_22  and  C_24
REMARK    7  A    between atoms: CA_22  and  C_27
REMARK    8  A    between atoms: C_24  and  O_25
REMARK    9  A    between atoms: C_27  and  C_28
REMARK   10  A    between atoms: C_28  and  C_29
REMARK                            x       y       z     vdW  Elec       q    Type
REMARK                         _______ _______ _______ _____ _____    ______ ____
ROOT
ATOM      1  CA  UNL     1      31.375  -7.875 -23.133  0.00  0.00    +0.018 C 
ATOM      2  CB  UNL     1      29.868  -7.987 -23.035  0.00  0.00    -0.014 C 
ENDROOT
BRANCH   1  10
ATOM      3  O   UNL     1      31.861  -5.999 -21.765  0.00  0.00    -0.277 OA
ATOM      4  N   UNL     1      32.110  -5.704 -24.065  0.00  0.00    -0.269 N 
ATOM      5  CA  UNL     1      32.333  -4.262 -23.939  0.00  0.00    +0.179 C 
ATOM      6  C   UNL     1      33.474  -3.763 -24.818  0.00  0.00    +0.057 C 
ATOM      7  C   UNL     1      32.026  -6.270 -25.421  0.00  0.00    +0.120 C 
ATOM      8  C   UNL     1      33.411  -4.296 -26.224  0.00  0.00    -0.022 C 
ATOM      9  C   UNL     1      32.735  -5.493 -26.500  0.00  0.00    -0.006 C 
ATOM     10  C   UNL     1      31.800  -6.443 -22.914  0.00  0.00    +0.206 C 
ATOM     11  C   UNL     1      34.073  -3.619 -27.258  0.00  0.00    -0.004 C 
ATOM     12  C   UNL     1      32.710  -5.981 -27.815  0.00  0.00    -0.003 C 
ATOM     13  C   UNL     1      34.044  -4.113 -28.561  0.00  0.00    -0.000 C 
ATOM     14  C   UNL     1      33.360  -5.293 -28.840  0.00  0.00    -0.000 C 
BRANCH   5  16
ATOM     15  OXT UNL     1      30.835  -2.814 -25.172  0.00  0.00    -0.248 OA
ATOM     16  C   UNL     1      31.025  -3.589 -24.247  0.00  0.00    +0.332 C 
BRANCH  16  17
ATOM     17  O   UNL     1      30.075  -3.957 -23.353  0.00  0.00    -0.479 OA
ATOM     18  H   UNL     1      30.310  -4.470 -22.605  0.00  0.00    +0.295 HD
ENDBRANCH  16  17
ENDBRANCH   5  16
ENDBRANCH   1  10
BRANCH   1  19
ATOM     19  N   UNL     1      32.027  -8.669 -22.105  0.00  0.00    +0.399 N 
ATOM     20  H1  UNL     1      32.569  -8.051 -21.501  0.00  0.00    -0.083 HD
ATOM     21  H2  UNL     1      32.636  -9.350 -22.559  0.00  0.00    -0.083 HD
BRANCH  19  22
ATOM     22  CA  UNL     1      31.050  -9.388 -21.298  0.00  0.00    +0.041 C 
BRANCH  22  24
ATOM     23  OXT UNL     1      31.308  -9.968 -18.948  0.00  0.00    -0.253 OA
ATOM     24  C   UNL     1      31.407  -9.139 -19.844  0.00  0.00    +0.293 C 
BRANCH  24  25
ATOM     25  O   UNL     1      31.884  -7.886 -19.632  0.00  0.00    -0.482 OA
ATOM     26  H   UNL     1      32.787  -7.758 -19.414  0.00  0.00    +0.295 HD
ENDBRANCH  24  25
ENDBRANCH  22  24
BRANCH  22  27
ATOM     27  C   UNL     1      31.116 -10.884 -21.636  0.00  0.00    -0.006 C 
BRANCH  27  28
ATOM     28  C   UNL     1      32.271 -11.276 -22.571  0.00  0.00    +0.025 C 
BRANCH  28  29
ATOM     29  C   UNL     1      32.923 -12.596 -22.241  0.00  0.00    -0.022 C 
ATOM     30  C   UNL     1      32.931 -13.063 -20.927  0.00  0.00    -0.004 C 
ATOM     31  C   UNL     1      33.518 -13.351 -23.253  0.00  0.00    -0.004 C 
ATOM     32  C   UNL     1      33.534 -14.283 -20.623  0.00  0.00    -0.000 C 
ATOM     33  C   UNL     1      34.121 -14.572 -22.949  0.00  0.00    -0.000 C 
ATOM     34  C   UNL     1      34.129 -15.038 -21.634  0.00  0.00    -0.000 C 
ENDBRANCH  28  29
ENDBRANCH  27  28
ENDBRANCH  22  27
ENDBRANCH  19  22
ENDBRANCH   1  19
TORSDOF 10
ENDMDL
