MODEL 1
REMARK VINA RESULT:     -12.2      0.000      0.000
REMARK  Name = 22049997
REMARK  5 active torsions:
REMARK  status: ('A' for Active; 'I' for Inactive)
REMARK    1  A    between atoms: N_3  and  C_10
REMARK    2  A    between atoms: C_7  and  O_22
REMARK    3  A    between atoms: C_13  and  C_19
REMARK    4  A    between atoms: O_22  and  C_23
REMARK    5  A    between atoms: C_23  and  C_26
REMARK                            x       y       z     vdW  Elec       q    Type
REMARK                         _______ _______ _______ _____ _____    ______ ____
ROOT
ATOM      1 BR   UNL     1      32.794 -21.628 -18.950  0.00  0.00    -0.041 Br
ATOM      2  O   UNL     1      32.556 -19.380 -20.962  0.00  0.00    -0.269 OA
ATOM      3  N   UNL     1      34.806 -18.776 -21.288  0.00  0.00    -0.237 N 
ATOM      4  C   UNL     1      36.148 -19.003 -20.930  0.00  0.00    +0.039 C 
ATOM      5  C   UNL     1      33.755 -19.546 -20.721  0.00  0.00    +0.265 C 
ATOM      6  C   UNL     1      36.459 -19.947 -20.025  0.00  0.00    +0.048 C 
ATOM      7  C   UNL     1      35.443 -20.743 -19.403  0.00  0.00    +0.151 C 
ATOM      8  C   UNL     1      34.150 -20.596 -19.719  0.00  0.00    +0.122 C 
ATOM      9  C   UNL     1      37.270 -18.283 -21.634  0.00  0.00    +0.048 C 
ENDROOT
BRANCH   3  10
ATOM     10  C   UNL     1      34.417 -17.751 -22.225  0.00  0.00    +0.054 C 
ATOM     11  C   UNL     1      34.149 -18.064 -23.557  0.00  0.00    -0.008 C 
ATOM     12  C   UNL     1      34.309 -16.432 -21.784  0.00  0.00    +0.019 C 
ATOM     13  C   UNL     1      33.934 -15.427 -22.675  0.00  0.00    +0.055 C 
ATOM     14  C   UNL     1      33.772 -17.059 -24.448  0.00  0.00    -0.003 C 
ATOM     15  C   UNL     1      33.665 -15.740 -24.007  0.00  0.00    +0.004 C 
ATOM     16  C   UNL     1      34.255 -19.468 -24.057  0.00  0.00    +0.032 C 
BRANCH  13  19
ATOM     17  O   UNL     1      34.060 -13.760 -21.030  0.00  0.00    -0.270 OA
ATOM     18  N   UNL     1      33.465 -13.090 -23.169  0.00  0.00    -0.299 N 
ATOM     19  C   UNL     1      33.823 -14.051 -22.215  0.00  0.00    +0.246 C 
ATOM     20  C   UNL     1      33.337 -11.681 -22.873  0.00  0.00    +0.111 C 
ATOM     21  H   UNL     1      33.290 -13.391 -24.089  0.00  0.00    +0.150 HD
ENDBRANCH  13  19
ENDBRANCH   3  10
BRANCH   7  22
ATOM     22  O   UNL     1      35.920 -21.662 -18.495  0.00  0.00    -0.470 OA
BRANCH  22  23
ATOM     23  C   UNL     1      36.303 -21.027 -17.289  0.00  0.00    +0.234 C 
BRANCH  23  26
ATOM     24  F   UNL     1      38.410 -22.403 -15.994  0.00  0.00    -0.204 F 
ATOM     25  F   UNL     1      35.459 -24.578 -13.003  0.00  0.00    -0.204 F 
ATOM     26  C   UNL     1      36.080 -21.973 -16.146  0.00  0.00    +0.049 C 
ATOM     27  C   UNL     1      37.164 -22.620 -15.552  0.00  0.00    +0.142 C 
ATOM     28  C   UNL     1      34.787 -22.206 -15.678  0.00  0.00    +0.004 C 
ATOM     29  C   UNL     1      36.954 -23.500 -14.490  0.00  0.00    +0.059 C 
ATOM     30  C   UNL     1      34.578 -23.086 -14.617  0.00  0.00    +0.030 C 
ATOM     31  C   UNL     1      35.661 -23.733 -14.023  0.00  0.00    +0.142 C 
ENDBRANCH  23  26
ENDBRANCH  22  23
ENDBRANCH   7  22
TORSDOF 5
ENDMDL
MODEL 2
REMARK VINA RESULT:     -10.8      5.014     10.055
REMARK  Name = 22049997
REMARK  5 active torsions:
REMARK  status: ('A' for Active; 'I' for Inactive)
REMARK    1  A    between atoms: N_3  and  C_10
REMARK    2  A    between atoms: C_7  and  O_22
REMARK    3  A    between atoms: C_13  and  C_19
REMARK    4  A    between atoms: O_22  and  C_23
REMARK    5  A    between atoms: C_23  and  C_26
REMARK                            x       y       z     vdW  Elec       q    Type
REMARK                         _______ _______ _______ _____ _____    ______ ____
ROOT
ATOM      1 BR   UNL     1      33.955 -13.188 -20.838  0.00  0.00    -0.041 Br
ATOM      2  O   UNL     1      34.555 -16.007 -19.914  0.00  0.00    -0.269 OA
ATOM      3  N   UNL     1      34.374 -17.227 -21.916  0.00  0.00    -0.237 N 
ATOM      4  C   UNL     1      34.090 -17.189 -23.295  0.00  0.00    +0.039 C 
ATOM      5  C   UNL     1      34.350 -16.044 -21.130  0.00  0.00    +0.265 C 
ATOM      6  C   UNL     1      33.772 -16.027 -23.891  0.00  0.00    +0.048 C 
ATOM      7  C   UNL     1      33.713 -14.803 -23.149  0.00  0.00    +0.151 C 
ATOM      8  C   UNL     1      33.997 -14.766 -21.840  0.00  0.00    +0.122 C 
ATOM      9  C   UNL     1      34.252 -18.418 -24.153  0.00  0.00    +0.048 C 
ENDROOT
BRANCH   3  10
ATOM     10  C   UNL     1      34.683 -18.453 -21.223  0.00  0.00    +0.054 C 
ATOM     11  C   UNL     1      35.996 -18.915 -21.139  0.00  0.00    -0.008 C 
ATOM     12  C   UNL     1      33.650 -19.178 -20.630  0.00  0.00    +0.019 C 
ATOM     13  C   UNL     1      33.929 -20.365 -19.954  0.00  0.00    +0.055 C 
ATOM     14  C   UNL     1      36.276 -20.102 -20.462  0.00  0.00    -0.003 C 
ATOM     15  C   UNL     1      35.243 -20.828 -19.870  0.00  0.00    +0.004 C 
ATOM     16  C   UNL     1      37.123 -18.158 -21.764  0.00  0.00    +0.032 C 
BRANCH  13  19
ATOM     17  O   UNL     1      31.738 -21.198 -19.885  0.00  0.00    -0.270 OA
ATOM     18  N   UNL     1      33.140 -21.768 -18.128  0.00  0.00    -0.299 N 
ATOM     19  C   UNL     1      32.851 -21.123 -19.337  0.00  0.00    +0.246 C 
ATOM     20  C   UNL     1      32.183 -22.577 -17.407  0.00  0.00    +0.111 C 
ATOM     21  H   UNL     1      34.042 -21.666 -17.750  0.00  0.00    +0.150 HD
ENDBRANCH  13  19
ENDBRANCH   3  10
BRANCH   7  22
ATOM     22  O   UNL     1      33.368 -13.701 -23.899  0.00  0.00    -0.470 OA
BRANCH  22  23
ATOM     23  C   UNL     1      32.182 -13.107 -23.405  0.00  0.00    +0.234 C 
BRANCH  23  26
ATOM     24  F   UNL     1      30.557 -11.488 -21.746  0.00  0.00    -0.204 F 
ATOM     25  F   UNL     1      33.054  -7.588 -22.715  0.00  0.00    -0.204 F 
ATOM     26  C   UNL     1      32.413 -11.635 -23.219  0.00  0.00    +0.049 C 
ATOM     27  C   UNL     1      31.574 -10.895 -22.386  0.00  0.00    +0.142 C 
ATOM     28  C   UNL     1      33.469 -11.009 -23.882  0.00  0.00    +0.004 C 
ATOM     29  C   UNL     1      31.791  -9.528 -22.216  0.00  0.00    +0.059 C 
ATOM     30  C   UNL     1      33.685  -9.642 -23.711  0.00  0.00    +0.030 C 
ATOM     31  C   UNL     1      32.846  -8.901 -22.879  0.00  0.00    +0.142 C 
ENDBRANCH  23  26
ENDBRANCH  22  23
ENDBRANCH   7  22
TORSDOF 5
ENDMDL
MODEL 3
REMARK VINA RESULT:      -9.9      2.736      3.515
REMARK  Name = 22049997
REMARK  5 active torsions:
REMARK  status: ('A' for Active; 'I' for Inactive)
REMARK    1  A    between atoms: N_3  and  C_10
REMARK    2  A    between atoms: C_7  and  O_22
REMARK    3  A    between atoms: C_13  and  C_19
REMARK    4  A    between atoms: O_22  and  C_23
REMARK    5  A    between atoms: C_23  and  C_26
REMARK                            x       y       z     vdW  Elec       q    Type
REMARK                         _______ _______ _______ _____ _____    ______ ____
ROOT
ATOM      1 BR   UNL     1      36.815 -21.311 -17.537  0.00  0.00    -0.041 Br
ATOM      2  O   UNL     1      36.490 -19.227 -19.707  0.00  0.00    -0.269 OA
ATOM      3  N   UNL     1      34.260 -19.562 -20.377  0.00  0.00    -0.237 N 
ATOM      4  C   UNL     1      33.082 -20.315 -20.208  0.00  0.00    +0.039 C 
ATOM      5  C   UNL     1      35.415 -19.822 -19.590  0.00  0.00    +0.265 C 
ATOM      6  C   UNL     1      33.035 -21.310 -19.306  0.00  0.00    +0.048 C 
ATOM      7  C   UNL     1      34.173 -21.633 -18.496  0.00  0.00    +0.151 C 
ATOM      8  C   UNL     1      35.315 -20.939 -18.589  0.00  0.00    +0.122 C 
ATOM      9  C   UNL     1      31.817 -19.948 -20.942  0.00  0.00    +0.048 C 
ENDROOT
BRANCH   3  10
ATOM     10  C   UNL     1      34.373 -18.510 -21.356  0.00  0.00    +0.054 C 
ATOM     11  C   UNL     1      34.673 -18.801 -22.687  0.00  0.00    -0.008 C 
ATOM     12  C   UNL     1      34.178 -17.187 -20.958  0.00  0.00    +0.019 C 
ATOM     13  C   UNL     1      34.282 -16.156 -21.890  0.00  0.00    +0.055 C 
ATOM     14  C   UNL     1      34.776 -17.769 -23.620  0.00  0.00    -0.003 C 
ATOM     15  C   UNL     1      34.581 -16.446 -23.222  0.00  0.00    +0.004 C 
ATOM     16  C   UNL     1      34.887 -20.208 -23.141  0.00  0.00    +0.032 C 
BRANCH  13  19
ATOM     17  O   UNL     1      34.156 -14.460 -20.276  0.00  0.00    -0.270 OA
ATOM     18  N   UNL     1      33.823 -13.841 -22.485  0.00  0.00    -0.299 N 
ATOM     19  C   UNL     1      34.079 -14.776 -21.475  0.00  0.00    +0.246 C 
ATOM     20  C   UNL     1      33.623 -12.431 -22.235  0.00  0.00    +0.111 C 
ATOM     21  H   UNL     1      33.775 -14.160 -23.414  0.00  0.00    +0.150 HD
ENDBRANCH  13  19
ENDBRANCH   3  10
BRANCH   7  22
ATOM     22  O   UNL     1      33.970 -22.681 -17.626  0.00  0.00    -0.470 OA
BRANCH  22  23
ATOM     23  C   UNL     1      32.597 -23.019 -17.555  0.00  0.00    +0.234 C 
BRANCH  23  26
ATOM     24  F   UNL     1      29.987 -22.224 -16.803  0.00  0.00    -0.204 F 
ATOM     25  F   UNL     1      30.917 -22.717 -12.190  0.00  0.00    -0.204 F 
ATOM     26  C   UNL     1      32.147 -22.938 -16.125  0.00  0.00    +0.049 C 
ATOM     27  C   UNL     1      30.845 -22.539 -15.823  0.00  0.00    +0.142 C 
ATOM     28  C   UNL     1      33.033 -23.263 -15.098  0.00  0.00    +0.004 C 
ATOM     29  C   UNL     1      30.430 -22.464 -14.494  0.00  0.00    +0.059 C 
ATOM     30  C   UNL     1      32.617 -23.188 -13.770  0.00  0.00    +0.030 C 
ATOM     31  C   UNL     1      31.316 -22.788 -13.467  0.00  0.00    +0.142 C 
ENDBRANCH  23  26
ENDBRANCH  22  23
ENDBRANCH   7  22
TORSDOF 5
ENDMDL
MODEL 4
REMARK VINA RESULT:      -9.6      8.043     12.632
REMARK  Name = 22049997
REMARK  5 active torsions:
REMARK  status: ('A' for Active; 'I' for Inactive)
REMARK    1  A    between atoms: N_3  and  C_10
REMARK    2  A    between atoms: C_7  and  O_22
REMARK    3  A    between atoms: C_13  and  C_19
REMARK    4  A    between atoms: O_22  and  C_23
REMARK    5  A    between atoms: C_23  and  C_26
REMARK                            x       y       z     vdW  Elec       q    Type
REMARK                         _______ _______ _______ _____ _____    ______ ____
ROOT
ATOM      1 BR   UNL     1      32.027  -8.429 -18.944  0.00  0.00    -0.041 Br
ATOM      2  O   UNL     1      32.182  -5.834 -20.494  0.00  0.00    -0.269 OA
ATOM      3  N   UNL     1      31.365  -6.475 -22.604  0.00  0.00    -0.237 N 
ATOM      4  C   UNL     1      30.880  -7.525 -23.408  0.00  0.00    +0.039 C 
ATOM      5  C   UNL     1      31.721  -6.697 -21.246  0.00  0.00    +0.265 C 
ATOM      6  C   UNL     1      30.763  -8.766 -22.907  0.00  0.00    +0.048 C 
ATOM      7  C   UNL     1      31.124  -9.057 -21.551  0.00  0.00    +0.151 C 
ATOM      8  C   UNL     1      31.566  -8.099 -20.726  0.00  0.00    +0.122 C 
ATOM      9  C   UNL     1      30.372  -7.260 -24.803  0.00  0.00    +0.048 C 
ENDROOT
BRANCH   3  10
ATOM     10  C   UNL     1      31.544  -5.135 -23.104  0.00  0.00    +0.054 C 
ATOM     11  C   UNL     1      30.724  -4.094 -22.671  0.00  0.00    -0.008 C 
ATOM     12  C   UNL     1      32.555  -4.885 -24.033  0.00  0.00    +0.019 C 
ATOM     13  C   UNL     1      32.745  -3.596 -24.527  0.00  0.00    +0.055 C 
ATOM     14  C   UNL     1      30.914  -2.804 -23.165  0.00  0.00    -0.003 C 
ATOM     15  C   UNL     1      31.924  -2.554 -24.094  0.00  0.00    +0.004 C 
ATOM     16  C   UNL     1      29.634  -4.332 -21.677  0.00  0.00    +0.032 C 
BRANCH  13  19
ATOM     17  O   UNL     1      33.817  -2.272 -26.138  0.00  0.00    -0.270 OA
ATOM     18  N   UNL     1      34.781  -4.322 -25.646  0.00  0.00    -0.299 N 
ATOM     19  C   UNL     1      33.798  -3.336 -25.497  0.00  0.00    +0.246 C 
ATOM     20  C   UNL     1      35.903  -4.201 -26.549  0.00  0.00    +0.111 C 
ATOM     21  H   UNL     1      34.705  -5.141 -25.106  0.00  0.00    +0.150 HD
ENDBRANCH  13  19
ENDBRANCH   3  10
BRANCH   7  22
ATOM     22  O   UNL     1      30.954 -10.375 -21.189  0.00  0.00    -0.470 OA
BRANCH  22  23
ATOM     23  C   UNL     1      31.109 -11.229 -22.307  0.00  0.00    +0.234 C 
BRANCH  23  26
ATOM     24  F   UNL     1      33.087 -12.240 -24.062  0.00  0.00    -0.204 F 
ATOM     25  F   UNL     1      34.563 -15.452 -20.917  0.00  0.00    -0.204 F 
ATOM     26  C   UNL     1      32.032 -12.354 -21.938  0.00  0.00    +0.049 C 
ATOM     27  C   UNL     1      32.985 -12.805 -22.851  0.00  0.00    +0.142 C 
ATOM     28  C   UNL     1      31.934 -12.949 -20.680  0.00  0.00    +0.004 C 
ATOM     29  C   UNL     1      33.840 -13.852 -22.506  0.00  0.00    +0.059 C 
ATOM     30  C   UNL     1      32.789 -13.995 -20.336  0.00  0.00    +0.030 C 
ATOM     31  C   UNL     1      33.742 -14.447 -21.248  0.00  0.00    +0.142 C 
ENDBRANCH  23  26
ENDBRANCH  22  23
ENDBRANCH   7  22
TORSDOF 5
ENDMDL
MODEL 5
REMARK VINA RESULT:      -9.5      6.895     11.312
REMARK  Name = 22049997
REMARK  5 active torsions:
REMARK  status: ('A' for Active; 'I' for Inactive)
REMARK    1  A    between atoms: N_3  and  C_10
REMARK    2  A    between atoms: C_7  and  O_22
REMARK    3  A    between atoms: C_13  and  C_19
REMARK    4  A    between atoms: O_22  and  C_23
REMARK    5  A    between atoms: C_23  and  C_26
REMARK                            x       y       z     vdW  Elec       q    Type
REMARK                         _______ _______ _______ _____ _____    ______ ____
ROOT
ATOM      1 BR   UNL     1      30.663 -11.574 -21.921  0.00  0.00    -0.041 Br
ATOM      2  O   UNL     1      30.457  -8.561 -21.719  0.00  0.00    -0.269 OA
ATOM      3  N   UNL     1      32.436  -7.863 -22.780  0.00  0.00    -0.237 N 
ATOM      4  C   UNL     1      33.630  -8.253 -23.417  0.00  0.00    +0.039 C 
ATOM      5  C   UNL     1      31.504  -8.829 -22.314  0.00  0.00    +0.265 C 
ATOM      6  C   UNL     1      33.918  -9.556 -23.579  0.00  0.00    +0.048 C 
ATOM      7  C   UNL     1      33.029 -10.578 -23.113  0.00  0.00    +0.151 C 
ATOM      8  C   UNL     1      31.865 -10.274 -22.523  0.00  0.00    +0.122 C 
ATOM      9  C   UNL     1      34.549  -7.230 -24.034  0.00  0.00    +0.048 C 
ENDROOT
BRANCH   3  10
ATOM     10  C   UNL     1      32.098  -6.480 -22.549  0.00  0.00    +0.054 C 
ATOM     11  C   UNL     1      32.188  -5.927 -21.272  0.00  0.00    -0.008 C 
ATOM     12  C   UNL     1      31.678  -5.694 -23.622  0.00  0.00    +0.019 C 
ATOM     13  C   UNL     1      31.348  -4.355 -23.418  0.00  0.00    +0.055 C 
ATOM     14  C   UNL     1      31.859  -4.586 -21.068  0.00  0.00    -0.003 C 
ATOM     15  C   UNL     1      31.438  -3.801 -22.141  0.00  0.00    +0.004 C 
ATOM     16  C   UNL     1      32.636  -6.744 -20.104  0.00  0.00    +0.032 C 
BRANCH  13  19
ATOM     17  O   UNL     1      29.843  -2.898 -24.472  0.00  0.00    -0.270 OA
ATOM     18  N   UNL     1      31.747  -3.488 -25.657  0.00  0.00    -0.299 N 
ATOM     19  C   UNL     1      30.908  -3.536 -24.537  0.00  0.00    +0.246 C 
ATOM     20  C   UNL     1      31.461  -2.702 -26.836  0.00  0.00    +0.111 C 
ATOM     21  H   UNL     1      32.575  -4.019 -25.641  0.00  0.00    +0.150 HD
ENDBRANCH  13  19
ENDBRANCH   3  10
BRANCH   7  22
ATOM     22  O   UNL     1      33.467 -11.862 -23.347  0.00  0.00    -0.470 OA
BRANCH  22  23
ATOM     23  C   UNL     1      33.547 -12.596 -22.140  0.00  0.00    +0.234 C 
BRANCH  23  26
ATOM     24  F   UNL     1      34.167 -14.518 -20.156  0.00  0.00    -0.204 F 
ATOM     25  F   UNL     1      34.685 -17.976 -23.343  0.00  0.00    -0.204 F 
ATOM     26  C   UNL     1      33.850 -14.031 -22.458  0.00  0.00    +0.049 C 
ATOM     27  C   UNL     1      34.148 -14.928 -21.432  0.00  0.00    +0.142 C 
ATOM     28  C   UNL     1      33.833 -14.467 -23.783  0.00  0.00    +0.004 C 
ATOM     29  C   UNL     1      34.430 -16.260 -21.732  0.00  0.00    +0.059 C 
ATOM     30  C   UNL     1      34.115 -15.799 -24.081  0.00  0.00    +0.030 C 
ATOM     31  C   UNL     1      34.414 -16.696 -23.056  0.00  0.00    +0.142 C 
ENDBRANCH  23  26
ENDBRANCH  22  23
ENDBRANCH   7  22
TORSDOF 5
ENDMDL
MODEL 6
REMARK VINA RESULT:      -9.2      4.630     10.318
REMARK  Name = 22049997
REMARK  5 active torsions:
REMARK  status: ('A' for Active; 'I' for Inactive)
REMARK    1  A    between atoms: N_3  and  C_10
REMARK    2  A    between atoms: C_7  and  O_22
REMARK    3  A    between atoms: C_13  and  C_19
REMARK    4  A    between atoms: O_22  and  C_23
REMARK    5  A    between atoms: C_23  and  C_26
REMARK                            x       y       z     vdW  Elec       q    Type
REMARK                         _______ _______ _______ _____ _____    ______ ____
ROOT
ATOM      1 BR   UNL     1      31.685 -23.598 -16.056  0.00  0.00    -0.041 Br
ATOM      2  O   UNL     1      33.991 -24.431 -14.282  0.00  0.00    -0.269 OA
ATOM      3  N   UNL     1      35.764 -23.152 -15.150  0.00  0.00    -0.237 N 
ATOM      4  C   UNL     1      36.176 -22.222 -16.124  0.00  0.00    +0.039 C 
ATOM      5  C   UNL     1      34.415 -23.596 -15.085  0.00  0.00    +0.265 C 
ATOM      6  C   UNL     1      35.300 -21.750 -17.026  0.00  0.00    +0.048 C 
ATOM      7  C   UNL     1      33.931 -22.174 -17.025  0.00  0.00    +0.151 C 
ATOM      8  C   UNL     1      33.468 -23.035 -16.109  0.00  0.00    +0.122 C 
ATOM      9  C   UNL     1      37.570 -21.647 -16.104  0.00  0.00    +0.048 C 
ENDROOT
BRANCH   3  10
ATOM     10  C   UNL     1      36.673 -23.716 -14.184  0.00  0.00    +0.054 C 
ATOM     11  C   UNL     1      36.479 -23.516 -12.817  0.00  0.00    -0.008 C 
ATOM     12  C   UNL     1      37.757 -24.473 -14.631  0.00  0.00    +0.019 C 
ATOM     13  C   UNL     1      38.646 -25.028 -13.712  0.00  0.00    +0.055 C 
ATOM     14  C   UNL     1      37.369 -24.072 -11.898  0.00  0.00    -0.003 C 
ATOM     15  C   UNL     1      38.453 -24.828 -12.345  0.00  0.00    +0.004 C 
ATOM     16  C   UNL     1      35.327 -22.711 -12.310  0.00  0.00    +0.032 C 
BRANCH  13  19
ATOM     17  O   UNL     1      40.065 -25.854 -15.386  0.00  0.00    -0.270 OA
ATOM     18  N   UNL     1      40.522 -26.494 -13.205  0.00  0.00    -0.299 N 
ATOM     19  C   UNL     1      39.777 -25.815 -14.178  0.00  0.00    +0.246 C 
ATOM     20  C   UNL     1      41.686 -27.296 -13.507  0.00  0.00    +0.111 C 
ATOM     21  H   UNL     1      40.238 -26.420 -12.266  0.00  0.00    +0.150 HD
ENDBRANCH  13  19
ENDBRANCH   3  10
BRANCH   7  22
ATOM     22  O   UNL     1      33.161 -21.605 -18.015  0.00  0.00    -0.470 OA
BRANCH  22  23
ATOM     23  C   UNL     1      33.656 -21.944 -19.297  0.00  0.00    +0.234 C 
BRANCH  23  26
ATOM     24  F   UNL     1      32.074 -20.057 -20.692  0.00  0.00    -0.204 F 
ATOM     25  F   UNL     1      35.808 -17.336 -21.711  0.00  0.00    -0.204 F 
ATOM     26  C   UNL     1      34.228 -20.714 -19.940  0.00  0.00    +0.049 C 
ATOM     27  C   UNL     1      33.391 -19.824 -20.614  0.00  0.00    +0.142 C 
ATOM     28  C   UNL     1      35.598 -20.463 -19.865  0.00  0.00    +0.004 C 
ATOM     29  C   UNL     1      33.925 -18.683 -21.212  0.00  0.00    +0.059 C 
ATOM     30  C   UNL     1      36.131 -19.322 -20.463  0.00  0.00    +0.030 C 
ATOM     31  C   UNL     1      35.295 -18.432 -21.137  0.00  0.00    +0.142 C 
ENDBRANCH  23  26
ENDBRANCH  22  23
ENDBRANCH   7  22
TORSDOF 5
ENDMDL
MODEL 7
REMARK VINA RESULT:      -9.2      7.635     13.753
REMARK  Name = 22049997
REMARK  5 active torsions:
REMARK  status: ('A' for Active; 'I' for Inactive)
REMARK    1  A    between atoms: N_3  and  C_10
REMARK    2  A    between atoms: C_7  and  O_22
REMARK    3  A    between atoms: C_13  and  C_19
REMARK    4  A    between atoms: O_22  and  C_23
REMARK    5  A    between atoms: C_23  and  C_26
REMARK                            x       y       z     vdW  Elec       q    Type
REMARK                         _______ _______ _______ _____ _____    ______ ____
ROOT
ATOM      1 BR   UNL     1      34.219  -7.160 -23.572  0.00  0.00    -0.041 Br
ATOM      2  O   UNL     1      34.451 -10.146 -24.009  0.00  0.00    -0.269 OA
ATOM      3  N   UNL     1      32.553 -10.954 -22.878  0.00  0.00    -0.237 N 
ATOM      4  C   UNL     1      31.424 -10.636 -22.100  0.00  0.00    +0.039 C 
ATOM      5  C   UNL     1      33.427  -9.938 -23.352  0.00  0.00    +0.265 C 
ATOM      6  C   UNL     1      31.162  -9.359 -21.774  0.00  0.00    +0.048 C 
ATOM      7  C   UNL     1      32.016  -8.292 -22.204  0.00  0.00    +0.151 C 
ATOM      8  C   UNL     1      33.091  -8.524 -22.969  0.00  0.00    +0.122 C 
ATOM      9  C   UNL     1      30.423 -11.697 -21.717  0.00  0.00    +0.048 C 
ENDROOT
BRANCH   3  10
ATOM     10  C   UNL     1      32.898 -12.311 -23.224  0.00  0.00    +0.054 C 
ATOM     11  C   UNL     1      32.725 -12.784 -24.524  0.00  0.00    -0.008 C 
ATOM     12  C   UNL     1      33.414 -13.153 -22.238  0.00  0.00    +0.019 C 
ATOM     13  C   UNL     1      33.754 -14.468 -22.553  0.00  0.00    +0.055 C 
ATOM     14  C   UNL     1      33.067 -14.099 -24.839  0.00  0.00    -0.003 C 
ATOM     15  C   UNL     1      33.581 -14.942 -23.854  0.00  0.00    +0.004 C 
ATOM     16  C   UNL     1      32.176 -11.904 -25.600  0.00  0.00    +0.032 C 
BRANCH  13  19
ATOM     17  O   UNL     1      34.248 -15.017 -20.328  0.00  0.00    -0.270 OA
ATOM     18  N   UNL     1      34.822 -16.571 -21.951  0.00  0.00    -0.299 N 
ATOM     19  C   UNL     1      34.290 -15.347 -21.525  0.00  0.00    +0.246 C 
ATOM     20  C   UNL     1      35.369 -17.560 -21.050  0.00  0.00    +0.111 C 
ATOM     21  H   UNL     1      34.824 -16.768 -22.915  0.00  0.00    +0.150 HD
ENDBRANCH  13  19
ENDBRANCH   3  10
BRANCH   7  22
ATOM     22  O   UNL     1      31.618  -7.042 -21.784  0.00  0.00    -0.470 OA
BRANCH  22  23
ATOM     23  C   UNL     1      30.538  -6.568 -22.566  0.00  0.00    +0.234 C 
BRANCH  23  26
ATOM     24  F   UNL     1      30.989  -6.521 -25.361  0.00  0.00    -0.204 F 
ATOM     25  F   UNL     1      32.172  -1.940 -25.325  0.00  0.00    -0.204 F 
ATOM     26  C   UNL     1      30.972  -5.335 -23.304  0.00  0.00    +0.049 C 
ATOM     27  C   UNL     1      31.178  -5.380 -24.683  0.00  0.00    +0.142 C 
ATOM     28  C   UNL     1      31.172  -4.143 -22.608  0.00  0.00    +0.004 C 
ATOM     29  C   UNL     1      31.583  -4.233 -25.365  0.00  0.00    +0.059 C 
ATOM     30  C   UNL     1      31.578  -2.997 -23.290  0.00  0.00    +0.030 C 
ATOM     31  C   UNL     1      31.783  -3.042 -24.669  0.00  0.00    +0.142 C 
ENDBRANCH  23  26
ENDBRANCH  22  23
ENDBRANCH   7  22
TORSDOF 5
ENDMDL
