MODEL 1
REMARK VINA RESULT:     -10.9      0.000      0.000
REMARK  Name = 46937106
REMARK  6 active torsions:
REMARK  status: ('A' for Active; 'I' for Inactive)
REMARK    1  A    between atoms: C_1  and  S_13
REMARK    2  A    between atoms: C_2  and  C_7
REMARK    3  A    between atoms: S_13  and  N_16
REMARK    4  A    between atoms: N_16  and  C_18
REMARK    5  A    between atoms: C_18  and  C_20
REMARK    6  A    between atoms: C_20  and  N_22
REMARK                            x       y       z     vdW  Elec       q    Type
REMARK                         _______ _______ _______ _____ _____    ______ ____
ROOT
ATOM      1  C   UNL     1      33.444 -21.501 -18.941  0.00  0.00    +0.122 C 
ATOM      2  C   UNL     1      33.873 -19.469 -20.805  0.00  0.00    +0.000 C 
ATOM      3  C   UNL     1      34.744 -21.160 -19.316  0.00  0.00    +0.020 C 
ATOM      4  C   UNL     1      32.358 -20.825 -19.499  0.00  0.00    +0.020 C 
ATOM      5  C   UNL     1      34.957 -20.144 -20.247  0.00  0.00    +0.001 C 
ATOM      6  C   UNL     1      32.572 -19.810 -20.430  0.00  0.00    +0.001 C 
ENDROOT
BRANCH   2   7
ATOM      7  C   UNL     1      34.095 -18.414 -21.770  0.00  0.00    +0.000 C 
ATOM      8  C   UNL     1      34.597 -17.182 -21.352  0.00  0.00    +0.000 C 
ATOM      9  C   UNL     1      33.809 -18.631 -23.117  0.00  0.00    +0.000 C 
ATOM     10  C   UNL     1      34.811 -16.165 -22.284  0.00  0.00    +0.000 C 
ATOM     11  C   UNL     1      34.023 -17.614 -24.048  0.00  0.00    +0.000 C 
ATOM     12  C   UNL     1      34.524 -16.382 -23.631  0.00  0.00    +0.000 C 
ENDBRANCH   2   7
BRANCH   1  13
ATOM     13  S   UNL     1      33.175 -22.773 -17.776  0.00  0.00    +0.061 S 
ATOM     14  O   UNL     1      33.114 -24.048 -18.478  0.00  0.00    -0.153 OA
ATOM     15  O   UNL     1      34.139 -22.598 -16.697  0.00  0.00    -0.153 OA
BRANCH  13  16
ATOM     16  N   UNL     1      31.617 -22.401 -17.179  0.00  0.00    -0.170 NA
ATOM     17  H   UNL     1      30.953 -22.651 -17.912  0.00  0.00    +0.149 HD
BRANCH  16  18
ATOM     18  C   UNL     1      31.139 -23.029 -15.940  0.00  0.00    +0.180 C 
BRANCH  18  20
ATOM     19  O   UNL     1      29.167 -22.600 -14.611  0.00  0.00    -0.269 OA
ATOM     20  C   UNL     1      29.702 -22.638 -15.712  0.00  0.00    +0.288 C 
BRANCH  20  22
ATOM     21  O   UNL     1      27.887 -21.538 -16.497  0.00  0.00    -0.071 OA
ATOM     22  N   UNL     1      28.826 -22.267 -16.832  0.00  0.00    -0.027 NA
ENDBRANCH  20  22
ENDBRANCH  18  20
ENDBRANCH  16  18
ENDBRANCH  13  16
ENDBRANCH   1  13
TORSDOF 6
ENDMDL
MODEL 2
REMARK VINA RESULT:     -10.9      4.375      6.070
REMARK  Name = 46937106
REMARK  6 active torsions:
REMARK  status: ('A' for Active; 'I' for Inactive)
REMARK    1  A    between atoms: C_1  and  S_13
REMARK    2  A    between atoms: C_2  and  C_7
REMARK    3  A    between atoms: S_13  and  N_16
REMARK    4  A    between atoms: N_16  and  C_18
REMARK    5  A    between atoms: C_18  and  C_20
REMARK    6  A    between atoms: C_20  and  N_22
REMARK                            x       y       z     vdW  Elec       q    Type
REMARK                         _______ _______ _______ _____ _____    ______ ____
ROOT
ATOM      1  C   UNL     1      34.657 -16.520 -21.645  0.00  0.00    +0.122 C 
ATOM      2  C   UNL     1      33.463 -14.014 -21.927  0.00  0.00    +0.000 C 
ATOM      3  C   UNL     1      34.481 -15.969 -22.916  0.00  0.00    +0.020 C 
ATOM      4  C   UNL     1      34.236 -15.817 -20.516  0.00  0.00    +0.020 C 
ATOM      5  C   UNL     1      33.885 -14.716 -23.055  0.00  0.00    +0.001 C 
ATOM      6  C   UNL     1      33.639 -14.565 -20.657  0.00  0.00    +0.001 C 
ENDROOT
BRANCH   2   7
ATOM      7  C   UNL     1      32.845 -12.714 -22.073  0.00  0.00    +0.000 C 
ATOM      8  C   UNL     1      33.203 -11.887 -23.138  0.00  0.00    +0.000 C 
ATOM      9  C   UNL     1      31.891 -12.288 -21.149  0.00  0.00    +0.000 C 
ATOM     10  C   UNL     1      32.607 -10.634 -23.278  0.00  0.00    +0.000 C 
ATOM     11  C   UNL     1      31.295 -11.035 -21.290  0.00  0.00    +0.000 C 
ATOM     12  C   UNL     1      31.653 -10.208 -22.354  0.00  0.00    +0.000 C 
ENDBRANCH   2   7
BRANCH   1  13
ATOM     13  S   UNL     1      35.404 -18.088 -21.469  0.00  0.00    +0.061 S 
ATOM     14  O   UNL     1      35.883 -18.528 -22.773  0.00  0.00    -0.153 OA
ATOM     15  O   UNL     1      36.338 -18.012 -20.354  0.00  0.00    -0.153 OA
BRANCH  13  16
ATOM     16  N   UNL     1      34.085 -19.073 -21.009  0.00  0.00    -0.170 NA
ATOM     17  H   UNL     1      33.676 -19.439 -21.868  0.00  0.00    +0.149 HD
BRANCH  16  18
ATOM     18  C   UNL     1      34.305 -20.223 -20.120  0.00  0.00    +0.180 C 
BRANCH  18  20
ATOM     19  O   UNL     1      31.899 -20.214 -19.902  0.00  0.00    -0.269 OA
ATOM     20  C   UNL     1      32.972 -20.755 -19.665  0.00  0.00    +0.288 C 
BRANCH  20  22
ATOM     21  O   UNL     1      31.916 -22.004 -18.101  0.00  0.00    -0.071 OA
ATOM     22  N   UNL     1      32.873 -21.994 -18.882  0.00  0.00    -0.027 NA
ENDBRANCH  20  22
ENDBRANCH  18  20
ENDBRANCH  16  18
ENDBRANCH  13  16
ENDBRANCH   1  13
TORSDOF 6
ENDMDL
MODEL 3
REMARK VINA RESULT:     -10.9      3.700      5.158
REMARK  Name = 46937106
REMARK  6 active torsions:
REMARK  status: ('A' for Active; 'I' for Inactive)
REMARK    1  A    between atoms: C_1  and  S_13
REMARK    2  A    between atoms: C_2  and  C_7
REMARK    3  A    between atoms: S_13  and  N_16
REMARK    4  A    between atoms: N_16  and  C_18
REMARK    5  A    between atoms: C_18  and  C_20
REMARK    6  A    between atoms: C_20  and  N_22
REMARK                            x       y       z     vdW  Elec       q    Type
REMARK                         _______ _______ _______ _____ _____    ______ ____
ROOT
ATOM      1  C   UNL     1      35.123 -22.247 -16.855  0.00  0.00    +0.122 C 
ATOM      2  C   UNL     1      35.159 -20.648 -19.141  0.00  0.00    +0.000 C 
ATOM      3  C   UNL     1      36.265 -21.510 -17.174  0.00  0.00    +0.020 C 
ATOM      4  C   UNL     1      34.000 -22.184 -17.681  0.00  0.00    +0.020 C 
ATOM      5  C   UNL     1      36.281 -20.710 -18.316  0.00  0.00    +0.001 C 
ATOM      6  C   UNL     1      34.018 -21.385 -18.823  0.00  0.00    +0.001 C 
ENDROOT
BRANCH   2   7
ATOM      7  C   UNL     1      35.177 -19.817 -20.326  0.00  0.00    +0.000 C 
ATOM      8  C   UNL     1      34.071 -19.791 -21.175  0.00  0.00    +0.000 C 
ATOM      9  C   UNL     1      36.300 -19.044 -20.618  0.00  0.00    +0.000 C 
ATOM     10  C   UNL     1      34.088 -18.990 -22.318  0.00  0.00    +0.000 C 
ATOM     11  C   UNL     1      36.317 -18.243 -21.760  0.00  0.00    +0.000 C 
ATOM     12  C   UNL     1      35.211 -18.216 -22.610  0.00  0.00    +0.000 C 
ENDBRANCH   2   7
BRANCH   1  13
ATOM     13  S   UNL     1      35.101 -23.248 -15.425  0.00  0.00    +0.061 S 
ATOM     14  O   UNL     1      34.948 -22.392 -14.256  0.00  0.00    -0.153 OA
ATOM     15  O   UNL     1      34.146 -24.325 -15.651  0.00  0.00    -0.153 OA
BRANCH  13  16
ATOM     16  N   UNL     1      36.677 -23.910 -15.416  0.00  0.00    -0.170 NA
ATOM     17  H   UNL     1      37.318 -23.151 -15.642  0.00  0.00    +0.149 HD
BRANCH  16  18
ATOM     18  C   UNL     1      37.193 -24.554 -14.200  0.00  0.00    +0.180 C 
BRANCH  18  20
ATOM     19  O   UNL     1      38.519 -26.569 -14.359  0.00  0.00    -0.269 OA
ATOM     20  C   UNL     1      37.432 -26.015 -14.480  0.00  0.00    +0.288 C 
BRANCH  20  22
ATOM     21  O   UNL     1      36.271 -26.990 -16.159  0.00  0.00    -0.071 OA
ATOM     22  N   UNL     1      36.344 -26.893 -14.930  0.00  0.00    -0.027 NA
ENDBRANCH  20  22
ENDBRANCH  18  20
ENDBRANCH  16  18
ENDBRANCH  13  16
ENDBRANCH   1  13
TORSDOF 6
ENDMDL
MODEL 4
REMARK VINA RESULT:     -10.8      4.456      6.421
REMARK  Name = 46937106
REMARK  6 active torsions:
REMARK  status: ('A' for Active; 'I' for Inactive)
REMARK    1  A    between atoms: C_1  and  S_13
REMARK    2  A    between atoms: C_2  and  C_7
REMARK    3  A    between atoms: S_13  and  N_16
REMARK    4  A    between atoms: N_16  and  C_18
REMARK    5  A    between atoms: C_18  and  C_20
REMARK    6  A    between atoms: C_20  and  N_22
REMARK                            x       y       z     vdW  Elec       q    Type
REMARK                         _______ _______ _______ _____ _____    ______ ____
ROOT
ATOM      1  C   UNL     1      34.704 -16.646 -22.071  0.00  0.00    +0.122 C 
ATOM      2  C   UNL     1      33.490 -14.135 -22.131  0.00  0.00    +0.000 C 
ATOM      3  C   UNL     1      34.420 -16.037 -23.294  0.00  0.00    +0.020 C 
ATOM      4  C   UNL     1      34.380 -15.999 -20.878  0.00  0.00    +0.020 C 
ATOM      5  C   UNL     1      33.814 -14.782 -23.323  0.00  0.00    +0.001 C 
ATOM      6  C   UNL     1      33.774 -14.744 -20.908  0.00  0.00    +0.001 C 
ENDROOT
BRANCH   2   7
ATOM      7  C   UNL     1      32.861 -12.832 -22.162  0.00  0.00    +0.000 C 
ATOM      8  C   UNL     1      31.921 -12.489 -21.191  0.00  0.00    +0.000 C 
ATOM      9  C   UNL     1      33.196 -11.920 -23.162  0.00  0.00    +0.000 C 
ATOM     10  C   UNL     1      31.315 -11.232 -21.221  0.00  0.00    +0.000 C 
ATOM     11  C   UNL     1      32.590 -10.664 -23.193  0.00  0.00    +0.000 C 
ATOM     12  C   UNL     1      31.650 -10.320 -22.222  0.00  0.00    +0.000 C 
ENDBRANCH   2   7
BRANCH   1  13
ATOM     13  S   UNL     1      35.464 -18.218 -22.034  0.00  0.00    +0.061 S 
ATOM     14  O   UNL     1      34.901 -19.036 -23.100  0.00  0.00    -0.153 OA
ATOM     15  O   UNL     1      36.905 -18.013 -21.977  0.00  0.00    -0.153 OA
BRANCH  13  16
ATOM     16  N   UNL     1      34.942 -18.842 -20.531  0.00  0.00    -0.170 NA
ATOM     17  H   UNL     1      34.713 -18.042 -19.942  0.00  0.00    +0.149 HD
BRANCH  16  18
ATOM     18  C   UNL     1      33.791 -19.755 -20.477  0.00  0.00    +0.180 C 
BRANCH  18  20
ATOM     19  O   UNL     1      33.246 -21.518 -18.918  0.00  0.00    -0.269 OA
ATOM     20  C   UNL     1      34.098 -20.878 -19.522  0.00  0.00    +0.288 C 
BRANCH  20  22
ATOM     21  O   UNL     1      36.037 -20.595 -18.390  0.00  0.00    -0.071 OA
ATOM     22  N   UNL     1      35.482 -21.289 -19.248  0.00  0.00    -0.027 NA
ENDBRANCH  20  22
ENDBRANCH  18  20
ENDBRANCH  16  18
ENDBRANCH  13  16
ENDBRANCH   1  13
TORSDOF 6
ENDMDL
MODEL 5
REMARK VINA RESULT:     -10.7      2.408      3.846
REMARK  Name = 46937106
REMARK  6 active torsions:
REMARK  status: ('A' for Active; 'I' for Inactive)
REMARK    1  A    between atoms: C_1  and  S_13
REMARK    2  A    between atoms: C_2  and  C_7
REMARK    3  A    between atoms: S_13  and  N_16
REMARK    4  A    between atoms: N_16  and  C_18
REMARK    5  A    between atoms: C_18  and  C_20
REMARK    6  A    between atoms: C_20  and  N_22
REMARK                            x       y       z     vdW  Elec       q    Type
REMARK                         _______ _______ _______ _____ _____    ______ ____
ROOT
ATOM      1  C   UNL     1      33.522 -21.568 -18.686  0.00  0.00    +0.122 C 
ATOM      2  C   UNL     1      33.903 -19.615 -20.641  0.00  0.00    +0.000 C 
ATOM      3  C   UNL     1      32.420 -20.943 -19.272  0.00  0.00    +0.020 C 
ATOM      4  C   UNL     1      34.814 -21.216 -19.078  0.00  0.00    +0.020 C 
ATOM      5  C   UNL     1      32.612 -19.967 -20.250  0.00  0.00    +0.001 C 
ATOM      6  C   UNL     1      35.004 -20.240 -20.055  0.00  0.00    +0.001 C 
ENDROOT
BRANCH   2   7
ATOM      7  C   UNL     1      34.100 -18.603 -21.656  0.00  0.00    +0.000 C 
ATOM      8  C   UNL     1      34.674 -17.378 -21.316  0.00  0.00    +0.000 C 
ATOM      9  C   UNL     1      33.718 -18.852 -22.974  0.00  0.00    +0.000 C 
ATOM     10  C   UNL     1      34.864 -16.402 -22.296  0.00  0.00    +0.000 C 
ATOM     11  C   UNL     1      33.908 -17.877 -23.952  0.00  0.00    +0.000 C 
ATOM     12  C   UNL     1      34.482 -16.652 -23.613  0.00  0.00    +0.000 C 
ENDBRANCH   2   7
BRANCH   1  13
ATOM     13  S   UNL     1      33.284 -22.790 -17.462  0.00  0.00    +0.061 S 
ATOM     14  O   UNL     1      32.268 -22.325 -16.526  0.00  0.00    -0.153 OA
ATOM     15  O   UNL     1      33.099 -24.067 -18.139  0.00  0.00    -0.153 OA
BRANCH  13  16
ATOM     16  N   UNL     1      34.795 -22.811 -16.664  0.00  0.00    -0.170 NA
ATOM     17  H   UNL     1      35.366 -22.085 -17.095  0.00  0.00    +0.149 HD
BRANCH  16  18
ATOM     18  C   UNL     1      34.859 -22.597 -15.211  0.00  0.00    +0.180 C 
BRANCH  18  20
ATOM     19  O   UNL     1      37.072 -22.430 -14.256  0.00  0.00    -0.269 OA
ATOM     20  C   UNL     1      36.168 -23.132 -14.692  0.00  0.00    +0.288 C 
BRANCH  20  22
ATOM     21  O   UNL     1      35.592 -25.246 -15.257  0.00  0.00    -0.071 OA
ATOM     22  N   UNL     1      36.450 -24.573 -14.677  0.00  0.00    -0.027 NA
ENDBRANCH  20  22
ENDBRANCH  18  20
ENDBRANCH  16  18
ENDBRANCH  13  16
ENDBRANCH   1  13
TORSDOF 6
ENDMDL
MODEL 6
REMARK VINA RESULT:     -10.7      4.520      5.925
REMARK  Name = 46937106
REMARK  6 active torsions:
REMARK  status: ('A' for Active; 'I' for Inactive)
REMARK    1  A    between atoms: C_1  and  S_13
REMARK    2  A    between atoms: C_2  and  C_7
REMARK    3  A    between atoms: S_13  and  N_16
REMARK    4  A    between atoms: N_16  and  C_18
REMARK    5  A    between atoms: C_18  and  C_20
REMARK    6  A    between atoms: C_20  and  N_22
REMARK                            x       y       z     vdW  Elec       q    Type
REMARK                         _______ _______ _______ _____ _____    ______ ____
ROOT
ATOM      1  C   UNL     1      35.996 -22.899 -15.533  0.00  0.00    +0.122 C 
ATOM      2  C   UNL     1      34.999 -21.592 -17.788  0.00  0.00    +0.000 C 
ATOM      3  C   UNL     1      34.666 -23.079 -15.913  0.00  0.00    +0.020 C 
ATOM      4  C   UNL     1      36.828 -22.064 -16.281  0.00  0.00    +0.020 C 
ATOM      5  C   UNL     1      34.169 -22.426 -17.040  0.00  0.00    +0.001 C 
ATOM      6  C   UNL     1      36.330 -21.412 -17.407  0.00  0.00    +0.001 C 
ENDROOT
BRANCH   2   7
ATOM      7  C   UNL     1      34.483 -20.915 -18.958  0.00  0.00    +0.000 C 
ATOM      8  C   UNL     1      35.359 -20.292 -19.845  0.00  0.00    +0.000 C 
ATOM      9  C   UNL     1      33.109 -20.887 -19.197  0.00  0.00    +0.000 C 
ATOM     10  C   UNL     1      34.860 -19.639 -20.974  0.00  0.00    +0.000 C 
ATOM     11  C   UNL     1      32.611 -20.234 -20.324  0.00  0.00    +0.000 C 
ATOM     12  C   UNL     1      33.487 -19.611 -21.213  0.00  0.00    +0.000 C 
ENDBRANCH   2   7
BRANCH   1  13
ATOM     13  S   UNL     1      36.620 -23.716 -14.122  0.00  0.00    +0.061 S 
ATOM     14  O   UNL     1      36.360 -25.144 -14.254  0.00  0.00    -0.153 OA
ATOM     15  O   UNL     1      37.986 -23.256 -13.909  0.00  0.00    -0.153 OA
BRANCH  13  16
ATOM     16  N   UNL     1      35.635 -23.093 -12.871  0.00  0.00    -0.170 NA
ATOM     17  H   UNL     1      34.972 -23.827 -12.624  0.00  0.00    +0.149 HD
BRANCH  16  18
ATOM     18  C   UNL     1      36.248 -22.633 -11.617  0.00  0.00    +0.180 C 
BRANCH  18  20
ATOM     19  O   UNL     1      36.085 -23.417  -9.337  0.00  0.00    -0.269 OA
ATOM     20  C   UNL     1      35.976 -23.646 -10.536  0.00  0.00    +0.288 C 
BRANCH  20  22
ATOM     21  O   UNL     1      36.491 -25.767 -11.134  0.00  0.00    -0.071 OA
ATOM     22  N   UNL     1      35.550 -25.013 -10.861  0.00  0.00    -0.027 NA
ENDBRANCH  20  22
ENDBRANCH  18  20
ENDBRANCH  16  18
ENDBRANCH  13  16
ENDBRANCH   1  13
TORSDOF 6
ENDMDL
MODEL 7
REMARK VINA RESULT:     -10.5      3.429      4.904
REMARK  Name = 46937106
REMARK  6 active torsions:
REMARK  status: ('A' for Active; 'I' for Inactive)
REMARK    1  A    between atoms: C_1  and  S_13
REMARK    2  A    between atoms: C_2  and  C_7
REMARK    3  A    between atoms: S_13  and  N_16
REMARK    4  A    between atoms: N_16  and  C_18
REMARK    5  A    between atoms: C_18  and  C_20
REMARK    6  A    between atoms: C_20  and  N_22
REMARK                            x       y       z     vdW  Elec       q    Type
REMARK                         _______ _______ _______ _____ _____    ______ ____
ROOT
ATOM      1  C   UNL     1      34.515 -22.406 -16.812  0.00  0.00    +0.122 C 
ATOM      2  C   UNL     1      34.871 -20.790 -19.059  0.00  0.00    +0.000 C 
ATOM      3  C   UNL     1      35.746 -21.788 -17.041  0.00  0.00    +0.020 C 
ATOM      4  C   UNL     1      33.462 -22.215 -17.708  0.00  0.00    +0.020 C 
ATOM      5  C   UNL     1      35.922 -20.981 -18.164  0.00  0.00    +0.001 C 
ATOM      6  C   UNL     1      33.640 -21.408 -18.831  0.00  0.00    +0.001 C 
ENDROOT
BRANCH   2   7
ATOM      7  C   UNL     1      35.054 -19.951 -20.224  0.00  0.00    +0.000 C 
ATOM      8  C   UNL     1      34.034 -19.837 -21.168  0.00  0.00    +0.000 C 
ATOM      9  C   UNL     1      36.251 -19.258 -20.402  0.00  0.00    +0.000 C 
ATOM     10  C   UNL     1      34.212 -19.028 -22.291  0.00  0.00    +0.000 C 
ATOM     11  C   UNL     1      36.428 -18.450 -21.525  0.00  0.00    +0.000 C 
ATOM     12  C   UNL     1      35.408 -18.335 -22.469  0.00  0.00    +0.000 C 
ENDBRANCH   2   7
BRANCH   1  13
ATOM     13  S   UNL     1      34.293 -23.417 -15.406  0.00  0.00    +0.061 S 
ATOM     14  O   UNL     1      32.867 -23.518 -15.122  0.00  0.00    -0.153 OA
ATOM     15  O   UNL     1      35.069 -24.634 -15.607  0.00  0.00    -0.153 OA
BRANCH  13  16
ATOM     16  N   UNL     1      35.034 -22.496 -14.171  0.00  0.00    -0.170 NA
ATOM     17  H   UNL     1      34.371 -21.767 -13.909  0.00  0.00    +0.149 HD
BRANCH  16  18
ATOM     18  C   UNL     1      35.462 -23.150 -12.927  0.00  0.00    +0.180 C 
BRANCH  18  20
ATOM     19  O   UNL     1      37.416 -22.165 -11.903  0.00  0.00    -0.269 OA
ATOM     20  C   UNL     1      36.938 -22.927 -12.736  0.00  0.00    +0.288 C 
BRANCH  20  22
ATOM     21  O   UNL     1      37.962 -23.232 -14.731  0.00  0.00    -0.071 OA
ATOM     22  N   UNL     1      37.929 -23.630 -13.561  0.00  0.00    -0.027 NA
ENDBRANCH  20  22
ENDBRANCH  18  20
ENDBRANCH  16  18
ENDBRANCH  13  16
ENDBRANCH   1  13
TORSDOF 6
ENDMDL
MODEL 8
REMARK VINA RESULT:     -10.4      6.369      8.264
REMARK  Name = 46937106
REMARK  6 active torsions:
REMARK  status: ('A' for Active; 'I' for Inactive)
REMARK    1  A    between atoms: C_1  and  S_13
REMARK    2  A    between atoms: C_2  and  C_7
REMARK    3  A    between atoms: S_13  and  N_16
REMARK    4  A    between atoms: N_16  and  C_18
REMARK    5  A    between atoms: C_18  and  C_20
REMARK    6  A    between atoms: C_20  and  N_22
REMARK                            x       y       z     vdW  Elec       q    Type
REMARK                         _______ _______ _______ _____ _____    ______ ____
ROOT
ATOM      1  C   UNL     1      34.033 -16.690 -23.308  0.00  0.00    +0.122 C 
ATOM      2  C   UNL     1      34.358 -18.710 -21.411  0.00  0.00    +0.000 C 
ATOM      3  C   UNL     1      33.631 -17.994 -23.601  0.00  0.00    +0.020 C 
ATOM      4  C   UNL     1      34.598 -16.396 -22.066  0.00  0.00    +0.020 C 
ATOM      5  C   UNL     1      33.793 -19.002 -22.652  0.00  0.00    +0.001 C 
ATOM      6  C   UNL     1      34.760 -17.406 -21.118  0.00  0.00    +0.001 C 
ENDROOT
BRANCH   2   7
ATOM      7  C   UNL     1      34.525 -19.757 -20.427  0.00  0.00    +0.000 C 
ATOM      8  C   UNL     1      33.412 -20.447 -19.947  0.00  0.00    +0.000 C 
ATOM      9  C   UNL     1      35.799 -20.077 -19.959  0.00  0.00    +0.000 C 
ATOM     10  C   UNL     1      33.574 -21.457 -18.998  0.00  0.00    +0.000 C 
ATOM     11  C   UNL     1      35.961 -21.086 -19.010  0.00  0.00    +0.000 C 
ATOM     12  C   UNL     1      34.848 -21.776 -18.530  0.00  0.00    +0.000 C 
ENDBRANCH   2   7
BRANCH   1  13
ATOM     13  S   UNL     1      33.830 -15.426 -24.495  0.00  0.00    +0.061 S 
ATOM     14  O   UNL     1      35.140 -14.888 -24.837  0.00  0.00    -0.153 OA
ATOM     15  O   UNL     1      32.973 -15.944 -25.554  0.00  0.00    -0.153 OA
BRANCH  13  16
ATOM     16  N   UNL     1      32.962 -14.239 -23.623  0.00  0.00    -0.170 NA
ATOM     17  H   UNL     1      32.422 -14.731 -22.912  0.00  0.00    +0.149 HD
BRANCH  16  18
ATOM     18  C   UNL     1      33.685 -13.160 -22.937  0.00  0.00    +0.180 C 
BRANCH  18  20
ATOM     19  O   UNL     1      34.124 -13.449 -20.579  0.00  0.00    -0.269 OA
ATOM     20  C   UNL     1      33.331 -13.182 -21.474  0.00  0.00    +0.288 C 
BRANCH  20  22
ATOM     21  O   UNL     1      31.374 -12.079 -21.746  0.00  0.00    -0.071 OA
ATOM     22  N   UNL     1      31.970 -12.876 -21.014  0.00  0.00    -0.027 NA
ENDBRANCH  20  22
ENDBRANCH  18  20
ENDBRANCH  16  18
ENDBRANCH  13  16
ENDBRANCH   1  13
TORSDOF 6
ENDMDL
MODEL 9
REMARK VINA RESULT:     -10.3      4.706      6.701
REMARK  Name = 46937106
REMARK  6 active torsions:
REMARK  status: ('A' for Active; 'I' for Inactive)
REMARK    1  A    between atoms: C_1  and  S_13
REMARK    2  A    between atoms: C_2  and  C_7
REMARK    3  A    between atoms: S_13  and  N_16
REMARK    4  A    between atoms: N_16  and  C_18
REMARK    5  A    between atoms: C_18  and  C_20
REMARK    6  A    between atoms: C_20  and  N_22
REMARK                            x       y       z     vdW  Elec       q    Type
REMARK                         _______ _______ _______ _____ _____    ______ ____
ROOT
ATOM      1  C   UNL     1      35.276 -23.303 -13.797  0.00  0.00    +0.122 C 
ATOM      2  C   UNL     1      34.967 -22.231 -16.355  0.00  0.00    +0.000 C 
ATOM      3  C   UNL     1      36.375 -22.760 -14.464  0.00  0.00    +0.020 C 
ATOM      4  C   UNL     1      34.022 -23.310 -14.410  0.00  0.00    +0.020 C 
ATOM      5  C   UNL     1      36.220 -22.224 -15.742  0.00  0.00    +0.001 C 
ATOM      6  C   UNL     1      33.868 -22.775 -15.688  0.00  0.00    +0.001 C 
ENDROOT
BRANCH   2   7
ATOM      7  C   UNL     1      34.807 -21.675 -17.681  0.00  0.00    +0.000 C 
ATOM      8  C   UNL     1      35.907 -21.138 -18.349  0.00  0.00    +0.000 C 
ATOM      9  C   UNL     1      33.553 -21.676 -18.290  0.00  0.00    +0.000 C 
ATOM     10  C   UNL     1      35.752 -20.601 -19.627  0.00  0.00    +0.000 C 
ATOM     11  C   UNL     1      33.398 -21.139 -19.568  0.00  0.00    +0.000 C 
ATOM     12  C   UNL     1      34.498 -20.602 -20.237  0.00  0.00    +0.000 C 
ENDBRANCH   2   7
BRANCH   1  13
ATOM     13  S   UNL     1      35.469 -23.974 -12.197  0.00  0.00    +0.061 S 
ATOM     14  O   UNL     1      36.531 -23.250 -11.510  0.00  0.00    -0.153 OA
ATOM     15  O   UNL     1      34.149 -24.053 -11.586  0.00  0.00    -0.153 OA
BRANCH  13  16
ATOM     16  N   UNL     1      36.012 -25.561 -12.527  0.00  0.00    -0.170 NA
ATOM     17  H   UNL     1      35.505 -25.881 -13.351  0.00  0.00    +0.149 HD
BRANCH  16  18
ATOM     18  C   UNL     1      37.438 -25.808 -12.782  0.00  0.00    +0.180 C 
BRANCH  18  20
ATOM     19  O   UNL     1      38.622 -25.883 -14.887  0.00  0.00    -0.269 OA
ATOM     20  C   UNL     1      37.624 -26.164 -14.233  0.00  0.00    +0.288 C 
BRANCH  20  22
ATOM     21  O   UNL     1      35.731 -26.152 -15.472  0.00  0.00    -0.071 OA
ATOM     22  N   UNL     1      36.589 -26.891 -14.979  0.00  0.00    -0.027 NA
ENDBRANCH  20  22
ENDBRANCH  18  20
ENDBRANCH  16  18
ENDBRANCH  13  16
ENDBRANCH   1  13
TORSDOF 6
ENDMDL
