MODEL 1
REMARK VINA RESULT:     -11.9      0.000      0.000
REMARK  Name = 24801863
REMARK  4 active torsions:
REMARK  status: ('A' for Active; 'I' for Inactive)
REMARK    1  A    between atoms: N_1  and  C_19
REMARK    2  A    between atoms: C_5  and  C_11
REMARK    3  A    between atoms: N_18  and  C_25
REMARK    4  A    between atoms: C_25  and  C_28
REMARK                            x       y       z     vdW  Elec       q    Type
REMARK                         _______ _______ _______ _____ _____    ______ ____
ROOT
ATOM      1  N   UNL     1      33.242 -14.266 -23.731  0.00  0.00    -0.270 N 
ATOM      2  N   UNL     1      34.183 -16.224 -22.912  0.00  0.00    -0.336 NA
ATOM      3  N   UNL     1      32.739 -16.241 -24.841  0.00  0.00    -0.170 NA
ATOM      4  C   UNL     1      33.395 -15.636 -23.832  0.00  0.00    +0.145 C 
ATOM      5  C   UNL     1      34.310 -17.561 -23.041  0.00  0.00    +0.161 C 
ATOM      6  C   UNL     1      32.910 -17.578 -24.910  0.00  0.00    +0.114 C 
ATOM      7  C   UNL     1      33.691 -18.298 -24.030  0.00  0.00    +0.056 C 
ATOM      8  H   UNL     1      32.672 -13.811 -24.392  0.00  0.00    +0.159 HD
ENDROOT
BRANCH   5  11
ATOM      9  N   UNL     1      34.742 -19.129 -21.153  0.00  0.00    -0.246 N 
ATOM     10  N   UNL     1      36.918 -18.786 -20.763  0.00  0.00    -0.227 NA
ATOM     11  C   UNL     1      35.154 -18.183 -22.056  0.00  0.00    +0.107 C 
ATOM     12  C   UNL     1      35.855 -19.467 -20.386  0.00  0.00    +0.139 C 
ATOM     13  C   UNL     1      36.490 -17.991 -21.795  0.00  0.00    +0.118 C 
ATOM     14  C   UNL     1      33.483 -19.694 -20.974  0.00  0.00    +0.071 C 
ATOM     15  C   UNL     1      35.666 -20.447 -19.368  0.00  0.00    +0.035 C 
ATOM     16  C   UNL     1      33.313 -20.616 -20.012  0.00  0.00    +0.017 C 
ATOM     17  C   UNL     1      34.450 -20.997 -19.188  0.00  0.00    +0.004 C 
ENDBRANCH   5  11
BRANCH   1  19
ATOM     18  N   UNL     1      31.913 -11.500 -21.735  0.00  0.00    +0.393 N 
ATOM     19  C   UNL     1      33.877 -13.462 -22.704  0.00  0.00    +0.075 C 
ATOM     20  C   UNL     1      33.136 -13.621 -21.376  0.00  0.00    -0.003 C 
ATOM     21  C   UNL     1      33.902 -11.992 -23.125  0.00  0.00    -0.003 C 
ATOM     22  C   UNL     1      31.775 -12.918 -21.378  0.00  0.00    -0.075 C 
ATOM     23  C   UNL     1      32.514 -11.344 -23.066  0.00  0.00    -0.075 C 
ATOM     24  H   UNL     1      32.535 -11.064 -21.056  0.00  0.00    -0.079 HD
BRANCH  18  25
ATOM     25  C   UNL     1      30.614 -10.830 -21.679  0.00  0.00    +0.010 C 
BRANCH  25  28
ATOM     26  O   UNL     1      30.579  -8.537 -22.439  0.00  0.00    -0.277 OA
ATOM     27  N   UNL     1      31.345  -9.002 -20.296  0.00  0.00    -0.304 N 
ATOM     28  C   UNL     1      30.841  -9.338 -21.544  0.00  0.00    +0.201 C 
ATOM     29  C   UNL     1      31.626  -7.643 -19.894  0.00  0.00    +0.111 C 
ATOM     30  H   UNL     1      31.520  -9.726 -19.652  0.00  0.00    +0.149 HD
ENDBRANCH  25  28
ENDBRANCH  18  25
ENDBRANCH   1  19
TORSDOF 4
ENDMDL
MODEL 2
REMARK VINA RESULT:     -10.1      3.930      6.974
REMARK  Name = 24801863
REMARK  4 active torsions:
REMARK  status: ('A' for Active; 'I' for Inactive)
REMARK    1  A    between atoms: N_1  and  C_19
REMARK    2  A    between atoms: C_5  and  C_11
REMARK    3  A    between atoms: N_18  and  C_25
REMARK    4  A    between atoms: C_25  and  C_28
REMARK                            x       y       z     vdW  Elec       q    Type
REMARK                         _______ _______ _______ _____ _____    ______ ____
ROOT
ATOM      1  N   UNL     1      31.541  -8.057 -22.346  0.00  0.00    -0.270 N 
ATOM      2  N   UNL     1      32.035 -10.306 -22.641  0.00  0.00    -0.336 NA
ATOM      3  N   UNL     1      31.140  -9.484 -20.560  0.00  0.00    -0.170 NA
ATOM      4  C   UNL     1      31.574  -9.338 -21.827  0.00  0.00    +0.145 C 
ATOM      5  C   UNL     1      32.053 -11.543 -22.102  0.00  0.00    +0.161 C 
ATOM      6  C   UNL     1      31.186 -10.746 -20.085  0.00  0.00    +0.114 C 
ATOM      7  C   UNL     1      31.636 -11.825 -20.817  0.00  0.00    +0.056 C 
ATOM      8  H   UNL     1      31.206  -7.330 -21.772  0.00  0.00    +0.159 HD
ENDROOT
BRANCH   5  11
ATOM      9  N   UNL     1      33.212 -13.699 -22.567  0.00  0.00    -0.246 N 
ATOM     10  N   UNL     1      33.076 -13.819 -24.797  0.00  0.00    -0.227 NA
ATOM     11  C   UNL     1      32.546 -12.573 -22.977  0.00  0.00    +0.107 C 
ATOM     12  C   UNL     1      33.514 -14.430 -23.714  0.00  0.00    +0.139 C 
ATOM     13  C   UNL     1      32.476 -12.671 -24.347  0.00  0.00    +0.118 C 
ATOM     14  C   UNL     1      33.556 -14.107 -21.282  0.00  0.00    +0.071 C 
ATOM     15  C   UNL     1      34.215 -15.657 -23.535  0.00  0.00    +0.035 C 
ATOM     16  C   UNL     1      34.217 -15.265 -21.121  0.00  0.00    +0.017 C 
ATOM     17  C   UNL     1      34.552 -16.058 -22.293  0.00  0.00    +0.004 C 
ENDBRANCH   5  11
BRANCH   1  19
ATOM     18  N   UNL     1      31.844  -4.804 -23.997  0.00  0.00    +0.393 N 
ATOM     19  C   UNL     1      31.972  -7.725 -23.691  0.00  0.00    +0.075 C 
ATOM     20  C   UNL     1      33.214  -6.834 -23.643  0.00  0.00    -0.003 C 
ATOM     21  C   UNL     1      30.844  -7.024 -24.449  0.00  0.00    -0.003 C 
ATOM     22  C   UNL     1      32.894  -5.412 -23.170  0.00  0.00    -0.075 C 
ATOM     23  C   UNL     1      30.607  -5.594 -23.949  0.00  0.00    -0.075 C 
ATOM     24  H   UNL     1      32.171  -4.791 -24.963  0.00  0.00    -0.079 HD
BRANCH  18  25
ATOM     25  C   UNL     1      31.590  -3.428 -23.571  0.00  0.00    +0.010 C 
BRANCH  25  28
ATOM     26  O   UNL     1      29.751  -2.173 -24.508  0.00  0.00    -0.277 OA
ATOM     27  N   UNL     1      31.563  -2.699 -25.863  0.00  0.00    -0.304 N 
ATOM     28  C   UNL     1      30.847  -2.705 -24.674  0.00  0.00    +0.201 C 
ATOM     29  C   UNL     1      31.095  -2.053 -27.068  0.00  0.00    +0.111 C 
ATOM     30  H   UNL     1      32.434  -3.159 -25.886  0.00  0.00    +0.149 HD
ENDBRANCH  25  28
ENDBRANCH  18  25
ENDBRANCH   1  19
TORSDOF 4
ENDMDL
MODEL 3
REMARK VINA RESULT:      -9.7      3.248      5.802
REMARK  Name = 24801863
REMARK  4 active torsions:
REMARK  status: ('A' for Active; 'I' for Inactive)
REMARK    1  A    between atoms: N_1  and  C_19
REMARK    2  A    between atoms: C_5  and  C_11
REMARK    3  A    between atoms: N_18  and  C_25
REMARK    4  A    between atoms: C_25  and  C_28
REMARK                            x       y       z     vdW  Elec       q    Type
REMARK                         _______ _______ _______ _____ _____    ______ ____
ROOT
ATOM      1  N   UNL     1      33.716 -19.385 -21.339  0.00  0.00    -0.270 N 
ATOM      2  N   UNL     1      34.415 -20.506 -19.431  0.00  0.00    -0.336 NA
ATOM      3  N   UNL     1      32.119 -20.585 -20.158  0.00  0.00    -0.170 NA
ATOM      4  C   UNL     1      33.404 -20.194 -20.263  0.00  0.00    +0.145 C 
ATOM      5  C   UNL     1      34.076 -21.296 -18.392  0.00  0.00    +0.161 C 
ATOM      6  C   UNL     1      31.850 -21.373 -19.096  0.00  0.00    +0.114 C 
ATOM      7  C   UNL     1      32.796 -21.765 -18.172  0.00  0.00    +0.056 C 
ATOM      8  H   UNL     1      32.995 -19.143 -21.964  0.00  0.00    +0.159 HD
ENDROOT
BRANCH   5  11
ATOM      9  N   UNL     1      35.049 -22.403 -16.382  0.00  0.00    -0.246 N 
ATOM     10  N   UNL     1      37.197 -21.794 -16.520  0.00  0.00    -0.227 NA
ATOM     11  C   UNL     1      35.161 -21.627 -17.507  0.00  0.00    +0.107 C 
ATOM     12  C   UNL     1      36.318 -22.477 -15.814  0.00  0.00    +0.139 C 
ATOM     13  C   UNL     1      36.486 -21.267 -17.568  0.00  0.00    +0.118 C 
ATOM     14  C   UNL     1      33.928 -23.030 -15.846  0.00  0.00    +0.071 C 
ATOM     15  C   UNL     1      36.450 -23.242 -14.619  0.00  0.00    +0.035 C 
ATOM     16  C   UNL     1      34.060 -23.749 -14.719  0.00  0.00    +0.017 C 
ATOM     17  C   UNL     1      35.369 -23.851 -14.094  0.00  0.00    +0.004 C 
ENDBRANCH   5  11
BRANCH   1  19
ATOM     18  N   UNL     1      34.797 -16.096 -22.530  0.00  0.00    +0.393 N 
ATOM     19  C   UNL     1      35.049 -18.874 -21.599  0.00  0.00    +0.075 C 
ATOM     20  C   UNL     1      35.338 -17.672 -20.700  0.00  0.00    -0.003 C 
ATOM     21  C   UNL     1      35.186 -18.482 -23.071  0.00  0.00    -0.003 C 
ATOM     22  C   UNL     1      34.552 -16.425 -21.120  0.00  0.00    -0.075 C 
ATOM     23  C   UNL     1      34.406 -17.206 -23.410  0.00  0.00    -0.075 C 
ATOM     24  H   UNL     1      35.798 -15.941 -22.648  0.00  0.00    -0.079 HD
BRANCH  18  25
ATOM     25  C   UNL     1      34.086 -14.873 -22.902  0.00  0.00    +0.010 C 
BRANCH  25  28
ATOM     26  O   UNL     1      34.269 -14.221 -20.583  0.00  0.00    -0.277 OA
ATOM     27  N   UNL     1      32.474 -13.442 -21.834  0.00  0.00    -0.304 N 
ATOM     28  C   UNL     1      33.641 -14.166 -21.639  0.00  0.00    +0.201 C 
ATOM     29  C   UNL     1      31.848 -12.652 -20.799  0.00  0.00    +0.111 C 
ATOM     30  H   UNL     1      32.051 -13.468 -22.723  0.00  0.00    +0.149 HD
ENDBRANCH  25  28
ENDBRANCH  18  25
ENDBRANCH   1  19
TORSDOF 4
ENDMDL
MODEL 4
REMARK VINA RESULT:      -9.6      2.416      3.709
REMARK  Name = 24801863
REMARK  4 active torsions:
REMARK  status: ('A' for Active; 'I' for Inactive)
REMARK    1  A    between atoms: N_1  and  C_19
REMARK    2  A    between atoms: C_5  and  C_11
REMARK    3  A    between atoms: N_18  and  C_25
REMARK    4  A    between atoms: C_25  and  C_28
REMARK                            x       y       z     vdW  Elec       q    Type
REMARK                         _______ _______ _______ _____ _____    ______ ____
ROOT
ATOM      1  N   UNL     1      32.644 -10.961 -24.027  0.00  0.00    -0.270 N 
ATOM      2  N   UNL     1      33.248 -13.066 -23.257  0.00  0.00    -0.336 NA
ATOM      3  N   UNL     1      32.674 -12.695 -25.568  0.00  0.00    -0.170 NA
ATOM      4  C   UNL     1      32.865 -12.298 -24.295  0.00  0.00    +0.145 C 
ATOM      5  C   UNL     1      33.455 -14.365 -23.555  0.00  0.00    +0.161 C 
ATOM      6  C   UNL     1      32.899 -14.007 -25.795  0.00  0.00    +0.114 C 
ATOM      7  C   UNL     1      33.295 -14.897 -24.818  0.00  0.00    +0.056 C 
ATOM      8  H   UNL     1      32.364 -10.377 -24.769  0.00  0.00    +0.159 HD
ENDROOT
BRANCH   5  11
ATOM      9  N   UNL     1      34.150 -16.519 -22.511  0.00  0.00    -0.246 N 
ATOM     10  N   UNL     1      34.446 -15.917 -20.377  0.00  0.00    -0.227 NA
ATOM     11  C   UNL     1      33.864 -15.180 -22.442  0.00  0.00    +0.107 C 
ATOM     12  C   UNL     1      34.501 -16.924 -21.225  0.00  0.00    +0.139 C 
ATOM     13  C   UNL     1      34.053 -14.837 -21.124  0.00  0.00    +0.118 C 
ATOM     14  C   UNL     1      34.121 -17.375 -23.608  0.00  0.00    +0.071 C 
ATOM     15  C   UNL     1      34.844 -18.296 -21.050  0.00  0.00    +0.035 C 
ATOM     16  C   UNL     1      34.445 -18.667 -23.434  0.00  0.00    +0.017 C 
ATOM     17  C   UNL     1      34.817 -19.131 -22.107  0.00  0.00    +0.004 C 
ENDBRANCH   5  11
BRANCH   1  19
ATOM     18  N   UNL     1      31.171  -7.925 -22.607  0.00  0.00    +0.393 N 
ATOM     19  C   UNL     1      32.801 -10.370 -22.711  0.00  0.00    +0.075 C 
ATOM     20  C   UNL     1      31.451 -10.307 -21.996  0.00  0.00    -0.003 C 
ATOM     21  C   UNL     1      33.405  -8.969 -22.831  0.00  0.00    -0.003 C 
ATOM     22  C   UNL     1      30.523  -9.243 -22.592  0.00  0.00    -0.075 C 
ATOM     23  C   UNL     1      32.409  -7.951 -23.397  0.00  0.00    -0.075 C 
ATOM     24  H   UNL     1      31.416  -7.683 -21.647  0.00  0.00    -0.079 HD
BRANCH  18  25
ATOM     25  C   UNL     1      30.254  -6.910 -23.125  0.00  0.00    +0.010 C 
BRANCH  25  28
ATOM     26  O   UNL     1      30.773  -5.609 -21.157  0.00  0.00    -0.277 OA
ATOM     27  N   UNL     1      30.259  -4.504 -23.134  0.00  0.00    -0.304 N 
ATOM     28  C   UNL     1      30.453  -5.628 -22.344  0.00  0.00    +0.201 C 
ATOM     29  C   UNL     1      30.413  -3.154 -22.645  0.00  0.00    +0.111 C 
ATOM     30  H   UNL     1      30.002  -4.634 -24.076  0.00  0.00    +0.149 HD
ENDBRANCH  25  28
ENDBRANCH  18  25
ENDBRANCH   1  19
TORSDOF 4
ENDMDL
MODEL 5
REMARK VINA RESULT:      -9.5      3.913     11.431
REMARK  Name = 24801863
REMARK  4 active torsions:
REMARK  status: ('A' for Active; 'I' for Inactive)
REMARK    1  A    between atoms: N_1  and  C_19
REMARK    2  A    between atoms: C_5  and  C_11
REMARK    3  A    between atoms: N_18  and  C_25
REMARK    4  A    between atoms: C_25  and  C_28
REMARK                            x       y       z     vdW  Elec       q    Type
REMARK                         _______ _______ _______ _____ _____    ______ ____
ROOT
ATOM      1  N   UNL     1      31.411  -9.117 -20.801  0.00  0.00    -0.270 N 
ATOM      2  N   UNL     1      31.389  -6.998 -21.748  0.00  0.00    -0.336 NA
ATOM      3  N   UNL     1      32.154  -7.352 -19.490  0.00  0.00    -0.170 NA
ATOM      4  C   UNL     1      31.662  -7.764 -20.675  0.00  0.00    +0.145 C 
ATOM      5  C   UNL     1      31.647  -5.684 -21.591  0.00  0.00    +0.161 C 
ATOM      6  C   UNL     1      32.387  -6.025 -19.402  0.00  0.00    +0.114 C 
ATOM      7  C   UNL     1      32.151  -5.135 -20.429  0.00  0.00    +0.056 C 
ATOM      8  H   UNL     1      31.603  -9.700 -20.031  0.00  0.00    +0.159 HD
ENDROOT
BRANCH   5  11
ATOM      9  N   UNL     1      32.241  -4.582 -23.746  0.00  0.00    -0.246 N 
ATOM     10  N   UNL     1      30.328  -3.549 -24.273  0.00  0.00    -0.227 NA
ATOM     11  C   UNL     1      31.354  -4.871 -22.741  0.00  0.00    +0.107 C 
ATOM     12  C   UNL     1      31.568  -3.773 -24.658  0.00  0.00    +0.139 C 
ATOM     13  C   UNL     1      30.190  -4.226 -23.088  0.00  0.00    +0.118 C 
ATOM     14  C   UNL     1      33.566  -4.979 -23.899  0.00  0.00    +0.071 C 
ATOM     15  C   UNL     1      32.299  -3.341 -25.803  0.00  0.00    +0.035 C 
ATOM     16  C   UNL     1      34.248  -4.568 -24.980  0.00  0.00    +0.017 C 
ATOM     17  C   UNL     1      33.582  -3.721 -25.958  0.00  0.00    +0.004 C 
ENDBRANCH   5  11
BRANCH   1  19
ATOM     18  N   UNL     1      32.566 -12.038 -22.682  0.00  0.00    +0.393 N 
ATOM     19  C   UNL     1      30.880  -9.726 -22.006  0.00  0.00    +0.075 C 
ATOM     20  C   UNL     1      30.455 -11.168 -21.727  0.00  0.00    -0.003 C 
ATOM     21  C   UNL     1      31.925  -9.686 -23.122  0.00  0.00    -0.003 C 
ATOM     22  C   UNL     1      31.654 -12.103 -21.533  0.00  0.00    -0.075 C 
ATOM     23  C   UNL     1      33.073 -10.673 -22.881  0.00  0.00    -0.075 C 
ATOM     24  H   UNL     1      32.042 -12.302 -23.516  0.00  0.00    -0.079 HD
BRANCH  18  25
ATOM     25  C   UNL     1      33.675 -12.976 -22.509  0.00  0.00    +0.010 C 
BRANCH  25  28
ATOM     26  O   UNL     1      32.908 -13.983 -24.566  0.00  0.00    -0.277 OA
ATOM     27  N   UNL     1      34.163 -15.260 -23.085  0.00  0.00    -0.304 N 
ATOM     28  C   UNL     1      33.518 -14.105 -23.505  0.00  0.00    +0.201 C 
ATOM     29  C   UNL     1      34.193 -16.478 -23.861  0.00  0.00    +0.111 C 
ATOM     30  H   UNL     1      34.622 -15.248 -22.213  0.00  0.00    +0.149 HD
ENDBRANCH  25  28
ENDBRANCH  18  25
ENDBRANCH   1  19
TORSDOF 4
ENDMDL
MODEL 6
REMARK VINA RESULT:      -9.3      4.693      9.261
REMARK  Name = 24801863
REMARK  4 active torsions:
REMARK  status: ('A' for Active; 'I' for Inactive)
REMARK    1  A    between atoms: N_1  and  C_19
REMARK    2  A    between atoms: C_5  and  C_11
REMARK    3  A    between atoms: N_18  and  C_25
REMARK    4  A    between atoms: C_25  and  C_28
REMARK                            x       y       z     vdW  Elec       q    Type
REMARK                         _______ _______ _______ _____ _____    ______ ____
ROOT
ATOM      1  N   UNL     1      34.661 -21.247 -19.464  0.00  0.00    -0.270 N 
ATOM      2  N   UNL     1      34.517 -19.681 -21.172  0.00  0.00    -0.336 NA
ATOM      3  N   UNL     1      36.300 -19.606 -19.553  0.00  0.00    -0.170 NA
ATOM      4  C   UNL     1      35.181 -20.130 -20.090  0.00  0.00    +0.145 C 
ATOM      5  C   UNL     1      35.052 -18.590 -21.758  0.00  0.00    +0.161 C 
ATOM      6  C   UNL     1      36.780 -18.516 -20.189  0.00  0.00    +0.114 C 
ATOM      7  C   UNL     1      36.193 -17.960 -21.306  0.00  0.00    +0.056 C 
ATOM      8  H   UNL     1      35.129 -21.597 -18.671  0.00  0.00    +0.159 HD
ENDROOT
BRANCH   5  11
ATOM      9  N   UNL     1      34.106 -16.797 -23.207  0.00  0.00    -0.246 N 
ATOM     10  N   UNL     1      33.165 -17.988 -24.851  0.00  0.00    -0.227 NA
ATOM     11  C   UNL     1      34.338 -18.116 -22.914  0.00  0.00    +0.107 C 
ATOM     12  C   UNL     1      33.387 -16.769 -24.400  0.00  0.00    +0.139 C 
ATOM     13  C   UNL     1      33.751 -18.824 -23.936  0.00  0.00    +0.118 C 
ATOM     14  C   UNL     1      34.481 -15.654 -22.508  0.00  0.00    +0.071 C 
ATOM     15  C   UNL     1      33.027 -15.488 -24.910  0.00  0.00    +0.035 C 
ATOM     16  C   UNL     1      34.137 -14.450 -22.994  0.00  0.00    +0.017 C 
ATOM     17  C   UNL     1      33.386 -14.377 -24.237  0.00  0.00    +0.004 C 
ENDBRANCH   5  11
BRANCH   1  19
ATOM     18  N   UNL     1      31.759 -22.421 -17.566  0.00  0.00    +0.393 N 
ATOM     19  C   UNL     1      33.464 -21.933 -19.912  0.00  0.00    +0.075 C 
ATOM     20  C   UNL     1      32.226 -21.091 -19.601  0.00  0.00    -0.003 C 
ATOM     21  C   UNL     1      33.358 -23.303 -19.240  0.00  0.00    -0.003 C 
ATOM     22  C   UNL     1      31.900 -21.061 -18.104  0.00  0.00    -0.075 C 
ATOM     23  C   UNL     1      32.992 -23.197 -17.755  0.00  0.00    -0.075 C 
ATOM     24  H   UNL     1      31.013 -22.887 -18.082  0.00  0.00    -0.079 HD
BRANCH  18  25
ATOM     25  C   UNL     1      31.393 -22.376 -16.151  0.00  0.00    +0.010 C 
BRANCH  25  28
ATOM     26  O   UNL     1      29.957 -24.140 -15.340  0.00  0.00    -0.277 OA
ATOM     27  N   UNL     1      29.023 -22.397 -16.560  0.00  0.00    -0.304 N 
ATOM     28  C   UNL     1      30.070 -23.088 -15.966  0.00  0.00    +0.201 C 
ATOM     29  C   UNL     1      27.649 -22.843 -16.510  0.00  0.00    +0.111 C 
ATOM     30  H   UNL     1      29.227 -21.562 -17.040  0.00  0.00    +0.149 HD
ENDBRANCH  25  28
ENDBRANCH  18  25
ENDBRANCH   1  19
TORSDOF 4
ENDMDL
MODEL 7
REMARK VINA RESULT:      -9.2      8.269     11.488
REMARK  Name = 24801863
REMARK  4 active torsions:
REMARK  status: ('A' for Active; 'I' for Inactive)
REMARK    1  A    between atoms: N_1  and  C_19
REMARK    2  A    between atoms: C_5  and  C_11
REMARK    3  A    between atoms: N_18  and  C_25
REMARK    4  A    between atoms: C_25  and  C_28
REMARK                            x       y       z     vdW  Elec       q    Type
REMARK                         _______ _______ _______ _____ _____    ______ ____
ROOT
ATOM      1  N   UNL     1      32.883 -23.606 -13.126  0.00  0.00    -0.270 N 
ATOM      2  N   UNL     1      34.448 -22.831 -14.655  0.00  0.00    -0.336 NA
ATOM      3  N   UNL     1      34.814 -24.861 -13.409  0.00  0.00    -0.170 NA
ATOM      4  C   UNL     1      34.101 -23.773 -13.757  0.00  0.00    +0.145 C 
ATOM      5  C   UNL     1      35.642 -23.026 -15.251  0.00  0.00    +0.161 C 
ATOM      6  C   UNL     1      35.998 -24.993 -14.044  0.00  0.00    +0.114 C 
ATOM      7  C   UNL     1      36.468 -24.099 -14.983  0.00  0.00    +0.056 C 
ATOM      8  H   UNL     1      32.603 -24.282 -12.466  0.00  0.00    +0.159 HD
ENDROOT
BRANCH   5  11
ATOM      9  N   UNL     1      35.365 -21.792 -17.399  0.00  0.00    -0.246 N 
ATOM     10  N   UNL     1      37.034 -20.306 -17.291  0.00  0.00    -0.227 NA
ATOM     11  C   UNL     1      36.008 -22.016 -16.209  0.00  0.00    +0.107 C 
ATOM     12  C   UNL     1      36.027 -20.738 -18.024  0.00  0.00    +0.139 C 
ATOM     13  C   UNL     1      37.027 -21.093 -16.169  0.00  0.00    +0.118 C 
ATOM     14  C   UNL     1      34.262 -22.441 -17.946  0.00  0.00    +0.071 C 
ATOM     15  C   UNL     1      35.530 -20.322 -19.293  0.00  0.00    +0.035 C 
ATOM     16  C   UNL     1      33.800 -22.044 -19.143  0.00  0.00    +0.017 C 
ATOM     17  C   UNL     1      34.463 -20.946 -19.830  0.00  0.00    +0.004 C 
ENDBRANCH   5  11
BRANCH   1  19
ATOM     18  N   UNL     1      29.665 -23.500 -14.869  0.00  0.00    +0.393 N 
ATOM     19  C   UNL     1      31.992 -22.490 -13.383  0.00  0.00    +0.075 C 
ATOM     20  C   UNL     1      30.634 -22.735 -12.724  0.00  0.00    -0.003 C 
ATOM     21  C   UNL     1      31.823 -22.286 -14.890  0.00  0.00    -0.003 C 
ATOM     22  C   UNL     1      29.823 -23.818 -13.444  0.00  0.00    -0.075 C 
ATOM     23  C   UNL     1      30.969 -23.384 -15.535  0.00  0.00    -0.075 C 
ATOM     24  H   UNL     1      29.194 -22.599 -14.941  0.00  0.00    -0.079 HD
BRANCH  18  25
ATOM     25  C   UNL     1      28.842 -24.512 -15.531  0.00  0.00    +0.010 C 
BRANCH  25  28
ATOM     26  O   UNL     1      27.158 -24.328 -17.253  0.00  0.00    -0.277 OA
ATOM     27  N   UNL     1      27.446 -22.568 -15.765  0.00  0.00    -0.304 N 
ATOM     28  C   UNL     1      27.735 -23.817 -16.295  0.00  0.00    +0.201 C 
ATOM     29  C   UNL     1      26.412 -21.704 -16.288  0.00  0.00    +0.111 C 
ATOM     30  H   UNL     1      27.972 -22.254 -14.994  0.00  0.00    +0.149 HD
ENDBRANCH  25  28
ENDBRANCH  18  25
ENDBRANCH   1  19
TORSDOF 4
ENDMDL
