MODEL 1
REMARK VINA RESULT:     -10.6      0.000      0.000
REMARK  Name = 5282459
REMARK  7 active torsions:
REMARK  status: ('A' for Active; 'I' for Inactive)
REMARK    1  A    between atoms: N_2  and  C_24
REMARK    2  A    between atoms: C_8  and  C_10
REMARK    3  A    between atoms: C_11  and  C_12
REMARK    4  A    between atoms: C_15  and  O_18
REMARK    5  A    between atoms: C_16  and  O_20
REMARK    6  A    between atoms: C_17  and  O_22
REMARK    7  A    between atoms: C_24  and  C_31
REMARK                            x       y       z     vdW  Elec       q    Type
REMARK                         _______ _______ _______ _____ _____    ______ ____
ROOT
ATOM      1  O   UNL     1      32.703 -13.500 -25.211  0.00  0.00    -0.270 OA
ATOM      2  N   UNL     1      34.524 -17.280 -22.561  0.00  0.00    +0.395 N 
ATOM      3  N   UNL     1      33.787 -14.685 -23.530  0.00  0.00    -0.280 N 
ATOM      4  C   UNL     1      33.998 -17.112 -23.924  0.00  0.00    -0.055 C 
ATOM      5  C   UNL     1      33.943 -16.281 -21.653  0.00  0.00    -0.055 C 
ATOM      6  C   UNL     1      34.291 -15.706 -24.450  0.00  0.00    +0.071 C 
ATOM      7  C   UNL     1      34.240 -14.863 -22.145  0.00  0.00    +0.071 C 
ATOM      8  C   UNL     1      33.064 -13.609 -24.037  0.00  0.00    +0.249 C 
ATOM      9  H   UNL     1      35.535 -17.140 -22.587  0.00  0.00    -0.079 HD
ENDROOT
BRANCH   8  10
ATOM     10  C   UNL     1      32.704 -12.518 -23.111  0.00  0.00    +0.058 C 
ATOM     11  C   UNL     1      32.536 -11.287 -23.611  0.00  0.00    +0.005 C 
BRANCH  11  12
ATOM     12  C   UNL     1      32.186 -10.097 -22.816  0.00  0.00    +0.006 C 
ATOM     13  C   UNL     1      31.533 -10.243 -21.592  0.00  0.00    +0.040 C 
ATOM     14  C   UNL     1      32.508  -8.824 -23.287  0.00  0.00    +0.040 C 
ATOM     15  C   UNL     1      32.176  -7.698 -22.535  0.00  0.00    +0.175 C 
ATOM     16  C   UNL     1      31.202  -9.117 -20.839  0.00  0.00    +0.175 C 
ATOM     17  C   UNL     1      31.524  -7.844 -21.311  0.00  0.00    +0.206 C 
BRANCH  15  18
ATOM     18  O   UNL     1      32.496  -6.460 -23.006  0.00  0.00    -0.468 OA
ATOM     19  C   UNL     1      33.881  -6.125 -23.057  0.00  0.00    +0.253 C 
ENDBRANCH  15  18
BRANCH  16  20
ATOM     20  O   UNL     1      30.566  -9.273 -19.645  0.00  0.00    -0.468 OA
ATOM     21  C   UNL     1      31.361  -9.685 -18.535  0.00  0.00    +0.253 C 
ENDBRANCH  16  20
BRANCH  17  22
ATOM     22  O   UNL     1      31.201  -6.743 -20.574  0.00  0.00    -0.465 OA
ATOM     23  C   UNL     1      32.212  -6.218 -19.717  0.00  0.00    +0.253 C 
ENDBRANCH  17  22
ENDBRANCH  11  12
ENDBRANCH   8  10
BRANCH   2  24
ATOM     24  C   UNL     1      34.261 -18.633 -22.072  0.00  0.00    +0.010 C 
BRANCH  24  31
ATOM     25  O   UNL     1      36.517 -18.476 -21.326  0.00  0.00    -0.277 OA
ATOM     26  N   UNL     1      35.152 -19.994 -20.245  0.00  0.00    -0.281 N 
ATOM     27  C   UNL     1      36.164 -20.475 -19.316  0.00  0.00    +0.093 C 
ATOM     28  C   UNL     1      33.878 -20.671 -20.028  0.00  0.00    +0.093 C 
ATOM     29  C   UNL     1      35.384 -21.270 -18.281  0.00  0.00    +0.023 C 
ATOM     30  C   UNL     1      34.214 -21.821 -19.089  0.00  0.00    +0.023 C 
ATOM     31  C   UNL     1      35.420 -19.017 -21.186  0.00  0.00    +0.205 C 
ENDBRANCH  24  31
ENDBRANCH   2  24
TORSDOF 7
ENDMDL
MODEL 2
REMARK VINA RESULT:     -10.6      0.043      2.222
REMARK  Name = 5282459
REMARK  7 active torsions:
REMARK  status: ('A' for Active; 'I' for Inactive)
REMARK    1  A    between atoms: N_2  and  C_24
REMARK    2  A    between atoms: C_8  and  C_10
REMARK    3  A    between atoms: C_11  and  C_12
REMARK    4  A    between atoms: C_15  and  O_18
REMARK    5  A    between atoms: C_16  and  O_20
REMARK    6  A    between atoms: C_17  and  O_22
REMARK    7  A    between atoms: C_24  and  C_31
REMARK                            x       y       z     vdW  Elec       q    Type
REMARK                         _______ _______ _______ _____ _____    ______ ____
ROOT
ATOM      1  O   UNL     1      32.706 -13.475 -25.217  0.00  0.00    -0.270 OA
ATOM      2  N   UNL     1      34.540 -17.246 -22.563  0.00  0.00    +0.395 N 
ATOM      3  N   UNL     1      33.796 -14.654 -23.537  0.00  0.00    -0.280 N 
ATOM      4  C   UNL     1      34.010 -17.082 -23.924  0.00  0.00    -0.055 C 
ATOM      5  C   UNL     1      33.960 -16.244 -21.656  0.00  0.00    -0.055 C 
ATOM      6  C   UNL     1      34.299 -15.676 -24.456  0.00  0.00    +0.071 C 
ATOM      7  C   UNL     1      34.254 -14.828 -22.153  0.00  0.00    +0.071 C 
ATOM      8  C   UNL     1      33.071 -13.580 -24.044  0.00  0.00    +0.249 C 
ATOM      9  H   UNL     1      35.550 -17.104 -22.593  0.00  0.00    -0.079 HD
ENDROOT
BRANCH   8  10
ATOM     10  C   UNL     1      32.712 -12.487 -23.120  0.00  0.00    +0.058 C 
ATOM     11  C   UNL     1      32.525 -11.261 -23.625  0.00  0.00    +0.005 C 
BRANCH  11  12
ATOM     12  C   UNL     1      32.174 -10.070 -22.833  0.00  0.00    +0.006 C 
ATOM     13  C   UNL     1      32.480  -8.796 -23.315  0.00  0.00    +0.040 C 
ATOM     14  C   UNL     1      31.536 -10.214 -21.601  0.00  0.00    +0.040 C 
ATOM     15  C   UNL     1      31.205  -9.086 -20.851  0.00  0.00    +0.175 C 
ATOM     16  C   UNL     1      32.147  -7.668 -22.565  0.00  0.00    +0.175 C 
ATOM     17  C   UNL     1      31.510  -7.814 -21.332  0.00  0.00    +0.206 C 
BRANCH  15  18
ATOM     18  O   UNL     1      30.582  -9.241 -19.649  0.00  0.00    -0.468 OA
ATOM     19  C   UNL     1      31.383  -9.687 -18.557  0.00  0.00    +0.253 C 
ENDBRANCH  15  18
BRANCH  16  20
ATOM     20  O   UNL     1      32.451  -6.431 -23.047  0.00  0.00    -0.468 OA
ATOM     21  C   UNL     1      33.827  -6.056 -23.050  0.00  0.00    +0.253 C 
ENDBRANCH  16  20
BRANCH  17  22
ATOM     22  O   UNL     1      31.185  -6.711 -20.600  0.00  0.00    -0.465 OA
ATOM     23  C   UNL     1      32.190  -6.190 -19.733  0.00  0.00    +0.253 C 
ENDBRANCH  17  22
ENDBRANCH  11  12
ENDBRANCH   8  10
BRANCH   2  24
ATOM     24  C   UNL     1      34.280 -18.598 -22.070  0.00  0.00    +0.010 C 
BRANCH  24  31
ATOM     25  O   UNL     1      36.530 -18.420 -21.312  0.00  0.00    -0.277 OA
ATOM     26  N   UNL     1      35.177 -19.962 -20.249  0.00  0.00    -0.281 N 
ATOM     27  C   UNL     1      36.191 -20.439 -19.319  0.00  0.00    +0.093 C 
ATOM     28  C   UNL     1      33.910 -20.655 -20.043  0.00  0.00    +0.093 C 
ATOM     29  C   UNL     1      35.414 -21.251 -18.294  0.00  0.00    +0.023 C 
ATOM     30  C   UNL     1      34.255 -21.808 -19.111  0.00  0.00    +0.023 C 
ATOM     31  C   UNL     1      35.439 -18.975 -21.181  0.00  0.00    +0.205 C 
ENDBRANCH  24  31
ENDBRANCH   2  24
TORSDOF 7
ENDMDL
MODEL 3
REMARK VINA RESULT:     -10.2      2.395      4.753
REMARK  Name = 5282459
REMARK  7 active torsions:
REMARK  status: ('A' for Active; 'I' for Inactive)
REMARK    1  A    between atoms: N_2  and  C_24
REMARK    2  A    between atoms: C_8  and  C_10
REMARK    3  A    between atoms: C_11  and  C_12
REMARK    4  A    between atoms: C_15  and  O_18
REMARK    5  A    between atoms: C_16  and  O_20
REMARK    6  A    between atoms: C_17  and  O_22
REMARK    7  A    between atoms: C_24  and  C_31
REMARK                            x       y       z     vdW  Elec       q    Type
REMARK                         _______ _______ _______ _____ _____    ______ ____
ROOT
ATOM      1  O   UNL     1      31.552 -10.669 -19.480  0.00  0.00    -0.270 OA
ATOM      2  N   UNL     1      33.132 -13.986 -22.816  0.00  0.00    +0.395 N 
ATOM      3  N   UNL     1      31.721 -11.902 -21.443  0.00  0.00    -0.280 N 
ATOM      4  C   UNL     1      33.329 -13.772 -21.375  0.00  0.00    -0.055 C 
ATOM      5  C   UNL     1      32.831 -12.715 -23.493  0.00  0.00    -0.055 C 
ATOM      6  C   UNL     1      32.090 -13.134 -20.744  0.00  0.00    +0.071 C 
ATOM      7  C   UNL     1      31.581 -12.066 -22.895  0.00  0.00    +0.071 C 
ATOM      8  C   UNL     1      31.419 -10.763 -20.702  0.00  0.00    +0.249 C 
ATOM      9  H   UNL     1      32.337 -14.612 -22.942  0.00  0.00    -0.079 HD
ENDROOT
BRANCH   8  10
ATOM     10  C   UNL     1      30.900  -9.585 -21.423  0.00  0.00    +0.058 C 
ATOM     11  C   UNL     1      31.779  -8.715 -21.937  0.00  0.00    +0.005 C 
BRANCH  11  12
ATOM     12  C   UNL     1      31.419  -7.490 -22.672  0.00  0.00    +0.006 C 
ATOM     13  C   UNL     1      31.740  -7.368 -24.024  0.00  0.00    +0.040 C 
ATOM     14  C   UNL     1      30.756  -6.453 -22.016  0.00  0.00    +0.040 C 
ATOM     15  C   UNL     1      30.415  -5.293 -22.712  0.00  0.00    +0.175 C 
ATOM     16  C   UNL     1      31.399  -6.208 -24.720  0.00  0.00    +0.175 C 
ATOM     17  C   UNL     1      30.736  -5.171 -24.063  0.00  0.00    +0.206 C 
BRANCH  15  18
ATOM     18  O   UNL     1      29.767  -4.287 -22.060  0.00  0.00    -0.468 OA
ATOM     19  C   UNL     1      29.890  -4.251 -20.640  0.00  0.00    +0.253 C 
ENDBRANCH  15  18
BRANCH  16  20
ATOM     20  O   UNL     1      31.718  -6.102 -26.040  0.00  0.00    -0.468 OA
ATOM     21  C   UNL     1      33.074  -5.791 -26.356  0.00  0.00    +0.253 C 
ENDBRANCH  16  20
BRANCH  17  22
ATOM     22  O   UNL     1      30.402  -4.038 -24.744  0.00  0.00    -0.465 OA
ATOM     23  C   UNL     1      31.344  -2.968 -24.723  0.00  0.00    +0.253 C 
ENDBRANCH  17  22
ENDBRANCH  11  12
ENDBRANCH   8  10
BRANCH   2  24
ATOM     24  C   UNL     1      34.311 -14.617 -23.408  0.00  0.00    +0.010 C 
BRANCH  24  31
ATOM     25  O   UNL     1      33.269 -16.004 -25.039  0.00  0.00    -0.277 OA
ATOM     26  N   UNL     1      34.179 -17.049 -23.190  0.00  0.00    -0.281 N 
ATOM     27  C   UNL     1      33.819 -18.403 -23.587  0.00  0.00    +0.093 C 
ATOM     28  C   UNL     1      34.885 -17.049 -21.914  0.00  0.00    +0.093 C 
ATOM     29  C   UNL     1      34.614 -19.298 -22.650  0.00  0.00    +0.023 C 
ATOM     30  C   UNL     1      34.705 -18.463 -21.380  0.00  0.00    +0.023 C 
ATOM     31  C   UNL     1      33.869 -15.946 -23.965  0.00  0.00    +0.205 C 
ENDBRANCH  24  31
ENDBRANCH   2  24
TORSDOF 7
ENDMDL
MODEL 4
REMARK VINA RESULT:     -10.2      2.389      4.415
REMARK  Name = 5282459
REMARK  7 active torsions:
REMARK  status: ('A' for Active; 'I' for Inactive)
REMARK    1  A    between atoms: N_2  and  C_24
REMARK    2  A    between atoms: C_8  and  C_10
REMARK    3  A    between atoms: C_11  and  C_12
REMARK    4  A    between atoms: C_15  and  O_18
REMARK    5  A    between atoms: C_16  and  O_20
REMARK    6  A    between atoms: C_17  and  O_22
REMARK    7  A    between atoms: C_24  and  C_31
REMARK                            x       y       z     vdW  Elec       q    Type
REMARK                         _______ _______ _______ _____ _____    ______ ____
ROOT
ATOM      1  O   UNL     1      31.546 -10.649 -19.481  0.00  0.00    -0.270 OA
ATOM      2  N   UNL     1      33.148 -14.008 -22.765  0.00  0.00    +0.395 N 
ATOM      3  N   UNL     1      31.718 -11.917 -21.422  0.00  0.00    -0.280 N 
ATOM      4  C   UNL     1      33.353 -13.763 -21.330  0.00  0.00    -0.055 C 
ATOM      5  C   UNL     1      32.823 -12.755 -23.464  0.00  0.00    -0.055 C 
ATOM      6  C   UNL     1      32.110 -13.130 -20.702  0.00  0.00    +0.071 C 
ATOM      7  C   UNL     1      31.569 -12.112 -22.869  0.00  0.00    +0.071 C 
ATOM      8  C   UNL     1      31.405 -10.769 -20.700  0.00  0.00    +0.249 C 
ATOM      9  H   UNL     1      32.360 -14.647 -22.872  0.00  0.00    -0.079 HD
ENDROOT
BRANCH   8  10
ATOM     10  C   UNL     1      30.864  -9.612 -21.440  0.00  0.00    +0.058 C 
ATOM     11  C   UNL     1      31.718  -8.673 -21.866  0.00  0.00    +0.005 C 
BRANCH  11  12
ATOM     12  C   UNL     1      31.331  -7.459 -22.606  0.00  0.00    +0.006 C 
ATOM     13  C   UNL     1      30.694  -6.410 -21.942  0.00  0.00    +0.040 C 
ATOM     14  C   UNL     1      31.603  -7.357 -23.970  0.00  0.00    +0.040 C 
ATOM     15  C   UNL     1      31.237  -6.208 -24.671  0.00  0.00    +0.175 C 
ATOM     16  C   UNL     1      30.328  -5.261 -22.642  0.00  0.00    +0.175 C 
ATOM     17  C   UNL     1      30.600  -5.160 -24.007  0.00  0.00    +0.206 C 
BRANCH  15  18
ATOM     18  O   UNL     1      31.508  -6.121 -26.003  0.00  0.00    -0.468 OA
ATOM     19  C   UNL     1      32.844  -5.787 -26.372  0.00  0.00    +0.253 C 
ENDBRANCH  15  18
BRANCH  16  20
ATOM     20  O   UNL     1      29.707  -4.244 -21.982  0.00  0.00    -0.468 OA
ATOM     21  C   UNL     1      29.936  -4.148 -20.578  0.00  0.00    +0.253 C 
ENDBRANCH  16  20
BRANCH  17  22
ATOM     22  O   UNL     1      30.243  -4.036 -24.691  0.00  0.00    -0.465 OA
ATOM     23  C   UNL     1      31.159  -2.944 -24.666  0.00  0.00    +0.253 C 
ENDBRANCH  17  22
ENDBRANCH  11  12
ENDBRANCH   8  10
BRANCH   2  24
ATOM     24  C   UNL     1      34.331 -14.633 -23.354  0.00  0.00    +0.010 C 
BRANCH  24  31
ATOM     25  O   UNL     1      33.310 -16.004 -25.011  0.00  0.00    -0.277 OA
ATOM     26  N   UNL     1      34.185 -17.066 -23.156  0.00  0.00    -0.281 N 
ATOM     27  C   UNL     1      33.826 -18.416 -23.568  0.00  0.00    +0.093 C 
ATOM     28  C   UNL     1      34.871 -17.078 -21.868  0.00  0.00    +0.093 C 
ATOM     29  C   UNL     1      34.602 -19.321 -22.625  0.00  0.00    +0.023 C 
ATOM     30  C   UNL     1      34.676 -18.495 -21.347  0.00  0.00    +0.023 C 
ATOM     31  C   UNL     1      33.893 -15.957 -23.927  0.00  0.00    +0.205 C 
ENDBRANCH  24  31
ENDBRANCH   2  24
TORSDOF 7
ENDMDL
MODEL 5
REMARK VINA RESULT:     -10.0      2.824     11.113
REMARK  Name = 5282459
REMARK  7 active torsions:
REMARK  status: ('A' for Active; 'I' for Inactive)
REMARK    1  A    between atoms: N_2  and  C_24
REMARK    2  A    between atoms: C_8  and  C_10
REMARK    3  A    between atoms: C_11  and  C_12
REMARK    4  A    between atoms: C_15  and  O_18
REMARK    5  A    between atoms: C_16  and  O_20
REMARK    6  A    between atoms: C_17  and  O_22
REMARK    7  A    between atoms: C_24  and  C_31
REMARK                            x       y       z     vdW  Elec       q    Type
REMARK                         _______ _______ _______ _____ _____    ______ ____
ROOT
ATOM      1  O   UNL     1      36.048 -18.592 -23.128  0.00  0.00    -0.270 OA
ATOM      2  N   UNL     1      33.610 -14.391 -22.112  0.00  0.00    +0.395 N 
ATOM      3  N   UNL     1      34.581 -17.088 -22.133  0.00  0.00    -0.280 N 
ATOM      4  C   UNL     1      34.450 -14.875 -23.217  0.00  0.00    -0.055 C 
ATOM      5  C   UNL     1      33.963 -15.068 -20.855  0.00  0.00    -0.055 C 
ATOM      6  C   UNL     1      34.305 -16.388 -23.389  0.00  0.00    +0.071 C 
ATOM      7  C   UNL     1      33.805 -16.583 -20.993  0.00  0.00    +0.071 C 
ATOM      8  C   UNL     1      35.413 -18.203 -22.144  0.00  0.00    +0.249 C 
ATOM      9  H   UNL     1      32.637 -14.608 -22.329  0.00  0.00    -0.079 HD
ENDROOT
BRANCH   8  10
ATOM     10  C   UNL     1      35.548 -18.980 -20.897  0.00  0.00    +0.058 C 
ATOM     11  C   UNL     1      34.644 -19.934 -20.639  0.00  0.00    +0.005 C 
BRANCH  11  12
ATOM     12  C   UNL     1      34.639 -20.784 -19.436  0.00  0.00    +0.006 C 
ATOM     13  C   UNL     1      33.483 -21.481 -19.080  0.00  0.00    +0.040 C 
ATOM     14  C   UNL     1      35.788 -20.893 -18.653  0.00  0.00    +0.040 C 
ATOM     15  C   UNL     1      35.782 -21.697 -17.514  0.00  0.00    +0.175 C 
ATOM     16  C   UNL     1      33.478 -22.286 -17.941  0.00  0.00    +0.175 C 
ATOM     17  C   UNL     1      34.628 -22.393 -17.158  0.00  0.00    +0.206 C 
BRANCH  15  18
ATOM     18  O   UNL     1      36.912 -21.795 -16.758  0.00  0.00    -0.468 OA
ATOM     19  C   UNL     1      37.435 -20.584 -16.216  0.00  0.00    +0.253 C 
ENDBRANCH  15  18
BRANCH  16  20
ATOM     20  O   UNL     1      32.344 -22.961 -17.604  0.00  0.00    -0.468 OA
ATOM     21  C   UNL     1      31.372 -22.254 -16.837  0.00  0.00    +0.253 C 
ENDBRANCH  16  20
BRANCH  17  22
ATOM     22  O   UNL     1      34.622 -23.181 -16.045  0.00  0.00    -0.465 OA
ATOM     23  C   UNL     1      34.409 -22.532 -14.793  0.00  0.00    +0.253 C 
ENDBRANCH  17  22
ENDBRANCH  11  12
ENDBRANCH   8  10
BRANCH   2  24
ATOM     24  C   UNL     1      33.736 -12.941 -21.967  0.00  0.00    +0.010 C 
BRANCH  24  31
ATOM     25  O   UNL     1      31.760 -13.089 -20.648  0.00  0.00    -0.277 OA
ATOM     26  N   UNL     1      32.009 -11.209 -21.968  0.00  0.00    -0.281 N 
ATOM     27  C   UNL     1      30.754 -10.582 -21.579  0.00  0.00    +0.093 C 
ATOM     28  C   UNL     1      32.733 -10.381 -22.927  0.00  0.00    +0.093 C 
ATOM     29  C   UNL     1      30.864  -9.157 -22.098  0.00  0.00    +0.023 C 
ATOM     30  C   UNL     1      31.728  -9.316 -23.343  0.00  0.00    +0.023 C 
ATOM     31  C   UNL     1      32.412 -12.430 -21.459  0.00  0.00    +0.205 C 
ENDBRANCH  24  31
ENDBRANCH   2  24
TORSDOF 7
ENDMDL
MODEL 6
REMARK VINA RESULT:     -10.0      1.414      2.752
REMARK  Name = 5282459
REMARK  7 active torsions:
REMARK  status: ('A' for Active; 'I' for Inactive)
REMARK    1  A    between atoms: N_2  and  C_24
REMARK    2  A    between atoms: C_8  and  C_10
REMARK    3  A    between atoms: C_11  and  C_12
REMARK    4  A    between atoms: C_15  and  O_18
REMARK    5  A    between atoms: C_16  and  O_20
REMARK    6  A    between atoms: C_17  and  O_22
REMARK    7  A    between atoms: C_24  and  C_31
REMARK                            x       y       z     vdW  Elec       q    Type
REMARK                         _______ _______ _______ _____ _____    ______ ____
ROOT
ATOM      1  O   UNL     1      33.443 -15.241 -25.350  0.00  0.00    -0.270 OA
ATOM      2  N   UNL     1      34.388 -18.485 -21.715  0.00  0.00    +0.395 N 
ATOM      3  N   UNL     1      34.266 -16.151 -23.375  0.00  0.00    -0.280 N 
ATOM      4  C   UNL     1      33.873 -18.570 -23.089  0.00  0.00    -0.055 C 
ATOM      5  C   UNL     1      34.096 -17.167 -21.132  0.00  0.00    -0.055 C 
ATOM      6  C   UNL     1      34.478 -17.473 -23.967  0.00  0.00    +0.071 C 
ATOM      7  C   UNL     1      34.709 -16.051 -21.980  0.00  0.00    +0.071 C 
ATOM      8  C   UNL     1      33.807 -15.111 -24.179  0.00  0.00    +0.249 C 
ATOM      9  H   UNL     1      35.401 -18.604 -21.744  0.00  0.00    -0.079 HD
ENDROOT
BRANCH   8  10
ATOM     10  C   UNL     1      33.752 -13.757 -23.595  0.00  0.00    +0.058 C 
ATOM     11  C   UNL     1      32.568 -13.132 -23.547  0.00  0.00    +0.005 C 
BRANCH  11  12
ATOM     12  C   UNL     1      32.353 -11.779 -23.005  0.00  0.00    +0.006 C 
ATOM     13  C   UNL     1      32.989 -10.684 -23.591  0.00  0.00    +0.040 C 
ATOM     14  C   UNL     1      31.514 -11.592 -21.907  0.00  0.00    +0.040 C 
ATOM     15  C   UNL     1      31.311 -10.311 -21.394  0.00  0.00    +0.175 C 
ATOM     16  C   UNL     1      32.786  -9.403 -23.079  0.00  0.00    +0.175 C 
ATOM     17  C   UNL     1      31.947  -9.217 -21.979  0.00  0.00    +0.206 C 
BRANCH  15  18
ATOM     18  O   UNL     1      30.489 -10.142 -20.320  0.00  0.00    -0.468 OA
ATOM     19  C   UNL     1      31.105  -9.801 -19.080  0.00  0.00    +0.253 C 
ENDBRANCH  15  18
BRANCH  16  20
ATOM     20  O   UNL     1      33.412  -8.342 -23.660  0.00  0.00    -0.468 OA
ATOM     21  C   UNL     1      34.827  -8.430 -23.814  0.00  0.00    +0.253 C 
ENDBRANCH  16  20
BRANCH  17  22
ATOM     22  O   UNL     1      31.748  -7.964 -21.479  0.00  0.00    -0.465 OA
ATOM     23  C   UNL     1      30.729  -7.177 -22.092  0.00  0.00    +0.253 C 
ENDBRANCH  17  22
ENDBRANCH  11  12
ENDBRANCH   8  10
BRANCH   2  24
ATOM     24  C   UNL     1      33.824 -19.550 -20.887  0.00  0.00    +0.010 C 
BRANCH  24  31
ATOM     25  O   UNL     1      36.099 -19.703 -20.202  0.00  0.00    -0.277 OA
ATOM     26  N   UNL     1      34.557 -20.962 -19.029  0.00  0.00    -0.281 N 
ATOM     27  C   UNL     1      35.513 -21.555 -18.106  0.00  0.00    +0.093 C 
ATOM     28  C   UNL     1      33.203 -21.434 -18.756  0.00  0.00    +0.093 C 
ATOM     29  C   UNL     1      34.654 -22.188 -17.023  0.00  0.00    +0.023 C 
ATOM     30  C   UNL     1      33.393 -22.586 -17.780  0.00  0.00    +0.023 C 
ATOM     31  C   UNL     1      34.938 -20.069 -20.014  0.00  0.00    +0.205 C 
ENDBRANCH  24  31
ENDBRANCH   2  24
TORSDOF 7
ENDMDL
MODEL 7
REMARK VINA RESULT:     -10.0      2.803     11.210
REMARK  Name = 5282459
REMARK  7 active torsions:
REMARK  status: ('A' for Active; 'I' for Inactive)
REMARK    1  A    between atoms: N_2  and  C_24
REMARK    2  A    between atoms: C_8  and  C_10
REMARK    3  A    between atoms: C_11  and  C_12
REMARK    4  A    between atoms: C_15  and  O_18
REMARK    5  A    between atoms: C_16  and  O_20
REMARK    6  A    between atoms: C_17  and  O_22
REMARK    7  A    between atoms: C_24  and  C_31
REMARK                            x       y       z     vdW  Elec       q    Type
REMARK                         _______ _______ _______ _____ _____    ______ ____
ROOT
ATOM      1  O   UNL     1      35.953 -18.638 -23.220  0.00  0.00    -0.270 OA
ATOM      2  N   UNL     1      33.599 -14.393 -22.188  0.00  0.00    +0.395 N 
ATOM      3  N   UNL     1      34.531 -17.104 -22.206  0.00  0.00    -0.280 N 
ATOM      4  C   UNL     1      34.406 -14.899 -23.308  0.00  0.00    -0.055 C 
ATOM      5  C   UNL     1      33.972 -15.063 -20.934  0.00  0.00    -0.055 C 
ATOM      6  C   UNL     1      34.235 -16.412 -23.462  0.00  0.00    +0.071 C 
ATOM      7  C   UNL     1      33.790 -16.577 -21.053  0.00  0.00    +0.071 C 
ATOM      8  C   UNL     1      35.347 -18.231 -22.226  0.00  0.00    +0.249 C 
ATOM      9  H   UNL     1      32.618 -14.598 -22.381  0.00  0.00    -0.079 HD
ENDROOT
BRANCH   8  10
ATOM     10  C   UNL     1      35.501 -18.997 -20.974  0.00  0.00    +0.058 C 
ATOM     11  C   UNL     1      34.613 -19.964 -20.706  0.00  0.00    +0.005 C 
BRANCH  11  12
ATOM     12  C   UNL     1      34.627 -20.807 -19.498  0.00  0.00    +0.006 C 
ATOM     13  C   UNL     1      35.788 -20.905 -18.729  0.00  0.00    +0.040 C 
ATOM     14  C   UNL     1      33.481 -21.506 -19.122  0.00  0.00    +0.040 C 
ATOM     15  C   UNL     1      33.494 -22.304 -17.978  0.00  0.00    +0.175 C 
ATOM     16  C   UNL     1      35.801 -21.703 -17.585  0.00  0.00    +0.175 C 
ATOM     17  C   UNL     1      34.654 -22.402 -17.210  0.00  0.00    +0.206 C 
BRANCH  15  18
ATOM     18  O   UNL     1      32.367 -22.982 -17.621  0.00  0.00    -0.468 OA
ATOM     19  C   UNL     1      31.390 -22.265 -16.870  0.00  0.00    +0.253 C 
ENDBRANCH  15  18
BRANCH  16  20
ATOM     20  O   UNL     1      36.940 -21.789 -16.843  0.00  0.00    -0.468 OA
ATOM     21  C   UNL     1      37.364 -20.609 -16.165  0.00  0.00    +0.253 C 
ENDBRANCH  16  20
BRANCH  17  22
ATOM     22  O   UNL     1      34.667 -23.181 -16.091  0.00  0.00    -0.465 OA
ATOM     23  C   UNL     1      34.391 -22.536 -14.850  0.00  0.00    +0.253 C 
ENDBRANCH  17  22
ENDBRANCH  11  12
ENDBRANCH   8  10
BRANCH   2  24
ATOM     24  C   UNL     1      33.749 -12.944 -22.061  0.00  0.00    +0.010 C 
BRANCH  24  31
ATOM     25  O   UNL     1      31.801 -13.059 -20.697  0.00  0.00    -0.277 OA
ATOM     26  N   UNL     1      32.055 -11.180 -22.017  0.00  0.00    -0.281 N 
ATOM     27  C   UNL     1      30.821 -10.530 -21.597  0.00  0.00    +0.093 C 
ATOM     28  C   UNL     1      32.772 -10.362 -22.989  0.00  0.00    +0.093 C 
ATOM     29  C   UNL     1      30.947  -9.106 -22.114  0.00  0.00    +0.023 C 
ATOM     30  C   UNL     1      31.778  -9.277 -23.379  0.00  0.00    +0.023 C 
ATOM     31  C   UNL     1      32.446 -12.410 -21.521  0.00  0.00    +0.205 C 
ENDBRANCH  24  31
ENDBRANCH   2  24
TORSDOF 7
ENDMDL
MODEL 8
REMARK VINA RESULT:      -9.7      4.712     12.076
REMARK  Name = 5282459
REMARK  7 active torsions:
REMARK  status: ('A' for Active; 'I' for Inactive)
REMARK    1  A    between atoms: N_2  and  C_24
REMARK    2  A    between atoms: C_8  and  C_10
REMARK    3  A    between atoms: C_11  and  C_12
REMARK    4  A    between atoms: C_15  and  O_18
REMARK    5  A    between atoms: C_16  and  O_20
REMARK    6  A    between atoms: C_17  and  O_22
REMARK    7  A    between atoms: C_24  and  C_31
REMARK                            x       y       z     vdW  Elec       q    Type
REMARK                         _______ _______ _______ _____ _____    ______ ____
ROOT
ATOM      1  O   UNL     1      36.165 -21.588 -18.759  0.00  0.00    -0.270 OA
ATOM      2  N   UNL     1      34.884 -17.846 -21.756  0.00  0.00    +0.395 N 
ATOM      3  N   UNL     1      34.920 -20.250 -20.196  0.00  0.00    -0.280 N 
ATOM      4  C   UNL     1      36.142 -18.348 -21.184  0.00  0.00    -0.055 C 
ATOM      5  C   UNL     1      33.746 -18.194 -20.893  0.00  0.00    -0.055 C 
ATOM      6  C   UNL     1      36.086 -19.865 -20.993  0.00  0.00    +0.071 C 
ATOM      7  C   UNL     1      33.653 -19.709 -20.702  0.00  0.00    +0.071 C 
ATOM      8  C   UNL     1      35.079 -21.159 -19.153  0.00  0.00    +0.249 C 
ATOM      9  H   UNL     1      34.745 -18.289 -22.664  0.00  0.00    -0.079 HD
ENDROOT
BRANCH   8  10
ATOM     10  C   UNL     1      33.866 -21.648 -18.470  0.00  0.00    +0.058 C 
ATOM     11  C   UNL     1      33.967 -22.033 -17.191  0.00  0.00    +0.005 C 
BRANCH  11  12
ATOM     12  C   UNL     1      32.853 -22.551 -16.378  0.00  0.00    +0.006 C 
ATOM     13  C   UNL     1      33.103 -23.093 -15.116  0.00  0.00    +0.040 C 
ATOM     14  C   UNL     1      31.549 -22.501 -16.869  0.00  0.00    +0.040 C 
ATOM     15  C   UNL     1      30.494 -22.992 -16.100  0.00  0.00    +0.175 C 
ATOM     16  C   UNL     1      32.048 -23.584 -14.347  0.00  0.00    +0.175 C 
ATOM     17  C   UNL     1      30.744 -23.533 -14.839  0.00  0.00    +0.206 C 
BRANCH  15  18
ATOM     18  O   UNL     1      29.224 -22.937 -16.591  0.00  0.00    -0.468 OA
ATOM     19  C   UNL     1      28.334 -22.006 -15.981  0.00  0.00    +0.253 C 
ENDBRANCH  15  18
BRANCH  16  20
ATOM     20  O   UNL     1      32.305 -24.109 -13.117  0.00  0.00    -0.468 OA
ATOM     21  C   UNL     1      33.622 -23.932 -12.599  0.00  0.00    +0.253 C 
ENDBRANCH  16  20
BRANCH  17  22
ATOM     22  O   UNL     1      29.713 -24.013 -14.086  0.00  0.00    -0.465 OA
ATOM     23  C   UNL     1      29.287 -25.348 -14.348  0.00  0.00    +0.253 C 
ENDBRANCH  17  22
ENDBRANCH  11  12
ENDBRANCH   8  10
BRANCH   2  24
ATOM     24  C   UNL     1      34.953 -16.399 -21.957  0.00  0.00    +0.010 C 
BRANCH  24  31
ATOM     25  O   UNL     1      34.181 -16.978 -24.134  0.00  0.00    -0.277 OA
ATOM     26  N   UNL     1      33.806 -14.812 -23.423  0.00  0.00    -0.281 N 
ATOM     27  C   UNL     1      33.133 -14.368 -24.636  0.00  0.00    +0.093 C 
ATOM     28  C   UNL     1      33.889 -13.733 -22.445  0.00  0.00    +0.093 C 
ATOM     29  C   UNL     1      32.507 -13.035 -24.257  0.00  0.00    +0.023 C 
ATOM     30  C   UNL     1      33.479 -12.487 -23.219  0.00  0.00    +0.023 C 
ATOM     31  C   UNL     1      34.279 -16.103 -23.273  0.00  0.00    +0.205 C 
ENDBRANCH  24  31
ENDBRANCH   2  24
TORSDOF 7
ENDMDL
MODEL 9
REMARK VINA RESULT:      -9.7      4.710     12.136
REMARK  Name = 5282459
REMARK  7 active torsions:
REMARK  status: ('A' for Active; 'I' for Inactive)
REMARK    1  A    between atoms: N_2  and  C_24
REMARK    2  A    between atoms: C_8  and  C_10
REMARK    3  A    between atoms: C_11  and  C_12
REMARK    4  A    between atoms: C_15  and  O_18
REMARK    5  A    between atoms: C_16  and  O_20
REMARK    6  A    between atoms: C_17  and  O_22
REMARK    7  A    between atoms: C_24  and  C_31
REMARK                            x       y       z     vdW  Elec       q    Type
REMARK                         _______ _______ _______ _____ _____    ______ ____
ROOT
ATOM      1  O   UNL     1      36.179 -21.574 -18.745  0.00  0.00    -0.270 OA
ATOM      2  N   UNL     1      34.890 -17.846 -21.757  0.00  0.00    +0.395 N 
ATOM      3  N   UNL     1      34.933 -20.248 -20.191  0.00  0.00    -0.280 N 
ATOM      4  C   UNL     1      36.148 -18.339 -21.177  0.00  0.00    -0.055 C 
ATOM      5  C   UNL     1      33.749 -18.201 -20.900  0.00  0.00    -0.055 C 
ATOM      6  C   UNL     1      36.101 -19.855 -20.982  0.00  0.00    +0.071 C 
ATOM      7  C   UNL     1      33.666 -19.716 -20.707  0.00  0.00    +0.071 C 
ATOM      8  C   UNL     1      35.092 -21.153 -19.146  0.00  0.00    +0.249 C 
ATOM      9  H   UNL     1      34.759 -18.293 -22.665  0.00  0.00    -0.079 HD
ENDROOT
BRANCH   8  10
ATOM     10  C   UNL     1      33.878 -21.649 -18.468  0.00  0.00    +0.058 C 
ATOM     11  C   UNL     1      33.973 -22.021 -17.186  0.00  0.00    +0.005 C 
BRANCH  11  12
ATOM     12  C   UNL     1      32.857 -22.544 -16.378  0.00  0.00    +0.006 C 
ATOM     13  C   UNL     1      31.552 -22.482 -16.868  0.00  0.00    +0.040 C 
ATOM     14  C   UNL     1      33.105 -23.101 -15.123  0.00  0.00    +0.040 C 
ATOM     15  C   UNL     1      32.048 -23.596 -14.359  0.00  0.00    +0.175 C 
ATOM     16  C   UNL     1      30.495 -22.978 -16.104  0.00  0.00    +0.175 C 
ATOM     17  C   UNL     1      30.744 -23.534 -14.849  0.00  0.00    +0.206 C 
BRANCH  15  18
ATOM     18  O   UNL     1      32.304 -24.138 -13.135  0.00  0.00    -0.468 OA
ATOM     19  C   UNL     1      33.599 -23.910 -12.584  0.00  0.00    +0.253 C 
ENDBRANCH  15  18
BRANCH  16  20
ATOM     20  O   UNL     1      29.226 -22.912 -16.594  0.00  0.00    -0.468 OA
ATOM     21  C   UNL     1      28.333 -22.000 -15.960  0.00  0.00    +0.253 C 
ENDBRANCH  16  20
BRANCH  17  22
ATOM     22  O   UNL     1      29.712 -24.019 -14.102  0.00  0.00    -0.465 OA
ATOM     23  C   UNL     1      29.301 -25.360 -14.359  0.00  0.00    +0.253 C 
ENDBRANCH  17  22
ENDBRANCH  11  12
ENDBRANCH   8  10
BRANCH   2  24
ATOM     24  C   UNL     1      34.950 -16.400 -21.961  0.00  0.00    +0.010 C 
BRANCH  24  31
ATOM     25  O   UNL     1      34.212 -16.991 -24.147  0.00  0.00    -0.277 OA
ATOM     26  N   UNL     1      33.812 -14.826 -23.448  0.00  0.00    -0.281 N 
ATOM     27  C   UNL     1      33.153 -14.390 -24.671  0.00  0.00    +0.093 C 
ATOM     28  C   UNL     1      33.874 -13.743 -22.472  0.00  0.00    +0.093 C 
ATOM     29  C   UNL     1      32.513 -13.060 -24.304  0.00  0.00    +0.023 C 
ATOM     30  C   UNL     1      33.466 -12.502 -23.255  0.00  0.00    +0.023 C 
ATOM     31  C   UNL     1      34.292 -16.113 -23.287  0.00  0.00    +0.205 C 
ENDBRANCH  24  31
ENDBRANCH   2  24
TORSDOF 7
ENDMDL
