MODEL 1
REMARK VINA RESULT:     -12.4      0.000      0.000
REMARK  Name = 46851313
REMARK  4 active torsions:
REMARK  status: ('A' for Active; 'I' for Inactive)
REMARK    1  A    between atoms: C_3  and  C_19
REMARK    2  A    between atoms: C_6  and  S_21
REMARK    3  A    between atoms: S_21  and  N_24
REMARK    4  A    between atoms: N_24  and  C_27
REMARK                            x       y       z     vdW  Elec       q    Type
REMARK                         _______ _______ _______ _____ _____    ______ ____
ROOT
ATOM      1 CL   UNL     1      30.425 -23.122 -13.001  0.00  0.00    -0.082 Cl
ATOM      2  F   UNL     1      30.914 -21.749 -17.836  0.00  0.00    -0.203 F 
ATOM      3  C   UNL     1      32.715 -23.325 -14.470  0.00  0.00    +0.066 C 
ATOM      4  C   UNL     1      33.452 -23.173 -15.644  0.00  0.00    +0.028 C 
ATOM      5  C   UNL     1      31.373 -22.946 -14.434  0.00  0.00    +0.064 C 
ATOM      6  C   UNL     1      32.848 -22.641 -16.782  0.00  0.00    +0.153 C 
ATOM      7  C   UNL     1      30.769 -22.414 -15.573  0.00  0.00    +0.043 C 
ATOM      8  C   UNL     1      31.506 -22.261 -16.747  0.00  0.00    +0.160 C 
ENDROOT
BRANCH   3  19
ATOM      9  O   UNL     1      32.671 -24.405 -12.445  0.00  0.00    -0.270 OA
ATOM     10  N   UNL     1      37.574 -24.295 -13.319  0.00  0.00    +0.391 N 
ATOM     11  N   UNL     1      34.787 -23.795 -13.231  0.00  0.00    -0.280 N 
ATOM     12  C   UNL     1      36.851 -23.939 -14.543  0.00  0.00    -0.038 C 
ATOM     13  C   UNL     1      37.945 -23.251 -15.341  0.00  0.00    -0.021 C 
ATOM     14  C   UNL     1      38.814 -24.909 -13.776  0.00  0.00    -0.077 C 
ATOM     15  C   UNL     1      35.638 -23.085 -14.207  0.00  0.00    +0.073 C 
ATOM     16  C   UNL     1      39.207 -24.040 -14.973  0.00  0.00    -0.025 C 
ATOM     17  C   UNL     1      36.751 -25.129 -12.453  0.00  0.00    -0.055 C 
ATOM     18  C   UNL     1      35.491 -24.345 -12.063  0.00  0.00    +0.071 C 
ATOM     19  C   UNL     1      33.394 -23.890 -13.296  0.00  0.00    +0.250 C 
ATOM     20  H   UNL     1      37.797 -23.495 -12.728  0.00  0.00    -0.079 HD
ENDBRANCH   3  19
BRANCH   6  21
ATOM     21  S   UNL     1      33.774 -22.451 -18.251  0.00  0.00    +0.076 S 
ATOM     22  O   UNL     1      35.163 -22.223 -17.875  0.00  0.00    -0.150 OA
ATOM     23  O   UNL     1      33.462 -23.561 -19.144  0.00  0.00    -0.150 OA
BRANCH  21  24
ATOM     24  N   UNL     1      33.150 -20.987 -18.910  0.00  0.00    -0.213 N 
ATOM     25  H   UNL     1      32.268 -20.644 -18.636  0.00  0.00    +0.174 HD
BRANCH  24  27
ATOM     26  F   UNL     1      32.035 -19.800 -21.184  0.00  0.00    -0.203 F 
ATOM     27  C   UNL     1      33.953 -20.280 -19.869  0.00  0.00    +0.092 C 
ATOM     28  C   UNL     1      33.358 -19.702 -20.990  0.00  0.00    +0.155 C 
ATOM     29  C   UNL     1      35.332 -20.173 -19.679  0.00  0.00    +0.018 C 
ATOM     30  C   UNL     1      34.140 -19.017 -21.921  0.00  0.00    +0.031 C 
ATOM     31  C   UNL     1      36.113 -19.487 -20.609  0.00  0.00    +0.001 C 
ATOM     32  C   UNL     1      35.517 -18.910 -21.730  0.00  0.00    +0.002 C 
ENDBRANCH  24  27
ENDBRANCH  21  24
ENDBRANCH   6  21
TORSDOF 4
ENDMDL
MODEL 2
REMARK VINA RESULT:     -12.1      6.398      9.471
REMARK  Name = 46851313
REMARK  4 active torsions:
REMARK  status: ('A' for Active; 'I' for Inactive)
REMARK    1  A    between atoms: C_3  and  C_19
REMARK    2  A    between atoms: C_6  and  S_21
REMARK    3  A    between atoms: S_21  and  N_24
REMARK    4  A    between atoms: N_24  and  C_27
REMARK                            x       y       z     vdW  Elec       q    Type
REMARK                         _______ _______ _______ _____ _____    ______ ____
ROOT
ATOM      1 CL   UNL     1      35.001 -19.001 -24.271  0.00  0.00    -0.082 Cl
ATOM      2  F   UNL     1      32.601 -14.570 -23.951  0.00  0.00    -0.203 F 
ATOM      3  C   UNL     1      35.045 -17.341 -22.106  0.00  0.00    +0.066 C 
ATOM      4  C   UNL     1      34.687 -16.175 -21.432  0.00  0.00    +0.028 C 
ATOM      5  C   UNL     1      34.578 -17.571 -23.401  0.00  0.00    +0.064 C 
ATOM      6  C   UNL     1      33.861 -15.237 -22.051  0.00  0.00    +0.153 C 
ATOM      7  C   UNL     1      33.752 -16.632 -24.020  0.00  0.00    +0.043 C 
ATOM      8  C   UNL     1      33.393 -15.465 -23.345  0.00  0.00    +0.160 C 
ENDROOT
BRANCH   3  19
ATOM      9  O   UNL     1      37.116 -18.031 -21.397  0.00  0.00    -0.270 OA
ATOM     10  N   UNL     1      34.201 -21.336 -19.072  0.00  0.00    +0.391 N 
ATOM     11  N   UNL     1      35.327 -19.432 -20.841  0.00  0.00    -0.280 N 
ATOM     12  C   UNL     1      33.379 -20.243 -19.598  0.00  0.00    -0.038 C 
ATOM     13  C   UNL     1      32.002 -20.885 -19.595  0.00  0.00    -0.021 C 
ATOM     14  C   UNL     1      33.485 -21.819 -17.898  0.00  0.00    -0.077 C 
ATOM     15  C   UNL     1      33.902 -19.798 -20.955  0.00  0.00    +0.073 C 
ATOM     16  C   UNL     1      32.023 -21.772 -18.345  0.00  0.00    -0.025 C 
ATOM     17  C   UNL     1      35.566 -20.886 -18.825  0.00  0.00    -0.055 C 
ATOM     18  C   UNL     1      36.177 -20.412 -20.150  0.00  0.00    +0.071 C 
ATOM     19  C   UNL     1      35.916 -18.300 -21.414  0.00  0.00    +0.250 C 
ATOM     20  H   UNL     1      34.325 -22.107 -19.727  0.00  0.00    -0.079 HD
ENDBRANCH   3  19
BRANCH   6  21
ATOM     21  S   UNL     1      33.416 -13.776 -21.203  0.00  0.00    +0.076 S 
ATOM     22  O   UNL     1      32.824 -14.164 -19.929  0.00  0.00    -0.150 OA
ATOM     23  O   UNL     1      34.560 -12.873 -21.199  0.00  0.00    -0.150 OA
BRANCH  21  24
ATOM     24  N   UNL     1      32.168 -13.124 -22.196  0.00  0.00    -0.213 N 
ATOM     25  H   UNL     1      31.654 -13.700 -22.807  0.00  0.00    +0.174 HD
BRANCH  24  27
ATOM     26  F   UNL     1      33.153 -11.308 -24.082  0.00  0.00    -0.203 F 
ATOM     27  C   UNL     1      31.899 -11.715 -22.107  0.00  0.00    +0.092 C 
ATOM     28  C   UNL     1      32.409 -10.842 -23.068  0.00  0.00    +0.155 C 
ATOM     29  C   UNL     1      31.127 -11.219 -21.055  0.00  0.00    +0.018 C 
ATOM     30  C   UNL     1      32.148  -9.475 -22.979  0.00  0.00    +0.031 C 
ATOM     31  C   UNL     1      30.865  -9.852 -20.967  0.00  0.00    +0.001 C 
ATOM     32  C   UNL     1      31.375  -8.980 -21.929  0.00  0.00    +0.002 C 
ENDBRANCH  24  27
ENDBRANCH  21  24
ENDBRANCH   6  21
TORSDOF 4
ENDMDL
MODEL 3
REMARK VINA RESULT:     -12.0      2.472      4.832
REMARK  Name = 46851313
REMARK  4 active torsions:
REMARK  status: ('A' for Active; 'I' for Inactive)
REMARK    1  A    between atoms: C_3  and  C_19
REMARK    2  A    between atoms: C_6  and  S_21
REMARK    3  A    between atoms: S_21  and  N_24
REMARK    4  A    between atoms: N_24  and  C_27
REMARK                            x       y       z     vdW  Elec       q    Type
REMARK                         _______ _______ _______ _____ _____    ______ ____
ROOT
ATOM      1 CL   UNL     1      36.439 -22.566 -13.290  0.00  0.00    -0.082 Cl
ATOM      2  F   UNL     1      36.779 -20.822 -18.017  0.00  0.00    -0.203 F 
ATOM      3  C   UNL     1      34.548 -22.897 -15.228  0.00  0.00    +0.066 C 
ATOM      4  C   UNL     1      34.054 -22.722 -16.520  0.00  0.00    +0.028 C 
ATOM      5  C   UNL     1      35.793 -22.373 -14.880  0.00  0.00    +0.064 C 
ATOM      6  C   UNL     1      34.804 -22.022 -17.465  0.00  0.00    +0.153 C 
ATOM      7  C   UNL     1      36.544 -21.673 -15.825  0.00  0.00    +0.043 C 
ATOM      8  C   UNL     1      36.050 -21.498 -17.118  0.00  0.00    +0.160 C 
ENDROOT
BRANCH   3  19
ATOM      9  O   UNL     1      34.308 -24.100 -13.288  0.00  0.00    -0.270 OA
ATOM     10  N   UNL     1      29.538 -23.512 -14.599  0.00  0.00    +0.391 N 
ATOM     11  N   UNL     1      32.358 -23.776 -14.537  0.00  0.00    -0.280 N 
ATOM     12  C   UNL     1      30.379 -22.618 -15.400  0.00  0.00    -0.038 C 
ATOM     13  C   UNL     1      29.450 -22.301 -16.558  0.00  0.00    -0.021 C 
ATOM     14  C   UNL     1      28.251 -22.835 -14.502  0.00  0.00    -0.077 C 
ATOM     15  C   UNL     1      31.683 -23.312 -15.765  0.00  0.00    +0.073 C 
ATOM     16  C   UNL     1      28.065 -22.250 -15.903  0.00  0.00    -0.025 C 
ATOM     17  C   UNL     1      30.175 -23.820 -13.324  0.00  0.00    -0.055 C 
ATOM     18  C   UNL     1      31.510 -24.524 -13.596  0.00  0.00    +0.071 C 
ATOM     19  C   UNL     1      33.723 -23.641 -14.268  0.00  0.00    +0.250 C 
ATOM     20  H   UNL     1      29.401 -24.430 -15.018  0.00  0.00    -0.079 HD
ENDBRANCH   3  19
BRANCH   6  21
ATOM     21  S   UNL     1      34.182 -21.804 -19.082  0.00  0.00    +0.076 S 
ATOM     22  O   UNL     1      35.194 -22.278 -20.017  0.00  0.00    -0.150 OA
ATOM     23  O   UNL     1      32.843 -22.378 -19.147  0.00  0.00    -0.150 OA
BRANCH  21  24
ATOM     24  N   UNL     1      34.082 -20.090 -19.225  0.00  0.00    -0.213 N 
ATOM     25  H   UNL     1      33.690 -19.544 -18.505  0.00  0.00    +0.174 HD
BRANCH  24  27
ATOM     26  F   UNL     1      32.497 -19.783 -21.509  0.00  0.00    -0.203 F 
ATOM     27  C   UNL     1      34.588 -19.480 -20.424  0.00  0.00    +0.092 C 
ATOM     28  C   UNL     1      33.764 -19.345 -21.542  0.00  0.00    +0.155 C 
ATOM     29  C   UNL     1      35.905 -19.023 -20.471  0.00  0.00    +0.018 C 
ATOM     30  C   UNL     1      34.257 -18.754 -22.706  0.00  0.00    +0.031 C 
ATOM     31  C   UNL     1      36.398 -18.431 -21.634  0.00  0.00    +0.001 C 
ATOM     32  C   UNL     1      35.574 -18.297 -22.751  0.00  0.00    +0.002 C 
ENDBRANCH  24  27
ENDBRANCH  21  24
ENDBRANCH   6  21
TORSDOF 4
ENDMDL
MODEL 4
REMARK VINA RESULT:     -11.4      2.767      5.146
REMARK  Name = 46851313
REMARK  4 active torsions:
REMARK  status: ('A' for Active; 'I' for Inactive)
REMARK    1  A    between atoms: C_3  and  C_19
REMARK    2  A    between atoms: C_6  and  S_21
REMARK    3  A    between atoms: S_21  and  N_24
REMARK    4  A    between atoms: N_24  and  C_27
REMARK                            x       y       z     vdW  Elec       q    Type
REMARK                         _______ _______ _______ _____ _____    ______ ____
ROOT
ATOM      1 CL   UNL     1      36.692 -26.066 -12.345  0.00  0.00    -0.082 Cl
ATOM      2  F   UNL     1      38.906 -23.116 -15.794  0.00  0.00    -0.203 F 
ATOM      3  C   UNL     1      35.552 -23.877 -13.506  0.00  0.00    +0.066 C 
ATOM      4  C   UNL     1      35.566 -22.786 -14.374  0.00  0.00    +0.028 C 
ATOM      5  C   UNL     1      36.668 -24.708 -13.411  0.00  0.00    +0.064 C 
ATOM      6  C   UNL     1      36.697 -22.526 -15.149  0.00  0.00    +0.153 C 
ATOM      7  C   UNL     1      37.799 -24.448 -14.186  0.00  0.00    +0.043 C 
ATOM      8  C   UNL     1      37.813 -23.357 -15.055  0.00  0.00    +0.160 C 
ENDROOT
BRANCH   3  19
ATOM      9  O   UNL     1      34.510 -24.343 -11.514  0.00  0.00    -0.270 OA
ATOM     10  N   UNL     1      30.576 -23.297 -14.386  0.00  0.00    +0.391 N 
ATOM     11  N   UNL     1      33.104 -24.061 -13.362  0.00  0.00    -0.280 N 
ATOM     12  C   UNL     1      31.804 -22.876 -15.067  0.00  0.00    -0.038 C 
ATOM     13  C   UNL     1      31.321 -22.767 -16.503  0.00  0.00    -0.021 C 
ATOM     14  C   UNL     1      29.543 -22.391 -14.874  0.00  0.00    -0.077 C 
ATOM     15  C   UNL     1      32.915 -23.884 -14.815  0.00  0.00    +0.073 C 
ATOM     16  C   UNL     1      29.885 -22.250 -16.359  0.00  0.00    -0.025 C 
ATOM     17  C   UNL     1      30.761 -23.306 -12.941  0.00  0.00    -0.055 C 
ATOM     18  C   UNL     1      31.875 -24.300 -12.591  0.00  0.00    +0.071 C 
ATOM     19  C   UNL     1      34.340 -24.111 -12.711  0.00  0.00    +0.250 C 
ATOM     20  H   UNL     1      30.302 -24.257 -14.592  0.00  0.00    -0.079 HD
ENDBRANCH   3  19
BRANCH   6  21
ATOM     21  S   UNL     1      36.711 -21.159 -16.236  0.00  0.00    +0.076 S 
ATOM     22  O   UNL     1      35.541 -20.342 -15.938  0.00  0.00    -0.150 OA
ATOM     23  O   UNL     1      38.030 -20.539 -16.187  0.00  0.00    -0.150 OA
BRANCH  21  24
ATOM     24  N   UNL     1      36.474 -21.893 -17.776  0.00  0.00    -0.213 N 
ATOM     25  H   UNL     1      36.994 -22.685 -18.045  0.00  0.00    +0.174 HD
BRANCH  24  27
ATOM     26  F   UNL     1      33.788 -22.668 -17.712  0.00  0.00    -0.203 F 
ATOM     27  C   UNL     1      35.496 -21.316 -18.658  0.00  0.00    +0.092 C 
ATOM     28  C   UNL     1      34.166 -21.730 -18.593  0.00  0.00    +0.155 C 
ATOM     29  C   UNL     1      35.878 -20.341 -19.579  0.00  0.00    +0.018 C 
ATOM     30  C   UNL     1      33.218 -21.170 -19.450  0.00  0.00    +0.031 C 
ATOM     31  C   UNL     1      34.930 -19.780 -20.435  0.00  0.00    +0.001 C 
ATOM     32  C   UNL     1      33.601 -20.195 -20.371  0.00  0.00    +0.002 C 
ENDBRANCH  24  27
ENDBRANCH  21  24
ENDBRANCH   6  21
TORSDOF 4
ENDMDL
MODEL 5
REMARK VINA RESULT:     -11.3     12.436     16.928
REMARK  Name = 46851313
REMARK  4 active torsions:
REMARK  status: ('A' for Active; 'I' for Inactive)
REMARK    1  A    between atoms: C_3  and  C_19
REMARK    2  A    between atoms: C_6  and  S_21
REMARK    3  A    between atoms: S_21  and  N_24
REMARK    4  A    between atoms: N_24  and  C_27
REMARK                            x       y       z     vdW  Elec       q    Type
REMARK                         _______ _______ _______ _____ _____    ______ ____
ROOT
ATOM      1 CL   UNL     1      33.942  -5.610 -22.888  0.00  0.00    -0.082 Cl
ATOM      2  F   UNL     1      34.730 -10.406 -24.257  0.00  0.00    -0.203 F 
ATOM      3  C   UNL     1      32.322  -7.712 -22.255  0.00  0.00    +0.066 C 
ATOM      4  C   UNL     1      31.976  -9.063 -22.286  0.00  0.00    +0.028 C 
ATOM      5  C   UNL     1      33.480  -7.274 -22.899  0.00  0.00    +0.064 C 
ATOM      6  C   UNL     1      32.787  -9.976 -22.960  0.00  0.00    +0.153 C 
ATOM      7  C   UNL     1      34.290  -8.187 -23.574  0.00  0.00    +0.043 C 
ATOM      8  C   UNL     1      33.944  -9.538 -23.604  0.00  0.00    +0.160 C 
ENDROOT
BRANCH   3  19
ATOM      9  O   UNL     1      31.295  -7.002 -20.329  0.00  0.00    -0.270 OA
ATOM     10  N   UNL     1      30.134  -3.270 -23.419  0.00  0.00    +0.391 N 
ATOM     11  N   UNL     1      30.832  -5.756 -22.253  0.00  0.00    -0.280 N 
ATOM     12  C   UNL     1      31.178  -4.101 -24.026  0.00  0.00    -0.038 C 
ATOM     13  C   UNL     1      31.058  -3.702 -25.486  0.00  0.00    -0.021 C 
ATOM     14  C   UNL     1      30.349  -1.935 -23.961  0.00  0.00    -0.077 C 
ATOM     15  C   UNL     1      30.929  -5.569 -23.714  0.00  0.00    +0.073 C 
ATOM     16  C   UNL     1      30.705  -2.212 -25.423  0.00  0.00    -0.025 C 
ATOM     17  C   UNL     1      30.176  -3.364 -21.965  0.00  0.00    -0.055 C 
ATOM     18  C   UNL     1      29.936  -4.822 -21.556  0.00  0.00    +0.071 C 
ATOM     19  C   UNL     1      31.439  -6.789 -21.532  0.00  0.00    +0.250 C 
ATOM     20  H   UNL     1      29.188  -3.573 -23.644  0.00  0.00    -0.079 HD
ENDBRANCH   3  19
BRANCH   6  21
ATOM     21  S   UNL     1      32.349 -11.666 -22.997  0.00  0.00    +0.076 S 
ATOM     22  O   UNL     1      31.199 -11.847 -22.121  0.00  0.00    -0.150 OA
ATOM     23  O   UNL     1      32.246 -12.090 -24.388  0.00  0.00    -0.150 OA
BRANCH  21  24
ATOM     24  N   UNL     1      33.708 -12.428 -22.261  0.00  0.00    -0.213 N 
ATOM     25  H   UNL     1      34.312 -11.923 -21.668  0.00  0.00    +0.174 HD
BRANCH  24  27
ATOM     26  F   UNL     1      34.087 -14.295 -20.213  0.00  0.00    -0.203 F 
ATOM     27  C   UNL     1      33.934 -13.821 -22.535  0.00  0.00    +0.092 C 
ATOM     28  C   UNL     1      34.118 -14.720 -21.485  0.00  0.00    +0.155 C 
ATOM     29  C   UNL     1      33.969 -14.274 -23.854  0.00  0.00    +0.018 C 
ATOM     30  C   UNL     1      34.338 -16.071 -21.752  0.00  0.00    +0.031 C 
ATOM     31  C   UNL     1      34.188 -15.625 -24.122  0.00  0.00    +0.001 C 
ATOM     32  C   UNL     1      34.373 -16.524 -23.071  0.00  0.00    +0.002 C 
ENDBRANCH  24  27
ENDBRANCH  21  24
ENDBRANCH   6  21
TORSDOF 4
ENDMDL
MODEL 6
REMARK VINA RESULT:     -11.0     12.625     16.919
REMARK  Name = 46851313
REMARK  4 active torsions:
REMARK  status: ('A' for Active; 'I' for Inactive)
REMARK    1  A    between atoms: C_3  and  C_19
REMARK    2  A    between atoms: C_6  and  S_21
REMARK    3  A    between atoms: S_21  and  N_24
REMARK    4  A    between atoms: N_24  and  C_27
REMARK                            x       y       z     vdW  Elec       q    Type
REMARK                         _______ _______ _______ _____ _____    ______ ____
ROOT
ATOM      1 CL   UNL     1      31.790  -4.485 -20.203  0.00  0.00    -0.082 Cl
ATOM      2  F   UNL     1      32.381  -9.315 -18.853  0.00  0.00    -0.203 F 
ATOM      3  C   UNL     1      31.012  -6.639 -21.686  0.00  0.00    +0.066 C 
ATOM      4  C   UNL     1      30.879  -8.009 -21.906  0.00  0.00    +0.028 C 
ATOM      5  C   UNL     1      31.605  -6.174 -20.512  0.00  0.00    +0.064 C 
ATOM      6  C   UNL     1      31.340  -8.916 -20.951  0.00  0.00    +0.153 C 
ATOM      7  C   UNL     1      32.065  -7.081 -19.557  0.00  0.00    +0.043 C 
ATOM      8  C   UNL     1      31.933  -8.452 -19.776  0.00  0.00    +0.160 C 
ENDROOT
BRANCH   3  19
ATOM      9  O   UNL     1      29.480  -5.109 -22.449  0.00  0.00    -0.270 OA
ATOM     10  N   UNL     1      32.935  -4.809 -26.025  0.00  0.00    +0.391 N 
ATOM     11  N   UNL     1      31.229  -5.620 -23.914  0.00  0.00    -0.280 N 
ATOM     12  C   UNL     1      33.480  -5.544 -24.879  0.00  0.00    -0.038 C 
ATOM     13  C   UNL     1      34.653  -6.262 -25.522  0.00  0.00    -0.021 C 
ATOM     14  C   UNL     1      34.088  -4.174 -26.650  0.00  0.00    -0.077 C 
ATOM     15  C   UNL     1      32.408  -6.435 -24.269  0.00  0.00    +0.073 C 
ATOM     16  C   UNL     1      35.168  -5.254 -26.555  0.00  0.00    -0.025 C 
ATOM     17  C   UNL     1      31.878  -3.899 -25.603  0.00  0.00    -0.055 C 
ATOM     18  C   UNL     1      30.746  -4.716 -24.968  0.00  0.00    +0.071 C 
ATOM     19  C   UNL     1      30.512  -5.722 -22.718  0.00  0.00    +0.250 C 
ATOM     20  H   UNL     1      32.471  -5.404 -26.709  0.00  0.00    -0.079 HD
ENDBRANCH   3  19
BRANCH   6  21
ATOM     21  S   UNL     1      31.173 -10.632 -21.230  0.00  0.00    +0.076 S 
ATOM     22  O   UNL     1      31.527 -11.320 -19.994  0.00  0.00    -0.150 OA
ATOM     23  O   UNL     1      29.865 -10.882 -21.822  0.00  0.00    -0.150 OA
BRANCH  21  24
ATOM     24  N   UNL     1      32.404 -10.952 -22.392  0.00  0.00    -0.213 N 
ATOM     25  H   UNL     1      32.749 -10.236 -22.975  0.00  0.00    +0.174 HD
BRANCH  24  27
ATOM     26  F   UNL     1      32.560 -12.306 -24.834  0.00  0.00    -0.203 F 
ATOM     27  C   UNL     1      32.915 -12.292 -22.486  0.00  0.00    +0.092 C 
ATOM     28  C   UNL     1      32.976 -12.932 -23.724  0.00  0.00    +0.155 C 
ATOM     29  C   UNL     1      33.349 -12.954 -21.337  0.00  0.00    +0.018 C 
ATOM     30  C   UNL     1      33.471 -14.234 -23.813  0.00  0.00    +0.031 C 
ATOM     31  C   UNL     1      33.845 -14.254 -21.427  0.00  0.00    +0.001 C 
ATOM     32  C   UNL     1      33.905 -14.895 -22.664  0.00  0.00    +0.002 C 
ENDBRANCH  24  27
ENDBRANCH  21  24
ENDBRANCH   6  21
TORSDOF 4
ENDMDL
MODEL 7
REMARK VINA RESULT:     -10.9      3.482      7.487
REMARK  Name = 46851313
REMARK  4 active torsions:
REMARK  status: ('A' for Active; 'I' for Inactive)
REMARK    1  A    between atoms: C_3  and  C_19
REMARK    2  A    between atoms: C_6  and  S_21
REMARK    3  A    between atoms: S_21  and  N_24
REMARK    4  A    between atoms: N_24  and  C_27
REMARK                            x       y       z     vdW  Elec       q    Type
REMARK                         _______ _______ _______ _____ _____    ______ ____
ROOT
ATOM      1 CL   UNL     1      34.146 -20.887 -19.721  0.00  0.00    -0.082 Cl
ATOM      2  F   UNL     1      37.683 -21.878 -16.256  0.00  0.00    -0.203 F 
ATOM      3  C   UNL     1      33.684 -22.020 -17.283  0.00  0.00    +0.066 C 
ATOM      4  C   UNL     1      34.099 -22.503 -16.042  0.00  0.00    +0.028 C 
ATOM      5  C   UNL     1      34.618 -21.491 -18.174  0.00  0.00    +0.064 C 
ATOM      6  C   UNL     1      35.448 -22.456 -15.692  0.00  0.00    +0.153 C 
ATOM      7  C   UNL     1      35.968 -21.444 -17.823  0.00  0.00    +0.043 C 
ATOM      8  C   UNL     1      36.383 -21.927 -16.582  0.00  0.00    +0.160 C 
ENDROOT
BRANCH   3  19
ATOM      9  O   UNL     1      31.952 -21.879 -18.782  0.00  0.00    -0.270 OA
ATOM     10  N   UNL     1      29.561 -23.631 -14.778  0.00  0.00    +0.391 N 
ATOM     11  N   UNL     1      31.356 -22.380 -16.577  0.00  0.00    -0.280 N 
ATOM     12  C   UNL     1      31.007 -23.744 -14.572  0.00  0.00    -0.038 C 
ATOM     13  C   UNL     1      31.078 -23.894 -13.062  0.00  0.00    -0.021 C 
ATOM     14  C   UNL     1      28.980 -24.717 -13.999  0.00  0.00    -0.077 C 
ATOM     15  C   UNL     1      31.717 -22.530 -15.153  0.00  0.00    +0.073 C 
ATOM     16  C   UNL     1      29.829 -24.716 -12.725  0.00  0.00    -0.025 C 
ATOM     17  C   UNL     1      29.236 -23.644 -16.199  0.00  0.00    -0.055 C 
ATOM     18  C   UNL     1      29.918 -22.447 -16.873  0.00  0.00    +0.071 C 
ATOM     19  C   UNL     1      32.254 -22.090 -17.608  0.00  0.00    +0.250 C 
ATOM     20  H   UNL     1      29.170 -22.745 -14.458  0.00  0.00    -0.079 HD
ENDBRANCH   3  19
BRANCH   6  21
ATOM     21  S   UNL     1      35.965 -23.061 -14.136  0.00  0.00    +0.076 S 
ATOM     22  O   UNL     1      37.150 -22.312 -13.739  0.00  0.00    -0.150 OA
ATOM     23  O   UNL     1      34.814 -23.083 -13.241  0.00  0.00    -0.150 OA
BRANCH  21  24
ATOM     24  N   UNL     1      36.447 -24.675 -14.496  0.00  0.00    -0.213 N 
ATOM     25  H   UNL     1      35.795 -25.338 -14.823  0.00  0.00    +0.174 HD
BRANCH  24  27
ATOM     26  F   UNL     1      37.378 -25.768 -12.096  0.00  0.00    -0.203 F 
ATOM     27  C   UNL     1      37.828 -25.027 -14.307  0.00  0.00    +0.092 C 
ATOM     28  C   UNL     1      38.252 -25.570 -13.094  0.00  0.00    +0.155 C 
ATOM     29  C   UNL     1      38.746 -24.824 -15.338  0.00  0.00    +0.018 C 
ATOM     30  C   UNL     1      39.592 -25.910 -12.911  0.00  0.00    +0.031 C 
ATOM     31  C   UNL     1      40.086 -25.165 -15.156  0.00  0.00    +0.001 C 
ATOM     32  C   UNL     1      40.509 -25.707 -13.943  0.00  0.00    +0.002 C 
ENDBRANCH  24  27
ENDBRANCH  21  24
ENDBRANCH   6  21
TORSDOF 4
ENDMDL
MODEL 8
REMARK VINA RESULT:     -10.8      4.238      7.722
REMARK  Name = 46851313
REMARK  4 active torsions:
REMARK  status: ('A' for Active; 'I' for Inactive)
REMARK    1  A    between atoms: C_3  and  C_19
REMARK    2  A    between atoms: C_6  and  S_21
REMARK    3  A    between atoms: S_21  and  N_24
REMARK    4  A    between atoms: N_24  and  C_27
REMARK                            x       y       z     vdW  Elec       q    Type
REMARK                         _______ _______ _______ _____ _____    ______ ____
ROOT
ATOM      1 CL   UNL     1      36.356 -20.502 -16.488  0.00  0.00    -0.082 Cl
ATOM      2  F   UNL     1      38.939 -24.255 -14.310  0.00  0.00    -0.203 F 
ATOM      3  C   UNL     1      35.414 -23.029 -16.079  0.00  0.00    +0.066 C 
ATOM      4  C   UNL     1      35.542 -24.341 -15.625  0.00  0.00    +0.028 C 
ATOM      5  C   UNL     1      36.474 -22.134 -15.936  0.00  0.00    +0.064 C 
ATOM      6  C   UNL     1      36.731 -24.759 -15.026  0.00  0.00    +0.153 C 
ATOM      7  C   UNL     1      37.663 -22.551 -15.337  0.00  0.00    +0.043 C 
ATOM      8  C   UNL     1      37.792 -23.864 -14.882  0.00  0.00    +0.160 C 
ENDROOT
BRANCH   3  19
ATOM      9  O   UNL     1      34.204 -22.263 -17.873  0.00  0.00    -0.270 OA
ATOM     10  N   UNL     1      30.528 -23.462 -14.732  0.00  0.00    +0.391 N 
ATOM     11  N   UNL     1      32.981 -22.704 -15.930  0.00  0.00    -0.280 N 
ATOM     12  C   UNL     1      31.790 -24.027 -14.246  0.00  0.00    -0.038 C 
ATOM     13  C   UNL     1      31.451 -24.292 -12.790  0.00  0.00    -0.021 C 
ATOM     14  C   UNL     1      29.495 -24.368 -14.246  0.00  0.00    -0.077 C 
ATOM     15  C   UNL     1      32.932 -23.053 -14.496  0.00  0.00    +0.073 C 
ATOM     16  C   UNL     1      29.978 -24.712 -12.835  0.00  0.00    -0.025 C 
ATOM     17  C   UNL     1      30.563 -23.280 -16.178  0.00  0.00    -0.055 C 
ATOM     18  C   UNL     1      31.697 -22.307 -16.526  0.00  0.00    +0.071 C 
ATOM     19  C   UNL     1      34.144 -22.635 -16.702  0.00  0.00    +0.250 C 
ATOM     20  H   UNL     1      30.339 -22.523 -14.384  0.00  0.00    -0.079 HD
ENDBRANCH   3  19
BRANCH   6  21
ATOM     21  S   UNL     1      36.889 -26.403 -14.459  0.00  0.00    +0.076 S 
ATOM     22  O   UNL     1      35.977 -27.232 -15.238  0.00  0.00    -0.150 OA
ATOM     23  O   UNL     1      38.304 -26.752 -14.431  0.00  0.00    -0.150 OA
BRANCH  21  24
ATOM     24  N   UNL     1      36.285 -26.310 -12.848  0.00  0.00    -0.213 N 
ATOM     25  H   UNL     1      35.970 -27.117 -12.378  0.00  0.00    +0.174 HD
BRANCH  24  27
ATOM     26  F   UNL     1      38.586 -25.137 -11.776  0.00  0.00    -0.203 F 
ATOM     27  C   UNL     1      36.254 -25.023 -12.210  0.00  0.00    +0.092 C 
ATOM     28  C   UNL     1      37.425 -24.472 -11.689  0.00  0.00    +0.155 C 
ATOM     29  C   UNL     1      35.051 -24.323 -12.112  0.00  0.00    +0.018 C 
ATOM     30  C   UNL     1      37.393 -23.223 -11.069  0.00  0.00    +0.031 C 
ATOM     31  C   UNL     1      35.020 -23.073 -11.493  0.00  0.00    +0.001 C 
ATOM     32  C   UNL     1      36.190 -22.523 -10.971  0.00  0.00    +0.002 C 
ENDBRANCH  24  27
ENDBRANCH  21  24
ENDBRANCH   6  21
TORSDOF 4
ENDMDL
MODEL 9
REMARK VINA RESULT:     -10.5      9.547     13.762
REMARK  Name = 46851313
REMARK  4 active torsions:
REMARK  status: ('A' for Active; 'I' for Inactive)
REMARK    1  A    between atoms: C_3  and  C_19
REMARK    2  A    between atoms: C_6  and  S_21
REMARK    3  A    between atoms: S_21  and  N_24
REMARK    4  A    between atoms: N_24  and  C_27
REMARK                            x       y       z     vdW  Elec       q    Type
REMARK                         _______ _______ _______ _____ _____    ______ ____
ROOT
ATOM      1 CL   UNL     1      31.806 -11.031 -19.283  0.00  0.00    -0.082 Cl
ATOM      2  F   UNL     1      34.411 -14.730 -21.528  0.00  0.00    -0.203 F 
ATOM      3  C   UNL     1      31.705 -11.637 -21.941  0.00  0.00    +0.066 C 
ATOM      4  C   UNL     1      32.080 -12.384 -23.057  0.00  0.00    +0.028 C 
ATOM      5  C   UNL     1      32.243 -11.935 -20.689  0.00  0.00    +0.064 C 
ATOM      6  C   UNL     1      32.993 -13.429 -22.921  0.00  0.00    +0.153 C 
ATOM      7  C   UNL     1      33.156 -12.980 -20.553  0.00  0.00    +0.043 C 
ATOM      8  C   UNL     1      33.531 -13.728 -21.669  0.00  0.00    +0.160 C 
ENDROOT
BRANCH   3  19
ATOM      9  O   UNL     1      29.588 -10.768 -21.762  0.00  0.00    -0.270 OA
ATOM     10  N   UNL     1      32.119  -6.729 -23.211  0.00  0.00    +0.391 N 
ATOM     11  N   UNL     1      31.192  -9.360 -22.716  0.00  0.00    -0.280 N 
ATOM     12  C   UNL     1      33.060  -7.777 -22.807  0.00  0.00    -0.038 C 
ATOM     13  C   UNL     1      34.337  -7.296 -23.473  0.00  0.00    -0.021 C 
ATOM     14  C   UNL     1      32.807  -5.474 -22.936  0.00  0.00    -0.077 C 
ATOM     15  C   UNL     1      32.551  -9.140 -23.251  0.00  0.00    +0.073 C 
ATOM     16  C   UNL     1      34.245  -5.770 -23.367  0.00  0.00    -0.025 C 
ATOM     17  C   UNL     1      30.837  -6.894 -22.538  0.00  0.00    -0.055 C 
ATOM     18  C   UNL     1      30.245  -8.255 -22.927  0.00  0.00    +0.071 C 
ATOM     19  C   UNL     1      30.740 -10.546 -22.132  0.00  0.00    +0.250 C 
ATOM     20  H   UNL     1      31.869  -6.762 -24.199  0.00  0.00    -0.079 HD
ENDBRANCH   3  19
BRANCH   6  21
ATOM     21  S   UNL     1      33.461 -14.363 -24.322  0.00  0.00    +0.076 S 
ATOM     22  O   UNL     1      32.847 -13.748 -25.492  0.00  0.00    -0.150 OA
ATOM     23  O   UNL     1      34.908 -14.540 -24.300  0.00  0.00    -0.150 OA
BRANCH  21  24
ATOM     24  N   UNL     1      32.689 -15.878 -24.046  0.00  0.00    -0.213 N 
ATOM     25  H   UNL     1      31.710 -15.967 -24.108  0.00  0.00    +0.174 HD
BRANCH  24  27
ATOM     26  F   UNL     1      32.271 -18.392 -25.199  0.00  0.00    -0.203 F 
ATOM     27  C   UNL     1      33.515 -17.009 -23.722  0.00  0.00    +0.092 C 
ATOM     28  C   UNL     1      33.274 -18.246 -24.320  0.00  0.00    +0.155 C 
ATOM     29  C   UNL     1      34.560 -16.869 -22.808  0.00  0.00    +0.018 C 
ATOM     30  C   UNL     1      34.076 -19.343 -24.004  0.00  0.00    +0.031 C 
ATOM     31  C   UNL     1      35.363 -17.965 -22.494  0.00  0.00    +0.001 C 
ATOM     32  C   UNL     1      35.121 -19.202 -23.091  0.00  0.00    +0.002 C 
ENDBRANCH  24  27
ENDBRANCH  21  24
ENDBRANCH   6  21
TORSDOF 4
ENDMDL
