MODEL 1
REMARK VINA RESULT:     -11.4      0.000      0.000
REMARK  Name = 5492457
REMARK  14 active torsions:
REMARK  status: ('A' for Active; 'I' for Inactive)
REMARK    1  A    between atoms: C_1  and  N_4
REMARK    2  A    between atoms: C_1  and  P_21
REMARK    3  A    between atoms: C_5  and  C_7
REMARK    4  A    between atoms: C_7  and  N_10
REMARK    5  A    between atoms: C_11  and  O_13
REMARK    6  A    between atoms: O_13  and  C_14
REMARK    7  A    between atoms: C_14  and  C_15
REMARK    8  A    between atoms: P_21  and  O_23
REMARK    9  A    between atoms: P_21  and  O_25
REMARK   10  A    between atoms: O_25  and  C_26
REMARK   11  A    between atoms: C_26  and  C_28
REMARK   12  A    between atoms: C_26  and  C_31
REMARK   13  A    between atoms: C_28  and  O_29
REMARK   14  A    between atoms: C_31  and  C_32
REMARK                            x       y       z     vdW  Elec       q    Type
REMARK                         _______ _______ _______ _____ _____    ______ ____
ROOT
ATOM      1  C   UNL     1      34.732 -19.686 -20.947  0.00  0.00    +0.177 C 
ATOM      2  C   UNL     1      33.236 -19.544 -21.190  0.00  0.00    +0.034 C 
ENDROOT
BRANCH   1   4
ATOM      3  O   UNL     1      34.390 -22.240 -19.641  0.00  0.00    -0.273 OA
ATOM      4  N   UNL     1      34.998 -20.001 -19.552  0.00  0.00    -0.295 N 
ATOM      5  C   UNL     1      34.801 -21.266 -19.014  0.00  0.00    +0.241 C 
ATOM      6  H   UNL     1      35.332 -19.287 -18.964  0.00  0.00    +0.150 HD
BRANCH   5   7
ATOM      7  C   UNL     1      35.206 -21.331 -17.548  0.00  0.00    +0.151 C 
ATOM      8  C   UNL     1      36.697 -21.599 -17.409  0.00  0.00    +0.031 C 
BRANCH   7  10
ATOM      9  O   UNL     1      35.055 -21.967 -14.717  0.00  0.00    -0.226 OA
ATOM     10  N   UNL     1      34.427 -22.362 -16.916  0.00  0.00    -0.264 N 
ATOM     11  C   UNL     1      34.415 -22.596 -15.554  0.00  0.00    +0.402 C 
ATOM     12  H   UNL     1      33.869 -22.936 -17.489  0.00  0.00    +0.153 HD
BRANCH  11  13
ATOM     13  O   UNL     1      33.579 -23.638 -15.268  0.00  0.00    -0.430 OA
BRANCH  13  14
ATOM     14  C   UNL     1      32.783 -23.494 -14.087  0.00  0.00    +0.237 C 
BRANCH  14  15
ATOM     15  C   UNL     1      31.338 -23.681 -14.446  0.00  0.00    +0.021 C 
ATOM     16  C   UNL     1      30.608 -24.725 -13.878  0.00  0.00    -0.001 C 
ATOM     17  C   UNL     1      30.725 -22.811 -15.348  0.00  0.00    -0.001 C 
ATOM     18  C   UNL     1      29.264 -24.900 -14.212  0.00  0.00    -0.000 C 
ATOM     19  C   UNL     1      29.381 -22.986 -15.682  0.00  0.00    -0.000 C 
ATOM     20  C   UNL     1      28.651 -24.030 -15.114  0.00  0.00    -0.000 C 
ENDBRANCH  14  15
ENDBRANCH  13  14
ENDBRANCH  11  13
ENDBRANCH   7  10
ENDBRANCH   5   7
ENDBRANCH   1   4
BRANCH   1  21
ATOM     21  P   UNL     1      35.695 -18.216 -21.298  0.00  0.00    +0.358 P 
ATOM     22  O   UNL     1      37.164 -18.361 -21.026  0.00  0.00    -0.256 OA
BRANCH  21  23
ATOM     23  O   UNL     1      34.964 -17.067 -20.422  0.00  0.00    -0.322 OA
ATOM     24  H   UNL     1      35.566 -16.759 -19.727  0.00  0.00    +0.220 HD
ENDBRANCH  21  23
BRANCH  21  25
ATOM     25  O   UNL     1      35.304 -17.844 -22.823  0.00  0.00    -0.284 OA
BRANCH  25  26
ATOM     26  C   UNL     1      34.229 -16.950 -23.049  0.00  0.00    +0.226 C 
BRANCH  26  28
ATOM     27  O   UNL     1      32.970 -16.644 -25.109  0.00  0.00    -0.248 OA
ATOM     28  C   UNL     1      33.523 -17.395 -24.315  0.00  0.00    +0.342 C 
BRANCH  28  29
ATOM     29  O   UNL     1      33.588 -18.740 -24.491  0.00  0.00    -0.479 OA
ATOM     30  H   UNL     1      33.945 -19.092 -25.282  0.00  0.00    +0.295 HD
ENDBRANCH  28  29
ENDBRANCH  26  28
BRANCH  26  31
ATOM     31  C   UNL     1      34.793 -15.536 -23.213  0.00  0.00    +0.068 C 
BRANCH  31  32
ATOM     32  C   UNL     1      33.885 -14.493 -22.609  0.00  0.00    -0.019 C 
ATOM     33  C   UNL     1      33.153 -13.641 -23.437  0.00  0.00    -0.004 C 
ATOM     34  C   UNL     1      33.777 -14.380 -21.223  0.00  0.00    -0.004 C 
ATOM     35  C   UNL     1      32.314 -12.677 -22.879  0.00  0.00    -0.000 C 
ATOM     36  C   UNL     1      32.937 -13.415 -20.665  0.00  0.00    -0.000 C 
ATOM     37  C   UNL     1      32.206 -12.564 -21.494  0.00  0.00    -0.000 C 
ENDBRANCH  31  32
ENDBRANCH  26  31
ENDBRANCH  25  26
ENDBRANCH  21  25
ENDBRANCH   1  21
TORSDOF 14
ENDMDL
MODEL 2
REMARK VINA RESULT:     -11.1      2.836     10.143
REMARK  Name = 5492457
REMARK  14 active torsions:
REMARK  status: ('A' for Active; 'I' for Inactive)
REMARK    1  A    between atoms: C_1  and  N_4
REMARK    2  A    between atoms: C_1  and  P_21
REMARK    3  A    between atoms: C_5  and  C_7
REMARK    4  A    between atoms: C_7  and  N_10
REMARK    5  A    between atoms: C_11  and  O_13
REMARK    6  A    between atoms: O_13  and  C_14
REMARK    7  A    between atoms: C_14  and  C_15
REMARK    8  A    between atoms: P_21  and  O_23
REMARK    9  A    between atoms: P_21  and  O_25
REMARK   10  A    between atoms: O_25  and  C_26
REMARK   11  A    between atoms: C_26  and  C_28
REMARK   12  A    between atoms: C_26  and  C_31
REMARK   13  A    between atoms: C_28  and  O_29
REMARK   14  A    between atoms: C_31  and  C_32
REMARK                            x       y       z     vdW  Elec       q    Type
REMARK                         _______ _______ _______ _____ _____    ______ ____
ROOT
ATOM      1  C   UNL     1      32.747 -22.420 -16.217  0.00  0.00    +0.177 C 
ATOM      2  C   UNL     1      31.458 -23.227 -16.240  0.00  0.00    +0.034 C 
ENDROOT
BRANCH   1   4
ATOM      3  O   UNL     1      31.501 -20.896 -18.332  0.00  0.00    -0.273 OA
ATOM      4  N   UNL     1      33.250 -22.217 -17.568  0.00  0.00    -0.295 N 
ATOM      5  C   UNL     1      32.575 -21.464 -18.519  0.00  0.00    +0.241 C 
ATOM      6  H   UNL     1      34.106 -22.632 -17.817  0.00  0.00    +0.150 HD
BRANCH   5   7
ATOM      7  C   UNL     1      33.347 -21.373 -19.827  0.00  0.00    +0.151 C 
ATOM      8  C   UNL     1      34.303 -22.547 -19.975  0.00  0.00    +0.031 C 
BRANCH   7  10
ATOM      9  O   UNL     1      33.448 -19.414 -21.970  0.00  0.00    -0.226 OA
ATOM     10  N   UNL     1      34.051 -20.119 -19.843  0.00  0.00    -0.264 N 
ATOM     11  C   UNL     1      34.044 -19.242 -20.912  0.00  0.00    +0.402 C 
ATOM     12  H   UNL     1      34.568 -19.869 -19.043  0.00  0.00    +0.153 HD
BRANCH  11  13
ATOM     13  O   UNL     1      34.803 -18.145 -20.618  0.00  0.00    -0.430 OA
BRANCH  13  14
ATOM     14  C   UNL     1      35.311 -17.419 -21.743  0.00  0.00    +0.237 C 
BRANCH  14  15
ATOM     15  C   UNL     1      34.646 -16.074 -21.798  0.00  0.00    +0.021 C 
ATOM     16  C   UNL     1      34.177 -15.480 -20.626  0.00  0.00    -0.001 C 
ATOM     17  C   UNL     1      34.498 -15.418 -23.020  0.00  0.00    -0.001 C 
ATOM     18  C   UNL     1      33.559 -14.230 -20.676  0.00  0.00    -0.000 C 
ATOM     19  C   UNL     1      33.880 -14.169 -23.070  0.00  0.00    -0.000 C 
ATOM     20  C   UNL     1      33.411 -13.575 -21.899  0.00  0.00    -0.000 C 
ENDBRANCH  14  15
ENDBRANCH  13  14
ENDBRANCH  11  13
ENDBRANCH   7  10
ENDBRANCH   5   7
ENDBRANCH   1   4
BRANCH   1  21
ATOM     21  P   UNL     1      34.096 -23.178 -15.314  0.00  0.00    +0.358 P 
ATOM     22  O   UNL     1      33.858 -24.612 -14.937  0.00  0.00    -0.256 OA
BRANCH  21  23
ATOM     23  O   UNL     1      34.314 -22.185 -14.055  0.00  0.00    -0.322 OA
ATOM     24  H   UNL     1      33.852 -22.539 -13.279  0.00  0.00    +0.220 HD
ENDBRANCH  21  23
BRANCH  21  25
ATOM     25  O   UNL     1      35.392 -22.911 -16.245  0.00  0.00    -0.284 OA
BRANCH  25  26
ATOM     26  C   UNL     1      36.420 -22.069 -15.751  0.00  0.00    +0.226 C 
BRANCH  26  28
ATOM     27  O   UNL     1      36.222 -21.021 -17.937  0.00  0.00    -0.248 OA
ATOM     28  C   UNL     1      36.701 -21.022 -16.810  0.00  0.00    +0.342 C 
BRANCH  28  29
ATOM     29  O   UNL     1      37.541 -20.054 -16.362  0.00  0.00    -0.479 OA
ATOM     30  H   UNL     1      38.467 -20.195 -16.374  0.00  0.00    +0.295 HD
ENDBRANCH  28  29
ENDBRANCH  26  28
BRANCH  26  31
ATOM     31  C   UNL     1      37.665 -22.919 -15.486  0.00  0.00    +0.068 C 
BRANCH  31  32
ATOM     32  C   UNL     1      37.453 -23.894 -14.353  0.00  0.00    -0.019 C 
ATOM     33  C   UNL     1      37.384 -23.431 -13.039  0.00  0.00    -0.004 C 
ATOM     34  C   UNL     1      37.326 -25.256 -14.620  0.00  0.00    -0.004 C 
ATOM     35  C   UNL     1      37.188 -24.331 -11.992  0.00  0.00    -0.000 C 
ATOM     36  C   UNL     1      37.130 -26.157 -13.572  0.00  0.00    -0.000 C 
ATOM     37  C   UNL     1      37.061 -25.694 -12.258  0.00  0.00    -0.000 C 
ENDBRANCH  31  32
ENDBRANCH  26  31
ENDBRANCH  25  26
ENDBRANCH  21  25
ENDBRANCH   1  21
TORSDOF 14
ENDMDL
MODEL 3
REMARK VINA RESULT:     -11.0      2.325     10.320
REMARK  Name = 5492457
REMARK  14 active torsions:
REMARK  status: ('A' for Active; 'I' for Inactive)
REMARK    1  A    between atoms: C_1  and  N_4
REMARK    2  A    between atoms: C_1  and  P_21
REMARK    3  A    between atoms: C_5  and  C_7
REMARK    4  A    between atoms: C_7  and  N_10
REMARK    5  A    between atoms: C_11  and  O_13
REMARK    6  A    between atoms: O_13  and  C_14
REMARK    7  A    between atoms: C_14  and  C_15
REMARK    8  A    between atoms: P_21  and  O_23
REMARK    9  A    between atoms: P_21  and  O_25
REMARK   10  A    between atoms: O_25  and  C_26
REMARK   11  A    between atoms: C_26  and  C_28
REMARK   12  A    between atoms: C_26  and  C_31
REMARK   13  A    between atoms: C_28  and  O_29
REMARK   14  A    between atoms: C_31  and  C_32
REMARK                            x       y       z     vdW  Elec       q    Type
REMARK                         _______ _______ _______ _____ _____    ______ ____
ROOT
ATOM      1  C   UNL     1      33.592 -20.253 -19.682  0.00  0.00    +0.177 C 
ATOM      2  C   UNL     1      32.171 -20.648 -20.054  0.00  0.00    +0.034 C 
ENDROOT
BRANCH   1   4
ATOM      3  O   UNL     1      34.257 -17.535 -20.400  0.00  0.00    -0.273 OA
ATOM      4  N   UNL     1      34.326 -19.809 -20.858  0.00  0.00    -0.295 N 
ATOM      5  C   UNL     1      34.597 -18.473 -21.118  0.00  0.00    +0.241 C 
ATOM      6  H   UNL     1      34.643 -20.487 -21.497  0.00  0.00    +0.150 HD
BRANCH   5   7
ATOM      7  C   UNL     1      35.422 -18.294 -22.385  0.00  0.00    +0.151 C 
ATOM      8  C   UNL     1      36.908 -18.246 -22.062  0.00  0.00    +0.031 C 
BRANCH   7  10
ATOM      9  O   UNL     1      33.288 -17.985 -24.332  0.00  0.00    -0.226 OA
ATOM     10  N   UNL     1      34.987 -17.085 -23.032  0.00  0.00    -0.264 N 
ATOM     11  C   UNL     1      33.956 -17.029 -23.951  0.00  0.00    +0.402 C 
ATOM     12  H   UNL     1      35.451 -16.246 -22.806  0.00  0.00    +0.153 HD
BRANCH  11  13
ATOM     13  O   UNL     1      33.786 -15.743 -24.381  0.00  0.00    -0.430 OA
BRANCH  13  14
ATOM     14  C   UNL     1      34.522 -14.744 -23.668  0.00  0.00    +0.237 C 
BRANCH  14  15
ATOM     15  C   UNL     1      33.593 -14.025 -22.735  0.00  0.00    +0.021 C 
ATOM     16  C   UNL     1      32.696 -13.081 -23.234  0.00  0.00    -0.001 C 
ATOM     17  C   UNL     1      33.627 -14.299 -21.368  0.00  0.00    -0.001 C 
ATOM     18  C   UNL     1      31.832 -12.412 -22.367  0.00  0.00    -0.000 C 
ATOM     19  C   UNL     1      32.763 -13.630 -20.500  0.00  0.00    -0.000 C 
ATOM     20  C   UNL     1      31.866 -12.687 -21.000  0.00  0.00    -0.000 C 
ENDBRANCH  14  15
ENDBRANCH  13  14
ENDBRANCH  11  13
ENDBRANCH   7  10
ENDBRANCH   5   7
ENDBRANCH   1   4
BRANCH   1  21
ATOM     21  P   UNL     1      34.579 -21.570 -18.972  0.00  0.00    +0.358 P 
ATOM     22  O   UNL     1      36.019 -21.560 -19.396  0.00  0.00    -0.256 OA
BRANCH  21  23
ATOM     23  O   UNL     1      33.772 -22.911 -19.382  0.00  0.00    -0.322 OA
ATOM     24  H   UNL     1      34.390 -23.656 -19.439  0.00  0.00    +0.220 HD
ENDBRANCH  21  23
BRANCH  21  25
ATOM     25  O   UNL     1      34.323 -21.437 -17.380  0.00  0.00    -0.284 OA
BRANCH  25  26
ATOM     26  C   UNL     1      34.171 -22.621 -16.617  0.00  0.00    +0.226 C 
BRANCH  26  28
ATOM     27  O   UNL     1      31.840 -22.843 -17.277  0.00  0.00    -0.248 OA
ATOM     28  C   UNL     1      32.687 -22.832 -16.393  0.00  0.00    +0.342 C 
BRANCH  28  29
ATOM     29  O   UNL     1      32.391 -23.032 -15.082  0.00  0.00    -0.479 OA
ATOM     30  H   UNL     1      31.527 -22.857 -14.765  0.00  0.00    +0.295 HD
ENDBRANCH  28  29
ENDBRANCH  26  28
BRANCH  26  31
ATOM     31  C   UNL     1      34.900 -22.443 -15.283  0.00  0.00    +0.068 C 
BRANCH  31  32
ATOM     32  C   UNL     1      35.857 -23.577 -15.006  0.00  0.00    -0.019 C 
ATOM     33  C   UNL     1      37.211 -23.312 -14.800  0.00  0.00    -0.004 C 
ATOM     34  C   UNL     1      35.388 -24.889 -14.957  0.00  0.00    -0.004 C 
ATOM     35  C   UNL     1      38.095 -24.359 -14.544  0.00  0.00    -0.000 C 
ATOM     36  C   UNL     1      36.273 -25.937 -14.701  0.00  0.00    -0.000 C 
ATOM     37  C   UNL     1      37.627 -25.672 -14.494  0.00  0.00    -0.000 C 
ENDBRANCH  31  32
ENDBRANCH  26  31
ENDBRANCH  25  26
ENDBRANCH  21  25
ENDBRANCH   1  21
TORSDOF 14
ENDMDL
MODEL 4
REMARK VINA RESULT:     -10.9      4.805     10.626
REMARK  Name = 5492457
REMARK  14 active torsions:
REMARK  status: ('A' for Active; 'I' for Inactive)
REMARK    1  A    between atoms: C_1  and  N_4
REMARK    2  A    between atoms: C_1  and  P_21
REMARK    3  A    between atoms: C_5  and  C_7
REMARK    4  A    between atoms: C_7  and  N_10
REMARK    5  A    between atoms: C_11  and  O_13
REMARK    6  A    between atoms: O_13  and  C_14
REMARK    7  A    between atoms: C_14  and  C_15
REMARK    8  A    between atoms: P_21  and  O_23
REMARK    9  A    between atoms: P_21  and  O_25
REMARK   10  A    between atoms: O_25  and  C_26
REMARK   11  A    between atoms: C_26  and  C_28
REMARK   12  A    between atoms: C_26  and  C_31
REMARK   13  A    between atoms: C_28  and  O_29
REMARK   14  A    between atoms: C_31  and  C_32
REMARK                            x       y       z     vdW  Elec       q    Type
REMARK                         _______ _______ _______ _____ _____    ______ ____
ROOT
ATOM      1  C   UNL     1      34.704 -24.338 -14.242  0.00  0.00    +0.177 C 
ATOM      2  C   UNL     1      35.263 -25.511 -15.033  0.00  0.00    +0.034 C 
ENDROOT
BRANCH   1   4
ATOM      3  O   UNL     1      32.266 -24.252 -12.693  0.00  0.00    -0.273 OA
ATOM      4  N   UNL     1      33.374 -23.986 -14.716  0.00  0.00    -0.295 N 
ATOM      5  C   UNL     1      32.257 -23.973 -13.890  0.00  0.00    +0.241 C 
ATOM      6  H   UNL     1      33.261 -23.746 -15.663  0.00  0.00    +0.150 HD
BRANCH   5   7
ATOM      7  C   UNL     1      31.006 -23.520 -14.629  0.00  0.00    +0.151 C 
ATOM      8  C   UNL     1      30.047 -24.682 -14.833  0.00  0.00    +0.031 C 
BRANCH   7  10
ATOM      9  O   UNL     1      29.391 -21.990 -16.497  0.00  0.00    -0.226 OA
ATOM     10  N   UNL     1      31.413 -22.950 -15.886  0.00  0.00    -0.264 N 
ATOM     11  C   UNL     1      30.573 -22.232 -16.716  0.00  0.00    +0.402 C 
ATOM     12  H   UNL     1      32.347 -23.079 -16.171  0.00  0.00    +0.153 HD
BRANCH  11  13
ATOM     13  O   UNL     1      31.255 -21.826 -17.829  0.00  0.00    -0.430 OA
BRANCH  13  14
ATOM     14  C   UNL     1      32.603 -22.295 -17.940  0.00  0.00    +0.237 C 
BRANCH  14  15
ATOM     15  C   UNL     1      33.356 -21.401 -18.881  0.00  0.00    +0.021 C 
ATOM     16  C   UNL     1      32.662 -20.533 -19.724  0.00  0.00    -0.001 C 
ATOM     17  C   UNL     1      34.750 -21.438 -18.913  0.00  0.00    -0.001 C 
ATOM     18  C   UNL     1      33.361 -19.702 -20.599  0.00  0.00    -0.000 C 
ATOM     19  C   UNL     1      35.449 -20.607 -19.789  0.00  0.00    -0.000 C 
ATOM     20  C   UNL     1      34.755 -19.739 -20.631  0.00  0.00    -0.000 C 
ENDBRANCH  14  15
ENDBRANCH  13  14
ENDBRANCH  11  13
ENDBRANCH   7  10
ENDBRANCH   5   7
ENDBRANCH   1   4
BRANCH   1  21
ATOM     21  P   UNL     1      35.665 -22.830 -14.350  0.00  0.00    +0.358 P 
ATOM     22  O   UNL     1      34.924 -21.667 -14.944  0.00  0.00    -0.256 OA
BRANCH  21  23
ATOM     23  O   UNL     1      36.980 -23.277 -15.180  0.00  0.00    -0.322 OA
ATOM     24  H   UNL     1      36.834 -24.152 -15.570  0.00  0.00    +0.220 HD
ENDBRANCH  21  23
BRANCH  21  25
ATOM     25  O   UNL     1      36.216 -22.606 -12.845  0.00  0.00    -0.284 OA
BRANCH  25  26
ATOM     26  C   UNL     1      36.333 -23.731 -11.992  0.00  0.00    +0.226 C 
BRANCH  26  28
ATOM     27  O   UNL     1      35.956 -23.543  -9.595  0.00  0.00    -0.248 OA
ATOM     28  C   UNL     1      35.531 -23.438 -10.739  0.00  0.00    +0.342 C 
BRANCH  28  29
ATOM     29  O   UNL     1      34.271 -23.018 -11.024  0.00  0.00    -0.479 OA
ATOM     30  H   UNL     1      34.122 -22.439 -11.746  0.00  0.00    +0.295 HD
ENDBRANCH  28  29
ENDBRANCH  26  28
BRANCH  26  31
ATOM     31  C   UNL     1      37.810 -23.938 -11.652  0.00  0.00    +0.068 C 
BRANCH  31  32
ATOM     32  C   UNL     1      38.564 -24.592 -12.785  0.00  0.00    -0.019 C 
ATOM     33  C   UNL     1      38.123 -25.808 -13.306  0.00  0.00    -0.004 C 
ATOM     34  C   UNL     1      39.702 -23.980 -13.310  0.00  0.00    -0.004 C 
ATOM     35  C   UNL     1      38.818 -26.412 -14.352  0.00  0.00    -0.000 C 
ATOM     36  C   UNL     1      40.398 -24.584 -14.358  0.00  0.00    -0.000 C 
ATOM     37  C   UNL     1      39.956 -25.800 -14.879  0.00  0.00    -0.000 C 
ENDBRANCH  31  32
ENDBRANCH  26  31
ENDBRANCH  25  26
ENDBRANCH  21  25
ENDBRANCH   1  21
TORSDOF 14
ENDMDL
MODEL 5
REMARK VINA RESULT:     -10.8      2.010     10.535
REMARK  Name = 5492457
REMARK  14 active torsions:
REMARK  status: ('A' for Active; 'I' for Inactive)
REMARK    1  A    between atoms: C_1  and  N_4
REMARK    2  A    between atoms: C_1  and  P_21
REMARK    3  A    between atoms: C_5  and  C_7
REMARK    4  A    between atoms: C_7  and  N_10
REMARK    5  A    between atoms: C_11  and  O_13
REMARK    6  A    between atoms: O_13  and  C_14
REMARK    7  A    between atoms: C_14  and  C_15
REMARK    8  A    between atoms: P_21  and  O_23
REMARK    9  A    between atoms: P_21  and  O_25
REMARK   10  A    between atoms: O_25  and  C_26
REMARK   11  A    between atoms: C_26  and  C_28
REMARK   12  A    between atoms: C_26  and  C_31
REMARK   13  A    between atoms: C_28  and  O_29
REMARK   14  A    between atoms: C_31  and  C_32
REMARK                            x       y       z     vdW  Elec       q    Type
REMARK                         _______ _______ _______ _____ _____    ______ ____
ROOT
ATOM      1  C   UNL     1      33.348 -22.427 -16.777  0.00  0.00    +0.177 C 
ATOM      2  C   UNL     1      32.489 -23.615 -17.183  0.00  0.00    +0.034 C 
ENDROOT
BRANCH   1   4
ATOM      3  O   UNL     1      32.456 -20.893 -19.056  0.00  0.00    -0.273 OA
ATOM      4  N   UNL     1      34.155 -21.970 -17.898  0.00  0.00    -0.295 N 
ATOM      5  C   UNL     1      33.632 -21.233 -18.953  0.00  0.00    +0.241 C 
ATOM      6  H   UNL     1      35.113 -22.192 -17.909  0.00  0.00    +0.150 HD
BRANCH   5   7
ATOM      7  C   UNL     1      34.703 -20.843 -19.962  0.00  0.00    +0.151 C 
ATOM      8  C   UNL     1      36.077 -21.303 -19.499  0.00  0.00    +0.031 C 
BRANCH   7  10
ATOM      9  O   UNL     1      34.572 -19.344 -22.447  0.00  0.00    -0.226 OA
ATOM     10  N   UNL     1      34.658 -19.415 -20.129  0.00  0.00    -0.264 N 
ATOM     11  C   UNL     1      34.596 -18.783 -21.357  0.00  0.00    +0.402 C 
ATOM     12  H   UNL     1      34.671 -18.854 -19.320  0.00  0.00    +0.153 HD
BRANCH  11  13
ATOM     13  O   UNL     1      34.564 -17.428 -21.181  0.00  0.00    -0.430 OA
BRANCH  13  14
ATOM     14  C   UNL     1      34.866 -16.642 -22.339  0.00  0.00    +0.237 C 
BRANCH  14  15
ATOM     15  C   UNL     1      34.263 -15.277 -22.174  0.00  0.00    +0.021 C 
ATOM     16  C   UNL     1      33.893 -14.826 -20.907  0.00  0.00    -0.001 C 
ATOM     17  C   UNL     1      34.071 -14.461 -23.289  0.00  0.00    -0.001 C 
ATOM     18  C   UNL     1      33.332 -13.558 -20.754  0.00  0.00    -0.000 C 
ATOM     19  C   UNL     1      33.510 -13.192 -23.135  0.00  0.00    -0.000 C 
ATOM     20  C   UNL     1      33.140 -12.741 -21.868  0.00  0.00    -0.000 C 
ENDBRANCH  14  15
ENDBRANCH  13  14
ENDBRANCH  11  13
ENDBRANCH   7  10
ENDBRANCH   5   7
ENDBRANCH   1   4
BRANCH   1  21
ATOM     21  P   UNL     1      34.510 -22.755 -15.454  0.00  0.00    +0.358 P 
ATOM     22  O   UNL     1      34.885 -21.546 -14.647  0.00  0.00    -0.256 OA
BRANCH  21  23
ATOM     23  O   UNL     1      35.753 -23.465 -16.208  0.00  0.00    -0.322 OA
ATOM     24  H   UNL     1      36.549 -22.921 -16.103  0.00  0.00    +0.220 HD
ENDBRANCH  21  23
BRANCH  21  25
ATOM     25  O   UNL     1      33.826 -23.962 -14.619  0.00  0.00    -0.284 OA
BRANCH  25  26
ATOM     26  C   UNL     1      33.240 -23.670 -13.363  0.00  0.00    +0.226 C 
BRANCH  26  28
ATOM     27  O   UNL     1      34.364 -23.303 -11.237  0.00  0.00    -0.248 OA
ATOM     28  C   UNL     1      34.297 -23.904 -12.301  0.00  0.00    +0.342 C 
BRANCH  28  29
ATOM     29  O   UNL     1      35.167 -24.886 -12.653  0.00  0.00    -0.479 OA
ATOM     30  H   UNL     1      35.372 -25.570 -12.047  0.00  0.00    +0.295 HD
ENDBRANCH  28  29
ENDBRANCH  26  28
BRANCH  26  31
ATOM     31  C   UNL     1      32.045 -24.602 -13.151  0.00  0.00    +0.068 C 
BRANCH  31  32
ATOM     32  C   UNL     1      30.808 -24.105 -13.860  0.00  0.00    -0.019 C 
ATOM     33  C   UNL     1      29.817 -25.006 -14.248  0.00  0.00    -0.004 C 
ATOM     34  C   UNL     1      30.657 -22.744 -14.127  0.00  0.00    -0.004 C 
ATOM     35  C   UNL     1      28.675 -24.547 -14.903  0.00  0.00    -0.000 C 
ATOM     36  C   UNL     1      29.514 -22.285 -14.782  0.00  0.00    -0.000 C 
ATOM     37  C   UNL     1      28.523 -23.187 -15.170  0.00  0.00    -0.000 C 
ENDBRANCH  31  32
ENDBRANCH  26  31
ENDBRANCH  25  26
ENDBRANCH  21  25
ENDBRANCH   1  21
TORSDOF 14
ENDMDL
MODEL 6
REMARK VINA RESULT:     -10.8      6.221      9.737
REMARK  Name = 5492457
REMARK  14 active torsions:
REMARK  status: ('A' for Active; 'I' for Inactive)
REMARK    1  A    between atoms: C_1  and  N_4
REMARK    2  A    between atoms: C_1  and  P_21
REMARK    3  A    between atoms: C_5  and  C_7
REMARK    4  A    between atoms: C_7  and  N_10
REMARK    5  A    between atoms: C_11  and  O_13
REMARK    6  A    between atoms: O_13  and  C_14
REMARK    7  A    between atoms: C_14  and  C_15
REMARK    8  A    between atoms: P_21  and  O_23
REMARK    9  A    between atoms: P_21  and  O_25
REMARK   10  A    between atoms: O_25  and  C_26
REMARK   11  A    between atoms: C_26  and  C_28
REMARK   12  A    between atoms: C_26  and  C_31
REMARK   13  A    between atoms: C_28  and  O_29
REMARK   14  A    between atoms: C_31  and  C_32
REMARK                            x       y       z     vdW  Elec       q    Type
REMARK                         _______ _______ _______ _____ _____    ______ ____
ROOT
ATOM      1  C   UNL     1      31.209 -10.563 -20.929  0.00  0.00    +0.177 C 
ATOM      2  C   UNL     1      31.532 -10.286 -19.468  0.00  0.00    +0.034 C 
ENDROOT
BRANCH   1   4
ATOM      3  O   UNL     1      31.717 -13.335 -20.294  0.00  0.00    -0.273 OA
ATOM      4  N   UNL     1      32.216 -11.430 -21.522  0.00  0.00    -0.295 N 
ATOM      5  C   UNL     1      32.384 -12.756 -21.149  0.00  0.00    +0.241 C 
ATOM      6  H   UNL     1      32.803 -11.059 -22.219  0.00  0.00    +0.150 HD
BRANCH   5   7
ATOM      7  C   UNL     1      33.471 -13.445 -21.963  0.00  0.00    +0.151 C 
ATOM      8  C   UNL     1      32.984 -13.744 -23.373  0.00  0.00    +0.031 C 
BRANCH   7  10
ATOM      9  O   UNL     1      34.914 -15.730 -23.029  0.00  0.00    -0.226 OA
ATOM     10  N   UNL     1      33.849 -14.648 -21.272  0.00  0.00    -0.264 N 
ATOM     11  C   UNL     1      34.539 -15.692 -21.861  0.00  0.00    +0.402 C 
ATOM     12  H   UNL     1      33.602 -14.734 -20.323  0.00  0.00    +0.153 HD
BRANCH  11  13
ATOM     13  O   UNL     1      34.747 -16.686 -20.947  0.00  0.00    -0.430 OA
BRANCH  13  14
ATOM     14  C   UNL     1      35.475 -17.825 -21.419  0.00  0.00    +0.237 C 
BRANCH  14  15
ATOM     15  C   UNL     1      35.016 -19.043 -20.671  0.00  0.00    +0.021 C 
ATOM     16  C   UNL     1      33.662 -19.374 -20.642  0.00  0.00    -0.001 C 
ATOM     17  C   UNL     1      35.944 -19.842 -20.004  0.00  0.00    -0.001 C 
ATOM     18  C   UNL     1      33.235 -20.506 -19.947  0.00  0.00    -0.000 C 
ATOM     19  C   UNL     1      35.517 -20.974 -19.308  0.00  0.00    -0.000 C 
ATOM     20  C   UNL     1      34.163 -21.305 -19.280  0.00  0.00    -0.000 C 
ENDBRANCH  14  15
ENDBRANCH  13  14
ENDBRANCH  11  13
ENDBRANCH   7  10
ENDBRANCH   5   7
ENDBRANCH   1   4
BRANCH   1  21
ATOM     21  P   UNL     1      31.150  -9.111 -21.977  0.00  0.00    +0.358 P 
ATOM     22  O   UNL     1      29.974  -9.069 -22.909  0.00  0.00    -0.256 OA
BRANCH  21  23
ATOM     23  O   UNL     1      32.589  -9.120 -22.717  0.00  0.00    -0.322 OA
ATOM     24  H   UNL     1      32.487  -8.794 -23.625  0.00  0.00    +0.220 HD
ENDBRANCH  21  23
BRANCH  21  25
ATOM     25  O   UNL     1      31.258  -7.873 -20.940  0.00  0.00    -0.284 OA
BRANCH  25  26
ATOM     26  C   UNL     1      31.952  -6.707 -21.346  0.00  0.00    +0.226 C 
BRANCH  26  28
ATOM     27  O   UNL     1      32.648  -6.140 -19.085  0.00  0.00    -0.248 OA
ATOM     28  C   UNL     1      32.097  -5.815 -20.129  0.00  0.00    +0.342 C 
BRANCH  28  29
ATOM     29  O   UNL     1      31.560  -4.584 -20.330  0.00  0.00    -0.479 OA
ATOM     30  H   UNL     1      30.893  -4.264 -19.756  0.00  0.00    +0.295 HD
ENDBRANCH  28  29
ENDBRANCH  26  28
BRANCH  26  31
ATOM     31  C   UNL     1      31.138  -6.006 -22.436  0.00  0.00    +0.068 C 
BRANCH  31  32
ATOM     32  C   UNL     1      31.960  -5.747 -23.676  0.00  0.00    -0.019 C 
ATOM     33  C   UNL     1      33.215  -5.148 -23.568  0.00  0.00    -0.004 C 
ATOM     34  C   UNL     1      31.464  -6.107 -24.929  0.00  0.00    -0.004 C 
ATOM     35  C   UNL     1      33.974  -4.908 -24.713  0.00  0.00    -0.000 C 
ATOM     36  C   UNL     1      32.224  -5.868 -26.075  0.00  0.00    -0.000 C 
ATOM     37  C   UNL     1      33.479  -5.268 -25.966  0.00  0.00    -0.000 C 
ENDBRANCH  31  32
ENDBRANCH  26  31
ENDBRANCH  25  26
ENDBRANCH  21  25
ENDBRANCH   1  21
TORSDOF 14
ENDMDL
MODEL 7
REMARK VINA RESULT:     -10.8      2.245     10.238
REMARK  Name = 5492457
REMARK  14 active torsions:
REMARK  status: ('A' for Active; 'I' for Inactive)
REMARK    1  A    between atoms: C_1  and  N_4
REMARK    2  A    between atoms: C_1  and  P_21
REMARK    3  A    between atoms: C_5  and  C_7
REMARK    4  A    between atoms: C_7  and  N_10
REMARK    5  A    between atoms: C_11  and  O_13
REMARK    6  A    between atoms: O_13  and  C_14
REMARK    7  A    between atoms: C_14  and  C_15
REMARK    8  A    between atoms: P_21  and  O_23
REMARK    9  A    between atoms: P_21  and  O_25
REMARK   10  A    between atoms: O_25  and  C_26
REMARK   11  A    between atoms: C_26  and  C_28
REMARK   12  A    between atoms: C_26  and  C_31
REMARK   13  A    between atoms: C_28  and  O_29
REMARK   14  A    between atoms: C_31  and  C_32
REMARK                            x       y       z     vdW  Elec       q    Type
REMARK                         _______ _______ _______ _____ _____    ______ ____
ROOT
ATOM      1  C   UNL     1      34.899 -21.549 -19.423  0.00  0.00    +0.177 C 
ATOM      2  C   UNL     1      35.761 -20.977 -18.307  0.00  0.00    +0.034 C 
ENDROOT
BRANCH   1   4
ATOM      3  O   UNL     1      36.341 -19.153 -20.150  0.00  0.00    -0.273 OA
ATOM      4  N   UNL     1      34.453 -20.492 -20.319  0.00  0.00    -0.295 N 
ATOM      5  C   UNL     1      35.222 -19.373 -20.608  0.00  0.00    +0.241 C 
ATOM      6  H   UNL     1      33.567 -20.576 -20.739  0.00  0.00    +0.150 HD
BRANCH   5   7
ATOM      7  C   UNL     1      34.539 -18.455 -21.612  0.00  0.00    +0.151 C 
ATOM      8  C   UNL     1      35.228 -18.524 -22.966  0.00  0.00    +0.031 C 
BRANCH   7  10
ATOM      9  O   UNL     1      34.328 -15.954 -23.074  0.00  0.00    -0.226 OA
ATOM     10  N   UNL     1      34.561 -17.119 -21.080  0.00  0.00    -0.264 N 
ATOM     11  C   UNL     1      34.454 -15.978 -21.854  0.00  0.00    +0.402 C 
ATOM     12  H   UNL     1      34.658 -17.010 -20.107  0.00  0.00    +0.153 HD
BRANCH  11  13
ATOM     13  O   UNL     1      34.508 -14.870 -21.057  0.00  0.00    -0.430 OA
BRANCH  13  14
ATOM     14  C   UNL     1      33.272 -14.475 -20.452  0.00  0.00    +0.237 C 
BRANCH  14  15
ATOM     15  C   UNL     1      32.777 -13.226 -21.120  0.00  0.00    +0.021 C 
ATOM     16  C   UNL     1      31.731 -12.499 -20.553  0.00  0.00    -0.001 C 
ATOM     17  C   UNL     1      33.363 -12.792 -22.309  0.00  0.00    -0.001 C 
ATOM     18  C   UNL     1      31.270 -11.338 -21.173  0.00  0.00    -0.000 C 
ATOM     19  C   UNL     1      32.902 -11.631 -22.930  0.00  0.00    -0.000 C 
ATOM     20  C   UNL     1      31.856 -10.904 -22.363  0.00  0.00    -0.000 C 
ENDBRANCH  14  15
ENDBRANCH  13  14
ENDBRANCH  11  13
ENDBRANCH   7  10
ENDBRANCH   5   7
ENDBRANCH   1   4
BRANCH   1  21
ATOM     21  P   UNL     1      33.405 -22.373 -18.875  0.00  0.00    +0.358 P 
ATOM     22  O   UNL     1      33.355 -23.838 -19.197  0.00  0.00    -0.256 OA
BRANCH  21  23
ATOM     23  O   UNL     1      32.221 -21.500 -19.549  0.00  0.00    -0.322 OA
ATOM     24  H   UNL     1      31.801 -22.016 -20.254  0.00  0.00    +0.220 HD
ENDBRANCH  21  23
BRANCH  21  25
ATOM     25  O   UNL     1      33.308 -22.004 -17.302  0.00  0.00    -0.284 OA
BRANCH  25  26
ATOM     26  C   UNL     1      32.797 -22.977 -16.408  0.00  0.00    +0.226 C 
BRANCH  26  28
ATOM     27  O   UNL     1      30.658 -21.995 -17.020  0.00  0.00    -0.248 OA
ATOM     28  C   UNL     1      31.290 -22.817 -16.370  0.00  0.00    +0.342 C 
BRANCH  28  29
ATOM     29  O   UNL     1      30.701 -23.715 -15.539  0.00  0.00    -0.479 OA
ATOM     30  H   UNL     1      29.983 -24.233 -15.842  0.00  0.00    +0.295 HD
ENDBRANCH  28  29
ENDBRANCH  26  28
BRANCH  26  31
ATOM     31  C   UNL     1      33.401 -22.736 -15.022  0.00  0.00    +0.068 C 
BRANCH  31  32
ATOM     32  C   UNL     1      34.794 -23.308 -14.906  0.00  0.00    -0.019 C 
ATOM     33  C   UNL     1      35.902 -22.462 -14.966  0.00  0.00    -0.004 C 
ATOM     34  C   UNL     1      34.972 -24.680 -14.739  0.00  0.00    -0.004 C 
ATOM     35  C   UNL     1      37.188 -22.990 -14.859  0.00  0.00    -0.000 C 
ATOM     36  C   UNL     1      36.259 -25.209 -14.631  0.00  0.00    -0.000 C 
ATOM     37  C   UNL     1      37.367 -24.362 -14.691  0.00  0.00    -0.000 C 
ENDBRANCH  31  32
ENDBRANCH  26  31
ENDBRANCH  25  26
ENDBRANCH  21  25
ENDBRANCH   1  21
TORSDOF 14
ENDMDL
MODEL 8
REMARK VINA RESULT:     -10.7      4.293      7.048
REMARK  Name = 5492457
REMARK  14 active torsions:
REMARK  status: ('A' for Active; 'I' for Inactive)
REMARK    1  A    between atoms: C_1  and  N_4
REMARK    2  A    between atoms: C_1  and  P_21
REMARK    3  A    between atoms: C_5  and  C_7
REMARK    4  A    between atoms: C_7  and  N_10
REMARK    5  A    between atoms: C_11  and  O_13
REMARK    6  A    between atoms: O_13  and  C_14
REMARK    7  A    between atoms: C_14  and  C_15
REMARK    8  A    between atoms: P_21  and  O_23
REMARK    9  A    between atoms: P_21  and  O_25
REMARK   10  A    between atoms: O_25  and  C_26
REMARK   11  A    between atoms: C_26  and  C_28
REMARK   12  A    between atoms: C_26  and  C_31
REMARK   13  A    between atoms: C_28  and  O_29
REMARK   14  A    between atoms: C_31  and  C_32
REMARK                            x       y       z     vdW  Elec       q    Type
REMARK                         _______ _______ _______ _____ _____    ______ ____
ROOT
ATOM      1  C   UNL     1      33.060 -13.446 -21.961  0.00  0.00    +0.177 C 
ATOM      2  C   UNL     1      33.893 -12.823 -20.851  0.00  0.00    +0.034 C 
ENDROOT
BRANCH   1   4
ATOM      3  O   UNL     1      34.302 -15.573 -20.451  0.00  0.00    -0.273 OA
ATOM      4  N   UNL     1      33.716 -14.632 -22.491  0.00  0.00    -0.295 N 
ATOM      5  C   UNL     1      34.286 -15.604 -21.680  0.00  0.00    +0.241 C 
ATOM      6  H   UNL     1      33.756 -14.751 -23.467  0.00  0.00    +0.150 HD
BRANCH   5   7
ATOM      7  C   UNL     1      34.857 -16.760 -22.490  0.00  0.00    +0.151 C 
ATOM      8  C   UNL     1      34.234 -16.809 -23.877  0.00  0.00    +0.031 C 
BRANCH   7  10
ATOM      9  O   UNL     1      36.734 -18.274 -20.870  0.00  0.00    -0.226 OA
ATOM     10  N   UNL     1      34.612 -17.977 -21.763  0.00  0.00    -0.264 N 
ATOM     11  C   UNL     1      35.569 -18.634 -21.012  0.00  0.00    +0.402 C 
ATOM     12  H   UNL     1      33.708 -18.365 -21.802  0.00  0.00    +0.153 HD
BRANCH  11  13
ATOM     13  O   UNL     1      35.029 -19.753 -20.446  0.00  0.00    -0.430 OA
BRANCH  13  14
ATOM     14  C   UNL     1      35.903 -20.509 -19.601  0.00  0.00    +0.237 C 
BRANCH  14  15
ATOM     15  C   UNL     1      35.080 -21.266 -18.599  0.00  0.00    +0.021 C 
ATOM     16  C   UNL     1      33.756 -21.592 -18.888  0.00  0.00    -0.001 C 
ATOM     17  C   UNL     1      35.641 -21.643 -17.379  0.00  0.00    -0.001 C 
ATOM     18  C   UNL     1      32.990 -22.296 -17.958  0.00  0.00    -0.000 C 
ATOM     19  C   UNL     1      34.876 -22.347 -16.448  0.00  0.00    -0.000 C 
ATOM     20  C   UNL     1      33.551 -22.673 -16.737  0.00  0.00    -0.000 C 
ENDBRANCH  14  15
ENDBRANCH  13  14
ENDBRANCH  11  13
ENDBRANCH   7  10
ENDBRANCH   5   7
ENDBRANCH   1   4
BRANCH   1  21
ATOM     21  P   UNL     1      32.777 -12.384 -23.377  0.00  0.00    +0.358 P 
ATOM     22  O   UNL     1      32.577 -13.120 -24.670  0.00  0.00    -0.256 OA
BRANCH  21  23
ATOM     23  O   UNL     1      34.053 -11.389 -23.365  0.00  0.00    -0.322 OA
ATOM     24  H   UNL     1      34.372 -11.262 -24.272  0.00  0.00    +0.220 HD
ENDBRANCH  21  23
BRANCH  21  25
ATOM     25  O   UNL     1      31.546 -11.439 -22.918  0.00  0.00    -0.284 OA
BRANCH  25  26
ATOM     26  C   UNL     1      31.833 -10.135 -22.444  0.00  0.00    +0.226 C 
BRANCH  26  28
ATOM     27  O   UNL     1      31.381  -9.180 -20.253  0.00  0.00    -0.248 OA
ATOM     28  C   UNL     1      31.054  -9.935 -21.159  0.00  0.00    +0.342 C 
BRANCH  28  29
ATOM     29  O   UNL     1      29.920 -10.682 -21.127  0.00  0.00    -0.479 OA
ATOM     30  H   UNL     1      29.171 -10.376 -20.656  0.00  0.00    +0.295 HD
ENDBRANCH  28  29
ENDBRANCH  26  28
BRANCH  26  31
ATOM     31  C   UNL     1      31.398  -9.120 -23.504  0.00  0.00    +0.068 C 
BRANCH  31  32
ATOM     32  C   UNL     1      32.057  -7.777 -23.303  0.00  0.00    -0.019 C 
ATOM     33  C   UNL     1      31.299  -6.609 -23.388  0.00  0.00    -0.004 C 
ATOM     34  C   UNL     1      33.423  -7.703 -23.033  0.00  0.00    -0.004 C 
ATOM     35  C   UNL     1      31.907  -5.368 -23.203  0.00  0.00    -0.000 C 
ATOM     36  C   UNL     1      34.031  -6.461 -22.847  0.00  0.00    -0.000 C 
ATOM     37  C   UNL     1      33.272  -5.293 -22.932  0.00  0.00    -0.000 C 
ENDBRANCH  31  32
ENDBRANCH  26  31
ENDBRANCH  25  26
ENDBRANCH  21  25
ENDBRANCH   1  21
TORSDOF 14
ENDMDL
MODEL 9
REMARK VINA RESULT:     -10.6      3.495     11.271
REMARK  Name = 5492457
REMARK  14 active torsions:
REMARK  status: ('A' for Active; 'I' for Inactive)
REMARK    1  A    between atoms: C_1  and  N_4
REMARK    2  A    between atoms: C_1  and  P_21
REMARK    3  A    between atoms: C_5  and  C_7
REMARK    4  A    between atoms: C_7  and  N_10
REMARK    5  A    between atoms: C_11  and  O_13
REMARK    6  A    between atoms: O_13  and  C_14
REMARK    7  A    between atoms: C_14  and  C_15
REMARK    8  A    between atoms: P_21  and  O_23
REMARK    9  A    between atoms: P_21  and  O_25
REMARK   10  A    between atoms: O_25  and  C_26
REMARK   11  A    between atoms: C_26  and  C_28
REMARK   12  A    between atoms: C_26  and  C_31
REMARK   13  A    between atoms: C_28  and  O_29
REMARK   14  A    between atoms: C_31  and  C_32
REMARK                            x       y       z     vdW  Elec       q    Type
REMARK                         _______ _______ _______ _____ _____    ______ ____
ROOT
ATOM      1  C   UNL     1      35.948 -22.780 -15.735  0.00  0.00    +0.177 C 
ATOM      2  C   UNL     1      36.877 -21.633 -15.365  0.00  0.00    +0.034 C 
ENDROOT
BRANCH   1   4
ATOM      3  O   UNL     1      36.417 -21.351 -18.202  0.00  0.00    -0.273 OA
ATOM      4  N   UNL     1      34.950 -22.340 -16.699  0.00  0.00    -0.295 N 
ATOM      5  C   UNL     1      35.275 -21.656 -17.863  0.00  0.00    +0.241 C 
ATOM      6  H   UNL     1      34.004 -22.538 -16.518  0.00  0.00    +0.150 HD
BRANCH   5   7
ATOM      7  C   UNL     1      34.048 -21.364 -18.714  0.00  0.00    +0.151 C 
ATOM      8  C   UNL     1      33.412 -22.654 -19.209  0.00  0.00    +0.031 C 
BRANCH   7  10
ATOM      9  O   UNL     1      32.360 -19.779 -20.469  0.00  0.00    -0.226 OA
ATOM     10  N   UNL     1      34.456 -20.527 -19.811  0.00  0.00    -0.264 N 
ATOM     11  C   UNL     1      33.580 -19.803 -20.598  0.00  0.00    +0.402 C 
ATOM     12  H   UNL     1      35.418 -20.465 -20.012  0.00  0.00    +0.153 HD
BRANCH  11  13
ATOM     13  O   UNL     1      34.273 -19.111 -21.550  0.00  0.00    -0.430 OA
BRANCH  13  14
ATOM     14  C   UNL     1      35.030 -17.991 -21.079  0.00  0.00    +0.237 C 
BRANCH  14  15
ATOM     15  C   UNL     1      34.618 -16.766 -21.843  0.00  0.00    +0.021 C 
ATOM     16  C   UNL     1      34.545 -16.804 -23.235  0.00  0.00    -0.001 C 
ATOM     17  C   UNL     1      34.308 -15.590 -21.160  0.00  0.00    -0.001 C 
ATOM     18  C   UNL     1      34.162 -15.666 -23.946  0.00  0.00    -0.000 C 
ATOM     19  C   UNL     1      33.925 -14.452 -21.871  0.00  0.00    -0.000 C 
ATOM     20  C   UNL     1      33.853 -14.490 -23.263  0.00  0.00    -0.000 C 
ENDBRANCH  14  15
ENDBRANCH  13  14
ENDBRANCH  11  13
ENDBRANCH   7  10
ENDBRANCH   5   7
ENDBRANCH   1   4
BRANCH   1  21
ATOM     21  P   UNL     1      35.020 -23.469 -14.367  0.00  0.00    +0.358 P 
ATOM     22  O   UNL     1      34.478 -24.846 -14.620  0.00  0.00    -0.256 OA
BRANCH  21  23
ATOM     23  O   UNL     1      33.888 -22.350 -14.074  0.00  0.00    -0.322 OA
ATOM     24  H   UNL     1      34.262 -21.650 -13.517  0.00  0.00    +0.220 HD
ENDBRANCH  21  23
BRANCH  21  25
ATOM     25  O   UNL     1      36.025 -23.340 -13.105  0.00  0.00    -0.284 OA
BRANCH  25  26
ATOM     26  C   UNL     1      35.740 -24.083 -11.933  0.00  0.00    +0.226 C 
BRANCH  26  28
ATOM     27  O   UNL     1      35.984 -23.549  -9.572  0.00  0.00    -0.248 OA
ATOM     28  C   UNL     1      36.094 -23.212 -10.743  0.00  0.00    +0.342 C 
BRANCH  28  29
ATOM     29  O   UNL     1      36.576 -22.000 -11.123  0.00  0.00    -0.479 OA
ATOM     30  H   UNL     1      36.062 -21.442 -11.672  0.00  0.00    +0.295 HD
ENDBRANCH  28  29
ENDBRANCH  26  28
BRANCH  26  31
ATOM     31  C   UNL     1      36.587 -25.357 -11.941  0.00  0.00    +0.068 C 
BRANCH  31  32
ATOM     32  C   UNL     1      37.716 -25.279 -12.940  0.00  0.00    -0.019 C 
ATOM     33  C   UNL     1      37.728 -26.128 -14.047  0.00  0.00    -0.004 C 
ATOM     34  C   UNL     1      38.746 -24.357 -12.757  0.00  0.00    -0.004 C 
ATOM     35  C   UNL     1      38.770 -26.056 -14.970  0.00  0.00    -0.000 C 
ATOM     36  C   UNL     1      39.789 -24.284 -13.681  0.00  0.00    -0.000 C 
ATOM     37  C   UNL     1      39.801 -25.134 -14.788  0.00  0.00    -0.000 C 
ENDBRANCH  31  32
ENDBRANCH  26  31
ENDBRANCH  25  26
ENDBRANCH  21  25
ENDBRANCH   1  21
TORSDOF 14
ENDMDL
