MODEL 1
REMARK VINA RESULT:     -11.0      0.000      0.000
REMARK  Name = 24963048
REMARK  6 active torsions:
REMARK  status: ('A' for Active; 'I' for Inactive)
REMARK    1  A    between atoms: N_2  and  C_20
REMARK    2  A    between atoms: C_3  and  C_7
REMARK    3  A    between atoms: C_6  and  C_12
REMARK    4  A    between atoms: C_20  and  C_21
REMARK    5  A    between atoms: C_20  and  C_27
REMARK    6  A    between atoms: C_27  and  N_28
REMARK                            x       y       z     vdW  Elec       q    Type
REMARK                         _______ _______ _______ _____ _____    ______ ____
ROOT
ATOM      1  O   UNL     1      34.806 -22.447 -20.171  0.00  0.00    -0.270 OA
ATOM      2  N   UNL     1      34.317 -21.269 -18.236  0.00  0.00    -0.300 N 
ATOM      3  C   UNL     1      34.744 -21.338 -19.581  0.00  0.00    +0.252 C 
ATOM      4  H   UNL     1      34.281 -20.383 -17.809  0.00  0.00    +0.150 HD
ENDROOT
BRANCH   3   7
ATOM      5  S   UNL     1      33.888 -19.339 -21.202  0.00  0.00    -0.082 S 
ATOM      6  C   UNL     1      34.967 -18.073 -21.606  0.00  0.00    +0.030 C 
ATOM      7  C   UNL     1      35.076 -20.118 -20.243  0.00  0.00    +0.083 C 
ATOM      8  C   UNL     1      36.204 -18.241 -21.023  0.00  0.00    +0.007 C 
ATOM      9  C   UNL     1      36.266 -19.425 -20.234  0.00  0.00    +0.012 C 
BRANCH   6  12
ATOM     10  N   UNL     1      33.486 -13.651 -22.053  0.00  0.00    -0.297 N 
ATOM     11  N   UNL     1      33.589 -14.880 -24.121  0.00  0.00    -0.229 NA
ATOM     12  C   UNL     1      34.508 -17.017 -22.465  0.00  0.00    +0.010 C 
ATOM     13  C   UNL     1      34.183 -15.767 -21.915  0.00  0.00    +0.033 C 
ATOM     14  C   UNL     1      33.743 -14.777 -22.788  0.00  0.00    +0.132 C 
ATOM     15  C   UNL     1      34.183 -15.198 -20.614  0.00  0.00    +0.019 C 
ATOM     16  C   UNL     1      34.367 -17.179 -23.842  0.00  0.00    +0.021 C 
ATOM     17  C   UNL     1      33.749 -13.895 -20.730  0.00  0.00    +0.063 C 
ATOM     18  C   UNL     1      33.915 -16.105 -24.597  0.00  0.00    +0.100 C 
ATOM     19  H   UNL     1      33.160 -12.796 -22.419  0.00  0.00    +0.154 HD
ENDBRANCH   6  12
ENDBRANCH   3   7
BRANCH   2  20
ATOM     20  C   UNL     1      33.933 -22.409 -17.450  0.00  0.00    +0.073 C 
BRANCH  20  21
ATOM     21  C   UNL     1      34.796 -22.515 -16.209  0.00  0.00    -0.007 C 
ATOM     22  C   UNL     1      36.096 -22.009 -16.217  0.00  0.00    -0.003 C 
ATOM     23  C   UNL     1      34.292 -23.122 -15.058  0.00  0.00    -0.003 C 
ATOM     24  C   UNL     1      36.890 -22.107 -15.075  0.00  0.00    -0.000 C 
ATOM     25  C   UNL     1      35.086 -23.221 -13.916  0.00  0.00    -0.000 C 
ATOM     26  C   UNL     1      36.385 -22.713 -13.925  0.00  0.00    -0.000 C 
ENDBRANCH  20  21
BRANCH  20  27
ATOM     27  C   UNL     1      32.437 -22.375 -17.096  0.00  0.00    -0.062 C 
BRANCH  27  28
ATOM     28  N   UNL     1      31.671 -21.659 -18.115  0.00  0.00    +0.382 N 
ATOM     29  H   UNL     1      32.307 -21.113 -18.697  0.00  0.00    -0.089 HD
ATOM     30  H   UNL     1      31.004 -21.034 -17.663  0.00  0.00    -0.089 HD
ATOM     31  H   UNL     1      31.170 -22.330 -18.697  0.00  0.00    -0.089 HD
ENDBRANCH  27  28
ENDBRANCH  20  27
ENDBRANCH   2  20
TORSDOF 6
ENDMDL
MODEL 2
REMARK VINA RESULT:     -10.8      1.361      2.537
REMARK  Name = 24963048
REMARK  6 active torsions:
REMARK  status: ('A' for Active; 'I' for Inactive)
REMARK    1  A    between atoms: N_2  and  C_20
REMARK    2  A    between atoms: C_3  and  C_7
REMARK    3  A    between atoms: C_6  and  C_12
REMARK    4  A    between atoms: C_20  and  C_21
REMARK    5  A    between atoms: C_20  and  C_27
REMARK    6  A    between atoms: C_27  and  N_28
REMARK                            x       y       z     vdW  Elec       q    Type
REMARK                         _______ _______ _______ _____ _____    ______ ____
ROOT
ATOM      1  O   UNL     1      33.443 -23.351 -19.219  0.00  0.00    -0.270 OA
ATOM      2  N   UNL     1      33.586 -22.146 -17.245  0.00  0.00    -0.300 N 
ATOM      3  C   UNL     1      33.800 -22.297 -18.634  0.00  0.00    +0.252 C 
ATOM      4  H   UNL     1      33.879 -21.307 -16.823  0.00  0.00    +0.150 HD
ENDROOT
BRANCH   3   7
ATOM      5  S   UNL     1      33.408 -20.075 -20.137  0.00  0.00    -0.082 S 
ATOM      6  C   UNL     1      34.766 -19.190 -20.689  0.00  0.00    +0.030 C 
ATOM      7  C   UNL     1      34.407 -21.216 -19.340  0.00  0.00    +0.083 C 
ATOM      8  C   UNL     1      35.953 -19.753 -20.273  0.00  0.00    +0.007 C 
ATOM      9  C   UNL     1      35.745 -20.926 -19.492  0.00  0.00    +0.012 C 
BRANCH   6  12
ATOM     10  N   UNL     1      33.479 -17.330 -24.792  0.00  0.00    -0.297 N 
ATOM     11  N   UNL     1      34.112 -15.715 -23.120  0.00  0.00    -0.229 NA
ATOM     12  C   UNL     1      34.552 -18.014 -21.485  0.00  0.00    +0.010 C 
ATOM     13  C   UNL     1      34.105 -18.147 -22.810  0.00  0.00    +0.033 C 
ATOM     14  C   UNL     1      33.913 -16.978 -23.541  0.00  0.00    +0.132 C 
ATOM     15  C   UNL     1      33.770 -19.227 -23.667  0.00  0.00    +0.019 C 
ATOM     16  C   UNL     1      34.774 -16.728 -20.998  0.00  0.00    +0.021 C 
ATOM     17  C   UNL     1      33.389 -18.695 -24.880  0.00  0.00    +0.063 C 
ATOM     18  C   UNL     1      34.542 -15.647 -21.839  0.00  0.00    +0.100 C 
ATOM     19  H   UNL     1      33.265 -16.699 -25.517  0.00  0.00    +0.154 HD
ENDBRANCH   6  12
ENDBRANCH   3   7
BRANCH   2  20
ATOM     20  C   UNL     1      32.970 -23.139 -16.408  0.00  0.00    +0.073 C 
BRANCH  20  21
ATOM     21  C   UNL     1      33.712 -23.262 -15.093  0.00  0.00    -0.007 C 
ATOM     22  C   UNL     1      35.068 -22.944 -15.024  0.00  0.00    -0.003 C 
ATOM     23  C   UNL     1      33.040 -23.696 -13.950  0.00  0.00    -0.003 C 
ATOM     24  C   UNL     1      35.752 -23.058 -13.813  0.00  0.00    -0.000 C 
ATOM     25  C   UNL     1      33.722 -23.811 -12.740  0.00  0.00    -0.000 C 
ATOM     26  C   UNL     1      35.078 -23.491 -12.671  0.00  0.00    -0.000 C 
ENDBRANCH  20  21
BRANCH  20  27
ATOM     27  C   UNL     1      31.477 -22.847 -16.189  0.00  0.00    -0.062 C 
BRANCH  27  28
ATOM     28  N   UNL     1      30.911 -22.118 -17.323  0.00  0.00    +0.382 N 
ATOM     29  H   UNL     1      31.635 -21.542 -17.752  0.00  0.00    -0.089 HD
ATOM     30  H   UNL     1      30.151 -21.520 -16.997  0.00  0.00    -0.089 HD
ATOM     31  H   UNL     1      30.552 -22.782 -18.009  0.00  0.00    -0.089 HD
ENDBRANCH  27  28
ENDBRANCH  20  27
ENDBRANCH   2  20
TORSDOF 6
ENDMDL
MODEL 3
REMARK VINA RESULT:     -10.4      6.957     13.076
REMARK  Name = 24963048
REMARK  6 active torsions:
REMARK  status: ('A' for Active; 'I' for Inactive)
REMARK    1  A    between atoms: N_2  and  C_20
REMARK    2  A    between atoms: C_3  and  C_7
REMARK    3  A    between atoms: C_6  and  C_12
REMARK    4  A    between atoms: C_20  and  C_21
REMARK    5  A    between atoms: C_20  and  C_27
REMARK    6  A    between atoms: C_27  and  N_28
REMARK                            x       y       z     vdW  Elec       q    Type
REMARK                         _______ _______ _______ _____ _____    ______ ____
ROOT
ATOM      1  O   UNL     1      31.213  -8.013 -20.765  0.00  0.00    -0.270 OA
ATOM      2  N   UNL     1      31.913  -7.777 -22.961  0.00  0.00    -0.300 N 
ATOM      3  C   UNL     1      31.605  -8.561 -21.827  0.00  0.00    +0.252 C 
ATOM      4  H   UNL     1      32.217  -8.242 -23.774  0.00  0.00    +0.150 HD
ENDROOT
BRANCH   3   7
ATOM      5  S   UNL     1      32.592 -10.637 -23.264  0.00  0.00    -0.082 S 
ATOM      6  C   UNL     1      32.317 -12.236 -22.718  0.00  0.00    +0.030 C 
ATOM      7  C   UNL     1      31.733  -9.978 -21.937  0.00  0.00    +0.083 C 
ATOM      8  C   UNL     1      31.586 -12.265 -21.550  0.00  0.00    +0.007 C 
ATOM      9  C   UNL     1      31.248 -10.957 -21.098  0.00  0.00    +0.012 C 
BRANCH   6  12
ATOM     10  N   UNL     1      34.656 -16.295 -22.792  0.00  0.00    -0.297 N 
ATOM     11  N   UNL     1      33.910 -15.536 -24.952  0.00  0.00    -0.229 NA
ATOM     12  C   UNL     1      32.841 -13.332 -23.484  0.00  0.00    +0.010 C 
ATOM     13  C   UNL     1      33.533 -14.365 -22.832  0.00  0.00    +0.033 C 
ATOM     14  C   UNL     1      34.023 -15.405 -23.618  0.00  0.00    +0.132 C 
ATOM     15  C   UNL     1      33.894 -14.659 -21.491  0.00  0.00    +0.019 C 
ATOM     16  C   UNL     1      32.695 -13.418 -24.867  0.00  0.00    +0.021 C 
ATOM     17  C   UNL     1      34.584 -15.852 -21.496  0.00  0.00    +0.063 C 
ATOM     18  C   UNL     1      33.236 -14.513 -25.528  0.00  0.00    +0.100 C 
ATOM     19  H   UNL     1      35.096 -17.127 -23.084  0.00  0.00    +0.154 HD
ENDBRANCH   6  12
ENDBRANCH   3   7
BRANCH   2  20
ATOM     20  C   UNL     1      31.814  -6.343 -23.005  0.00  0.00    +0.073 C 
BRANCH  20  21
ATOM     21  C   UNL     1      32.555  -5.795 -24.208  0.00  0.00    -0.007 C 
ATOM     22  C   UNL     1      33.762  -5.117 -24.034  0.00  0.00    -0.003 C 
ATOM     23  C   UNL     1      32.031  -5.966 -25.489  0.00  0.00    -0.003 C 
ATOM     24  C   UNL     1      34.444  -4.611 -25.140  0.00  0.00    -0.000 C 
ATOM     25  C   UNL     1      32.712  -5.460 -26.596  0.00  0.00    -0.000 C 
ATOM     26  C   UNL     1      33.919  -4.783 -26.421  0.00  0.00    -0.000 C 
ENDBRANCH  20  21
BRANCH  20  27
ATOM     27  C   UNL     1      30.349  -5.877 -22.984  0.00  0.00    -0.062 C 
BRANCH  27  28
ATOM     28  N   UNL     1      30.040  -5.170 -21.742  0.00  0.00    +0.382 N 
ATOM     29  H   UNL     1      30.533  -4.277 -21.728  0.00  0.00    -0.089 HD
ATOM     30  H   UNL     1      30.339  -5.735 -20.946  0.00  0.00    -0.089 HD
ATOM     31  H   UNL     1      29.035  -5.007 -21.685  0.00  0.00    -0.089 HD
ENDBRANCH  27  28
ENDBRANCH  20  27
ENDBRANCH   2  20
TORSDOF 6
ENDMDL
MODEL 4
REMARK VINA RESULT:     -10.3      3.716      6.205
REMARK  Name = 24963048
REMARK  6 active torsions:
REMARK  status: ('A' for Active; 'I' for Inactive)
REMARK    1  A    between atoms: N_2  and  C_20
REMARK    2  A    between atoms: C_3  and  C_7
REMARK    3  A    between atoms: C_6  and  C_12
REMARK    4  A    between atoms: C_20  and  C_21
REMARK    5  A    between atoms: C_20  and  C_27
REMARK    6  A    between atoms: C_27  and  N_28
REMARK                            x       y       z     vdW  Elec       q    Type
REMARK                         _______ _______ _______ _____ _____    ______ ____
ROOT
ATOM      1  O   UNL     1      35.277 -15.790 -23.203  0.00  0.00    -0.270 OA
ATOM      2  N   UNL     1      34.296 -17.099 -21.562  0.00  0.00    -0.300 N 
ATOM      3  C   UNL     1      34.494 -15.866 -22.222  0.00  0.00    +0.252 C 
ATOM      4  H   UNL     1      33.676 -17.119 -20.798  0.00  0.00    +0.150 HD
ENDROOT
BRANCH   3   7
ATOM      5  S   UNL     1      33.610 -13.362 -22.772  0.00  0.00    -0.082 S 
ATOM      6  C   UNL     1      32.694 -12.523 -21.594  0.00  0.00    +0.030 C 
ATOM      7  C   UNL     1      33.767 -14.731 -21.753  0.00  0.00    +0.083 C 
ATOM      8  C   UNL     1      32.513 -13.270 -20.451  0.00  0.00    +0.007 C 
ATOM      9  C   UNL     1      33.134 -14.548 -20.544  0.00  0.00    +0.012 C 
BRANCH   6  12
ATOM     10  N   UNL     1      30.862  -8.497 -20.049  0.00  0.00    -0.297 N 
ATOM     11  N   UNL     1      31.288  -8.553 -22.419  0.00  0.00    -0.229 NA
ATOM     12  C   UNL     1      32.229 -11.197 -21.891  0.00  0.00    +0.010 C 
ATOM     13  C   UNL     1      31.735 -10.387 -20.855  0.00  0.00    +0.033 C 
ATOM     14  C   UNL     1      31.296  -9.110 -21.194  0.00  0.00    +0.132 C 
ATOM     15  C   UNL     1      31.551 -10.527 -19.455  0.00  0.00    +0.019 C 
ATOM     16  C   UNL     1      32.243 -10.668 -23.181  0.00  0.00    +0.021 C 
ATOM     17  C   UNL     1      31.011  -9.349 -18.985  0.00  0.00    +0.063 C 
ATOM     18  C   UNL     1      31.773  -9.377 -23.377  0.00  0.00    +0.100 C 
ATOM     19  H   UNL     1      30.498  -7.583 -19.997  0.00  0.00    +0.154 HD
ENDBRANCH   6  12
ENDBRANCH   3   7
BRANCH   2  20
ATOM     20  C   UNL     1      34.943 -18.328 -21.933  0.00  0.00    +0.073 C 
BRANCH  20  21
ATOM     21  C   UNL     1      34.722 -19.388 -20.872  0.00  0.00    -0.007 C 
ATOM     22  C   UNL     1      33.427 -19.786 -20.542  0.00  0.00    -0.003 C 
ATOM     23  C   UNL     1      35.815 -19.965 -20.224  0.00  0.00    -0.003 C 
ATOM     24  C   UNL     1      33.224 -20.761 -19.566  0.00  0.00    -0.000 C 
ATOM     25  C   UNL     1      35.613 -20.939 -19.247  0.00  0.00    -0.000 C 
ATOM     26  C   UNL     1      34.317 -21.337 -18.919  0.00  0.00    -0.000 C 
ENDBRANCH  20  21
BRANCH  20  27
ATOM     27  C   UNL     1      34.486 -18.813 -23.319  0.00  0.00    -0.062 C 
BRANCH  27  28
ATOM     28  N   UNL     1      33.208 -18.210 -23.692  0.00  0.00    +0.382 N 
ATOM     29  H   UNL     1      33.284 -17.801 -24.623  0.00  0.00    -0.089 HD
ATOM     30  H   UNL     1      32.967 -17.480 -23.020  0.00  0.00    -0.089 HD
ATOM     31  H   UNL     1      32.482 -18.926 -23.692  0.00  0.00    -0.089 HD
ENDBRANCH  27  28
ENDBRANCH  20  27
ENDBRANCH   2  20
TORSDOF 6
ENDMDL
MODEL 5
REMARK VINA RESULT:     -10.0      4.494      7.202
REMARK  Name = 24963048
REMARK  6 active torsions:
REMARK  status: ('A' for Active; 'I' for Inactive)
REMARK    1  A    between atoms: N_2  and  C_20
REMARK    2  A    between atoms: C_3  and  C_7
REMARK    3  A    between atoms: C_6  and  C_12
REMARK    4  A    between atoms: C_20  and  C_21
REMARK    5  A    between atoms: C_20  and  C_27
REMARK    6  A    between atoms: C_27  and  N_28
REMARK                            x       y       z     vdW  Elec       q    Type
REMARK                         _______ _______ _______ _____ _____    ______ ____
ROOT
ATOM      1  O   UNL     1      34.423 -15.660 -25.498  0.00  0.00    -0.270 OA
ATOM      2  N   UNL     1      33.717 -16.524 -23.468  0.00  0.00    -0.300 N 
ATOM      3  C   UNL     1      33.844 -15.469 -24.399  0.00  0.00    +0.252 C 
ATOM      4  H   UNL     1      33.257 -16.335 -22.618  0.00  0.00    +0.150 HD
ENDROOT
BRANCH   3   7
ATOM      5  S   UNL     1      33.071 -13.800 -22.406  0.00  0.00    -0.082 S 
ATOM      6  C   UNL     1      32.408 -12.273 -22.805  0.00  0.00    +0.030 C 
ATOM      7  C   UNL     1      33.281 -14.202 -24.058  0.00  0.00    +0.083 C 
ATOM      8  C   UNL     1      32.349 -12.076 -24.168  0.00  0.00    +0.007 C 
ATOM      9  C   UNL     1      32.855 -13.193 -24.893  0.00  0.00    +0.012 C 
BRANCH   6  12
ATOM     10  N   UNL     1      31.067  -7.988 -21.468  0.00  0.00    -0.297 N 
ATOM     11  N   UNL     1      31.184  -9.598 -19.681  0.00  0.00    -0.229 NA
ATOM     12  C   UNL     1      31.999 -11.394 -21.745  0.00  0.00    +0.010 C 
ATOM     13  C   UNL     1      31.701 -10.053 -22.034  0.00  0.00    +0.033 C 
ATOM     14  C   UNL     1      31.310  -9.241 -20.973  0.00  0.00    +0.132 C 
ATOM     15  C   UNL     1      31.687  -9.242 -23.198  0.00  0.00    +0.019 C 
ATOM     16  C   UNL     1      31.886 -11.817 -20.423  0.00  0.00    +0.021 C 
ATOM     17  C   UNL     1      31.294  -7.976 -22.821  0.00  0.00    +0.063 C 
ATOM     18  C   UNL     1      31.485 -10.899 -19.461  0.00  0.00    +0.100 C 
ATOM     19  H   UNL     1      30.776  -7.213 -20.935  0.00  0.00    +0.154 HD
ENDBRANCH   6  12
ENDBRANCH   3   7
BRANCH   2  20
ATOM     20  C   UNL     1      34.216 -17.855 -23.680  0.00  0.00    +0.073 C 
BRANCH  20  21
ATOM     21  C   UNL     1      34.784 -18.422 -22.395  0.00  0.00    -0.007 C 
ATOM     22  C   UNL     1      36.075 -18.079 -21.992  0.00  0.00    -0.003 C 
ATOM     23  C   UNL     1      34.018 -19.289 -21.616  0.00  0.00    -0.003 C 
ATOM     24  C   UNL     1      36.598 -18.602 -20.809  0.00  0.00    -0.000 C 
ATOM     25  C   UNL     1      34.541 -19.812 -20.434  0.00  0.00    -0.000 C 
ATOM     26  C   UNL     1      35.831 -19.468 -20.030  0.00  0.00    -0.000 C 
ENDBRANCH  20  21
BRANCH  20  27
ATOM     27  C   UNL     1      33.138 -18.775 -24.275  0.00  0.00    -0.062 C 
BRANCH  27  28
ATOM     28  N   UNL     1      32.107 -18.001 -24.964  0.00  0.00    +0.382 N 
ATOM     29  H   UNL     1      31.807 -17.229 -24.369  0.00  0.00    -0.089 HD
ATOM     30  H   UNL     1      31.308 -18.603 -25.167  0.00  0.00    -0.089 HD
ATOM     31  H   UNL     1      32.485 -17.632 -25.837  0.00  0.00    -0.089 HD
ENDBRANCH  27  28
ENDBRANCH  20  27
ENDBRANCH   2  20
TORSDOF 6
ENDMDL
MODEL 6
REMARK VINA RESULT:      -9.9      3.732      9.408
REMARK  Name = 24963048
REMARK  6 active torsions:
REMARK  status: ('A' for Active; 'I' for Inactive)
REMARK    1  A    between atoms: N_2  and  C_20
REMARK    2  A    between atoms: C_3  and  C_7
REMARK    3  A    between atoms: C_6  and  C_12
REMARK    4  A    between atoms: C_20  and  C_21
REMARK    5  A    between atoms: C_20  and  C_27
REMARK    6  A    between atoms: C_27  and  N_28
REMARK                            x       y       z     vdW  Elec       q    Type
REMARK                         _______ _______ _______ _____ _____    ______ ____
ROOT
ATOM      1  O   UNL     1      33.041 -14.307 -25.641  0.00  0.00    -0.270 OA
ATOM      2  N   UNL     1      32.883 -13.605 -23.439  0.00  0.00    -0.300 N 
ATOM      3  C   UNL     1      33.126 -14.592 -24.420  0.00  0.00    +0.252 C 
ATOM      4  H   UNL     1      32.960 -13.866 -22.493  0.00  0.00    +0.150 HD
ENDROOT
BRANCH   3   7
ATOM      5  S   UNL     1      34.180 -16.095 -22.424  0.00  0.00    -0.082 S 
ATOM      6  C   UNL     1      34.313 -17.789 -22.635  0.00  0.00    +0.030 C 
ATOM      7  C   UNL     1      33.488 -15.900 -23.979  0.00  0.00    +0.083 C 
ATOM      8  C   UNL     1      33.839 -18.195 -23.864  0.00  0.00    +0.007 C 
ATOM      9  C   UNL     1      33.362 -17.102 -24.642  0.00  0.00    +0.012 C 
BRANCH   6  12
ATOM     10  N   UNL     1      33.656 -20.954 -19.244  0.00  0.00    -0.297 N 
ATOM     11  N   UNL     1      35.925 -20.175 -19.453  0.00  0.00    -0.229 NA
ATOM     12  C   UNL     1      34.872 -18.579 -21.575  0.00  0.00    +0.010 C 
ATOM     13  C   UNL     1      34.042 -19.443 -20.841  0.00  0.00    +0.033 C 
ATOM     14  C   UNL     1      34.631 -20.187 -19.824  0.00  0.00    +0.132 C 
ATOM     15  C   UNL     1      32.665 -19.787 -20.859  0.00  0.00    +0.019 C 
ATOM     16  C   UNL     1      36.222 -18.528 -21.233  0.00  0.00    +0.021 C 
ATOM     17  C   UNL     1      32.456 -20.719 -19.865  0.00  0.00    +0.063 C 
ATOM     18  C   UNL     1      36.677 -19.326 -20.192  0.00  0.00    +0.100 C 
ATOM     19  H   UNL     1      33.795 -21.579 -18.495  0.00  0.00    +0.154 HD
ENDBRANCH   6  12
ENDBRANCH   3   7
BRANCH   2  20
ATOM     20  C   UNL     1      32.530 -12.243 -23.732  0.00  0.00    +0.073 C 
BRANCH  20  21
ATOM     21  C   UNL     1      32.011 -11.547 -22.489  0.00  0.00    -0.007 C 
ATOM     22  C   UNL     1      31.435 -10.281 -22.587  0.00  0.00    -0.003 C 
ATOM     23  C   UNL     1      32.112 -12.173 -21.246  0.00  0.00    -0.003 C 
ATOM     24  C   UNL     1      30.958  -9.641 -21.444  0.00  0.00    -0.000 C 
ATOM     25  C   UNL     1      31.636 -11.533 -20.102  0.00  0.00    -0.000 C 
ATOM     26  C   UNL     1      31.058 -10.267 -20.201  0.00  0.00    -0.000 C 
ENDBRANCH  20  21
BRANCH  20  27
ATOM     27  C   UNL     1      33.705 -11.476 -24.359  0.00  0.00    -0.062 C 
BRANCH  27  28
ATOM     28  N   UNL     1      34.085 -10.329 -23.536  0.00  0.00    +0.382 N 
ATOM     29  H   UNL     1      33.276  -9.720 -23.408  0.00  0.00    -0.089 HD
ATOM     30  H   UNL     1      34.830  -9.809 -24.000  0.00  0.00    -0.089 HD
ATOM     31  H   UNL     1      34.412 -10.656 -22.627  0.00  0.00    -0.089 HD
ENDBRANCH  27  28
ENDBRANCH  20  27
ENDBRANCH   2  20
TORSDOF 6
ENDMDL
MODEL 7
REMARK VINA RESULT:      -9.5      4.225      7.185
REMARK  Name = 24963048
REMARK  6 active torsions:
REMARK  status: ('A' for Active; 'I' for Inactive)
REMARK    1  A    between atoms: N_2  and  C_20
REMARK    2  A    between atoms: C_3  and  C_7
REMARK    3  A    between atoms: C_6  and  C_12
REMARK    4  A    between atoms: C_20  and  C_21
REMARK    5  A    between atoms: C_20  and  C_27
REMARK    6  A    between atoms: C_27  and  N_28
REMARK                            x       y       z     vdW  Elec       q    Type
REMARK                         _______ _______ _______ _____ _____    ______ ____
ROOT
ATOM      1  O   UNL     1      34.860 -14.932 -24.146  0.00  0.00    -0.270 OA
ATOM      2  N   UNL     1      33.996 -16.314 -22.499  0.00  0.00    -0.300 N 
ATOM      3  C   UNL     1      34.167 -15.048 -23.104  0.00  0.00    +0.252 C 
ATOM      4  H   UNL     1      33.446 -16.365 -21.684  0.00  0.00    +0.150 HD
ENDROOT
BRANCH   3   7
ATOM      5  S   UNL     1      33.116 -12.578 -23.487  0.00  0.00    -0.082 S 
ATOM      6  C   UNL     1      32.429 -11.748 -22.157  0.00  0.00    +0.030 C 
ATOM      7  C   UNL     1      33.514 -13.927 -22.509  0.00  0.00    +0.083 C 
ATOM      8  C   UNL     1      32.502 -12.484 -20.994  0.00  0.00    +0.007 C 
ATOM      9  C   UNL     1      33.130 -13.746 -21.199  0.00  0.00    +0.012 C 
BRANCH   6  12
ATOM     10  N   UNL     1      33.040  -7.344 -23.634  0.00  0.00    -0.297 N 
ATOM     11  N   UNL     1      30.830  -7.818 -22.802  0.00  0.00    -0.229 NA
ATOM     12  C   UNL     1      31.874 -10.440 -22.366  0.00  0.00    +0.010 C 
ATOM     13  C   UNL     1      32.677  -9.426 -22.912  0.00  0.00    +0.033 C 
ATOM     14  C   UNL     1      32.094  -8.175 -23.095  0.00  0.00    +0.132 C 
ATOM     15  C   UNL     1      34.020  -9.323 -23.363  0.00  0.00    +0.019 C 
ATOM     16  C   UNL     1      30.556 -10.124 -22.044  0.00  0.00    +0.021 C 
ATOM     17  C   UNL     1      34.215  -8.031 -23.801  0.00  0.00    +0.063 C 
ATOM     18  C   UNL     1      30.103  -8.832 -22.278  0.00  0.00    +0.100 C 
ATOM     19  H   UNL     1      32.898  -6.397 -23.866  0.00  0.00    +0.154 HD
ENDBRANCH   6  12
ENDBRANCH   3   7
BRANCH   2  20
ATOM     20  C   UNL     1      34.576 -17.532 -22.995  0.00  0.00    +0.073 C 
BRANCH  20  21
ATOM     21  C   UNL     1      34.871 -18.485 -21.854  0.00  0.00    -0.007 C 
ATOM     22  C   UNL     1      33.880 -19.351 -21.394  0.00  0.00    -0.003 C 
ATOM     23  C   UNL     1      36.134 -18.494 -21.262  0.00  0.00    -0.003 C 
ATOM     24  C   UNL     1      34.151 -20.228 -20.344  0.00  0.00    -0.000 C 
ATOM     25  C   UNL     1      36.406 -19.370 -20.212  0.00  0.00    -0.000 C 
ATOM     26  C   UNL     1      35.415 -20.237 -19.753  0.00  0.00    -0.000 C 
ENDBRANCH  20  21
BRANCH  20  27
ATOM     27  C   UNL     1      33.685 -18.189 -24.063  0.00  0.00    -0.062 C 
BRANCH  27  28
ATOM     28  N   UNL     1      32.760 -17.218 -24.645  0.00  0.00    +0.382 N 
ATOM     29  H   UNL     1      32.730 -16.383 -24.060  0.00  0.00    -0.089 HD
ATOM     30  H   UNL     1      31.827 -17.628 -24.699  0.00  0.00    -0.089 HD
ATOM     31  H   UNL     1      33.076 -16.967 -25.582  0.00  0.00    -0.089 HD
ENDBRANCH  27  28
ENDBRANCH  20  27
ENDBRANCH   2  20
TORSDOF 6
ENDMDL
MODEL 8
REMARK VINA RESULT:      -9.5      6.281     10.187
REMARK  Name = 24963048
REMARK  6 active torsions:
REMARK  status: ('A' for Active; 'I' for Inactive)
REMARK    1  A    between atoms: N_2  and  C_20
REMARK    2  A    between atoms: C_3  and  C_7
REMARK    3  A    between atoms: C_6  and  C_12
REMARK    4  A    between atoms: C_20  and  C_21
REMARK    5  A    between atoms: C_20  and  C_27
REMARK    6  A    between atoms: C_27  and  N_28
REMARK                            x       y       z     vdW  Elec       q    Type
REMARK                         _______ _______ _______ _____ _____    ______ ____
ROOT
ATOM      1  O   UNL     1      33.683 -11.501 -24.548  0.00  0.00    -0.270 OA
ATOM      2  N   UNL     1      33.093 -13.226 -23.118  0.00  0.00    -0.300 N 
ATOM      3  C   UNL     1      33.077 -11.868 -23.510  0.00  0.00    +0.252 C 
ATOM      4  H   UNL     1      32.607 -13.475 -22.299  0.00  0.00    +0.150 HD
ENDROOT
BRANCH   3   7
ATOM      5  S   UNL     1      32.692  -9.274 -22.822  0.00  0.00    -0.082 S 
ATOM      6  C   UNL     1      31.497  -8.887 -21.658  0.00  0.00    +0.030 C 
ATOM      7  C   UNL     1      32.341 -10.947 -22.706  0.00  0.00    +0.083 C 
ATOM      8  C   UNL     1      30.847 -10.009 -21.193  0.00  0.00    +0.007 C 
ATOM      9  C   UNL     1      31.336 -11.202 -21.800  0.00  0.00    +0.012 C 
BRANCH   6  12
ATOM     10  N   UNL     1      30.248  -4.563 -22.957  0.00  0.00    -0.297 N 
ATOM     11  N   UNL     1      30.886  -4.763 -20.643  0.00  0.00    -0.229 NA
ATOM     12  C   UNL     1      31.298  -7.512 -21.298  0.00  0.00    +0.010 C 
ATOM     13  C   UNL     1      30.856  -6.598 -22.268  0.00  0.00    +0.033 C 
ATOM     14  C   UNL     1      30.679  -5.276 -21.870  0.00  0.00    +0.132 C 
ATOM     15  C   UNL     1      30.516  -6.661 -23.645  0.00  0.00    +0.019 C 
ATOM     16  C   UNL     1      31.528  -7.033 -20.009  0.00  0.00    +0.021 C 
ATOM     17  C   UNL     1      30.146  -5.395 -24.042  0.00  0.00    +0.063 C 
ATOM     18  C   UNL     1      31.311  -5.686 -19.749  0.00  0.00    +0.100 C 
ATOM     19  H   UNL     1      30.043  -3.599 -22.959  0.00  0.00    +0.154 HD
ENDBRANCH   6  12
ENDBRANCH   3   7
BRANCH   2  20
ATOM     20  C   UNL     1      33.774 -14.268 -23.836  0.00  0.00    +0.073 C 
BRANCH  20  21
ATOM     21  C   UNL     1      34.152 -15.400 -22.903  0.00  0.00    -0.007 C 
ATOM     22  C   UNL     1      34.143 -15.199 -21.523  0.00  0.00    -0.003 C 
ATOM     23  C   UNL     1      34.509 -16.644 -23.424  0.00  0.00    -0.003 C 
ATOM     24  C   UNL     1      34.491 -16.241 -20.663  0.00  0.00    -0.000 C 
ATOM     25  C   UNL     1      34.858 -17.686 -22.565  0.00  0.00    -0.000 C 
ATOM     26  C   UNL     1      34.848 -17.484 -21.185  0.00  0.00    -0.000 C 
ENDBRANCH  20  21
BRANCH  20  27
ATOM     27  C   UNL     1      32.941 -14.771 -25.027  0.00  0.00    -0.062 C 
BRANCH  27  28
ATOM     28  N   UNL     1      32.722 -13.706 -26.004  0.00  0.00    +0.382 N 
ATOM     29  H   UNL     1      31.892 -13.919 -26.558  0.00  0.00    -0.089 HD
ATOM     30  H   UNL     1      33.532 -13.638 -26.620  0.00  0.00    -0.089 HD
ATOM     31  H   UNL     1      32.589 -12.820 -25.516  0.00  0.00    -0.089 HD
ENDBRANCH  27  28
ENDBRANCH  20  27
ENDBRANCH   2  20
TORSDOF 6
ENDMDL
MODEL 9
REMARK VINA RESULT:      -9.4      4.570      7.604
REMARK  Name = 24963048
REMARK  6 active torsions:
REMARK  status: ('A' for Active; 'I' for Inactive)
REMARK    1  A    between atoms: N_2  and  C_20
REMARK    2  A    between atoms: C_3  and  C_7
REMARK    3  A    between atoms: C_6  and  C_12
REMARK    4  A    between atoms: C_20  and  C_21
REMARK    5  A    between atoms: C_20  and  C_27
REMARK    6  A    between atoms: C_27  and  N_28
REMARK                            x       y       z     vdW  Elec       q    Type
REMARK                         _______ _______ _______ _____ _____    ______ ____
ROOT
ATOM      1  O   UNL     1      33.810 -14.577 -24.793  0.00  0.00    -0.270 OA
ATOM      2  N   UNL     1      33.837 -15.793 -22.821  0.00  0.00    -0.300 N 
ATOM      3  C   UNL     1      33.553 -14.625 -23.563  0.00  0.00    +0.252 C 
ATOM      4  H   UNL     1      33.621 -15.793 -21.860  0.00  0.00    +0.150 HD
ENDROOT
BRANCH   3   7
ATOM      5  S   UNL     1      32.971 -11.978 -23.613  0.00  0.00    -0.082 S 
ATOM      6  C   UNL     1      32.138 -11.281 -22.290  0.00  0.00    +0.030 C 
ATOM      7  C   UNL     1      32.953 -13.526 -22.880  0.00  0.00    +0.083 C 
ATOM      8  C   UNL     1      31.853 -12.209 -21.312  0.00  0.00    +0.007 C 
ATOM      9  C   UNL     1      32.325 -13.509 -21.654  0.00  0.00    +0.012 C 
BRANCH   6  12
ATOM     10  N   UNL     1      31.079  -7.373 -19.932  0.00  0.00    -0.297 N 
ATOM     11  N   UNL     1      31.219  -7.089 -22.319  0.00  0.00    -0.229 NA
ATOM     12  C   UNL     1      31.833  -9.878 -22.321  0.00  0.00    +0.010 C 
ATOM     13  C   UNL     1      31.580  -9.196 -21.120  0.00  0.00    +0.033 C 
ATOM     14  C   UNL     1      31.289  -7.837 -21.203  0.00  0.00    +0.132 C 
ATOM     15  C   UNL     1      31.538  -9.542 -19.744  0.00  0.00    +0.019 C 
ATOM     16  C   UNL     1      31.774  -9.150 -23.508  0.00  0.00    +0.021 C 
ATOM     17  C   UNL     1      31.227  -8.401 -19.036  0.00  0.00    +0.063 C 
ATOM     18  C   UNL     1      31.471  -7.796 -23.446  0.00  0.00    +0.100 C 
ATOM     19  H   UNL     1      30.855  -6.443 -19.697  0.00  0.00    +0.154 HD
ENDBRANCH   6  12
ENDBRANCH   3   7
BRANCH   2  20
ATOM     20  C   UNL     1      34.422 -16.983 -23.376  0.00  0.00    +0.073 C 
BRANCH  20  21
ATOM     21  C   UNL     1      34.871 -17.921 -22.274  0.00  0.00    -0.007 C 
ATOM     22  C   UNL     1      36.211 -17.957 -21.891  0.00  0.00    -0.003 C 
ATOM     23  C   UNL     1      33.943 -18.751 -21.643  0.00  0.00    -0.003 C 
ATOM     24  C   UNL     1      36.624 -18.821 -20.877  0.00  0.00    -0.000 C 
ATOM     25  C   UNL     1      34.355 -19.615 -20.629  0.00  0.00    -0.000 C 
ATOM     26  C   UNL     1      35.696 -19.649 -20.246  0.00  0.00    -0.000 C 
ENDBRANCH  20  21
BRANCH  20  27
ATOM     27  C   UNL     1      33.464 -17.680 -24.356  0.00  0.00    -0.062 C 
BRANCH  27  28
ATOM     28  N   UNL     1      33.848 -19.075 -24.565  0.00  0.00    +0.382 N 
ATOM     29  H   UNL     1      34.821 -19.205 -24.286  0.00  0.00    -0.089 HD
ATOM     30  H   UNL     1      33.744 -19.312 -25.552  0.00  0.00    -0.089 HD
ATOM     31  H   UNL     1      33.249 -19.681 -24.004  0.00  0.00    -0.089 HD
ENDBRANCH  27  28
ENDBRANCH  20  27
ENDBRANCH   2  20
TORSDOF 6
ENDMDL
