MODEL 1
REMARK VINA RESULT:     -13.3      0.000      0.000
REMARK  Name = 23729147
REMARK  5 active torsions:
REMARK  status: ('A' for Active; 'I' for Inactive)
REMARK    1  A    between atoms: O_1  and  C_6
REMARK    2  A    between atoms: O_1  and  C_18
REMARK    3  A    between atoms: C_18  and  C_20
REMARK    4  A    between atoms: N_19  and  C_26
REMARK    5  A    between atoms: C_26  and  C_28
REMARK                            x       y       z     vdW  Elec       q    Type
REMARK                         _______ _______ _______ _____ _____    ______ ____
ROOT
ATOM      1  O   UNL     1      34.597 -22.048 -17.672  0.00  0.00    -0.479 OA
ENDROOT
BRANCH   1   6
ATOM      2  N   UNL     1      35.342 -23.299 -13.050  0.00  0.00    -0.332 NA
ATOM      3  N   UNL     1      37.236 -22.596 -14.364  0.00  0.00    -0.317 NA
ATOM      4  N   UNL     1      36.998 -21.971 -16.599  0.00  0.00    -0.335 N 
ATOM      5  N   UNL     1      37.494 -23.220 -12.121  0.00  0.00    -0.283 N 
ATOM      6  C   UNL     1      34.170 -22.483 -16.441  0.00  0.00    +0.130 C 
ATOM      7  C   UNL     1      35.027 -22.669 -15.343  0.00  0.00    +0.177 C 
ATOM      8  C   UNL     1      32.809 -22.745 -16.314  0.00  0.00    +0.033 C 
ATOM      9  C   UNL     1      34.531 -23.118 -14.108  0.00  0.00    +0.137 C 
ATOM     10  C   UNL     1      36.396 -22.425 -15.403  0.00  0.00    +0.181 C 
ATOM     11  C   UNL     1      32.307 -23.190 -15.097  0.00  0.00    +0.005 C 
ATOM     12  C   UNL     1      33.166 -23.372 -14.009  0.00  0.00    +0.030 C 
ATOM     13  C   UNL     1      36.650 -23.028 -13.236  0.00  0.00    +0.197 C 
ATOM     14  H   UNL     1      37.968 -21.802 -16.629  0.00  0.00    +0.144 HD
ATOM     15  H   UNL     1      36.448 -21.822 -17.402  0.00  0.00    +0.144 HD
ATOM     16  H   UNL     1      37.120 -23.536 -11.268  0.00  0.00    +0.156 HD
ATOM     17  H   UNL     1      38.459 -23.037 -12.197  0.00  0.00    +0.156 HD
ENDBRANCH   1   6
BRANCH   1  18
ATOM     18  C   UNL     1      33.645 -22.046 -18.719  0.00  0.00    +0.205 C 
BRANCH  18  20
ATOM     19  N   UNL     1      34.906 -18.536 -20.898  0.00  0.00    +0.390 N 
ATOM     20  C   UNL     1      34.175 -21.177 -19.856  0.00  0.00    +0.040 C 
ATOM     21  C   UNL     1      35.464 -20.458 -19.445  0.00  0.00    -0.019 C 
ATOM     22  C   UNL     1      33.129 -20.150 -20.298  0.00  0.00    -0.019 C 
ATOM     23  C   UNL     1      35.948 -19.509 -20.543  0.00  0.00    -0.077 C 
ATOM     24  C   UNL     1      33.689 -19.210 -21.369  0.00  0.00    -0.077 C 
ATOM     25  H   UNL     1      34.668 -18.009 -20.058  0.00  0.00    -0.079 HD
BRANCH  19  26
ATOM     26  C   UNL     1      35.400 -17.604 -21.911  0.00  0.00    -0.048 C 
BRANCH  26  28
ATOM     27  F   UNL     1      34.685 -16.134 -24.227  0.00  0.00    -0.205 F 
ATOM     28  C   UNL     1      34.679 -16.283 -21.857  0.00  0.00    -0.016 C 
ATOM     29  C   UNL     1      34.358 -15.612 -23.038  0.00  0.00    +0.134 C 
ATOM     30  C   UNL     1      34.335 -15.731 -20.625  0.00  0.00    -0.004 C 
ATOM     31  C   UNL     1      33.691 -14.387 -22.983  0.00  0.00    +0.029 C 
ATOM     32  C   UNL     1      33.667 -14.507 -20.570  0.00  0.00    -0.000 C 
ATOM     33  C   UNL     1      33.346 -13.835 -21.750  0.00  0.00    +0.002 C 
ENDBRANCH  26  28
ENDBRANCH  19  26
ENDBRANCH  18  20
ENDBRANCH   1  18
TORSDOF 5
ENDMDL
MODEL 2
REMARK VINA RESULT:     -13.2      2.145      3.100
REMARK  Name = 23729147
REMARK  5 active torsions:
REMARK  status: ('A' for Active; 'I' for Inactive)
REMARK    1  A    between atoms: O_1  and  C_6
REMARK    2  A    between atoms: O_1  and  C_18
REMARK    3  A    between atoms: C_18  and  C_20
REMARK    4  A    between atoms: N_19  and  C_26
REMARK    5  A    between atoms: C_26  and  C_28
REMARK                            x       y       z     vdW  Elec       q    Type
REMARK                         _______ _______ _______ _____ _____    ______ ____
ROOT
ATOM      1  O   UNL     1      34.587 -21.518 -18.469  0.00  0.00    -0.479 OA
ENDROOT
BRANCH   1   6
ATOM      2  N   UNL     1      32.203 -23.370 -14.678  0.00  0.00    -0.332 NA
ATOM      3  N   UNL     1      30.933 -22.715 -16.619  0.00  0.00    -0.317 NA
ATOM      4  N   UNL     1      31.972 -21.812 -18.502  0.00  0.00    -0.335 N 
ATOM      5  N   UNL     1      29.872 -23.621 -14.737  0.00  0.00    -0.283 N 
ATOM      6  C   UNL     1      34.531 -22.050 -17.204  0.00  0.00    +0.130 C 
ATOM      7  C   UNL     1      33.336 -22.448 -16.581  0.00  0.00    +0.177 C 
ATOM      8  C   UNL     1      35.743 -22.186 -16.534  0.00  0.00    +0.033 C 
ATOM      9  C   UNL     1      33.341 -22.985 -15.283  0.00  0.00    +0.137 C 
ATOM     10  C   UNL     1      32.091 -22.341 -17.196  0.00  0.00    +0.181 C 
ATOM     11  C   UNL     1      35.761 -22.715 -15.249  0.00  0.00    +0.005 C 
ATOM     12  C   UNL     1      34.567 -23.110 -14.637  0.00  0.00    +0.030 C 
ATOM     13  C   UNL     1      31.061 -23.214 -15.379  0.00  0.00    +0.197 C 
ATOM     14  H   UNL     1      31.087 -21.741 -18.926  0.00  0.00    +0.144 HD
ATOM     15  H   UNL     1      32.776 -21.517 -18.989  0.00  0.00    +0.144 HD
ATOM     16  H   UNL     1      29.906 -23.994 -13.827  0.00  0.00    +0.156 HD
ATOM     17  H   UNL     1      29.007 -23.532 -15.201  0.00  0.00    +0.156 HD
ENDBRANCH   1   6
BRANCH   1  18
ATOM     18  C   UNL     1      35.829 -20.984 -18.887  0.00  0.00    +0.205 C 
BRANCH  18  20
ATOM     19  N   UNL     1      34.826 -17.855 -21.691  0.00  0.00    +0.390 N 
ATOM     20  C   UNL     1      35.624 -20.259 -20.214  0.00  0.00    +0.040 C 
ATOM     21  C   UNL     1      36.516 -19.016 -20.308  0.00  0.00    -0.019 C 
ATOM     22  C   UNL     1      34.157 -19.857 -20.401  0.00  0.00    -0.019 C 
ATOM     23  C   UNL     1      36.243 -18.229 -21.591  0.00  0.00    -0.077 C 
ATOM     24  C   UNL     1      33.962 -19.042 -21.682  0.00  0.00    -0.077 C 
ATOM     25  H   UNL     1      34.592 -17.289 -20.875  0.00  0.00    -0.079 HD
BRANCH  19  26
ATOM     26  C   UNL     1      34.591 -17.060 -22.896  0.00  0.00    -0.048 C 
BRANCH  26  28
ATOM     27  F   UNL     1      33.980 -15.121 -24.872  0.00  0.00    -0.205 F 
ATOM     28  C   UNL     1      34.211 -15.641 -22.567  0.00  0.00    -0.016 C 
ATOM     29  C   UNL     1      33.923 -14.737 -23.590  0.00  0.00    +0.134 C 
ATOM     30  C   UNL     1      34.149 -15.231 -21.236  0.00  0.00    -0.004 C 
ATOM     31  C   UNL     1      33.573 -13.422 -23.280  0.00  0.00    +0.029 C 
ATOM     32  C   UNL     1      33.798 -13.917 -20.926  0.00  0.00    -0.000 C 
ATOM     33  C   UNL     1      33.511 -13.012 -21.948  0.00  0.00    +0.002 C 
ENDBRANCH  26  28
ENDBRANCH  19  26
ENDBRANCH  18  20
ENDBRANCH   1  18
TORSDOF 5
ENDMDL
MODEL 3
REMARK VINA RESULT:     -13.0      3.528     10.036
REMARK  Name = 23729147
REMARK  5 active torsions:
REMARK  status: ('A' for Active; 'I' for Inactive)
REMARK    1  A    between atoms: O_1  and  C_6
REMARK    2  A    between atoms: O_1  and  C_18
REMARK    3  A    between atoms: C_18  and  C_20
REMARK    4  A    between atoms: N_19  and  C_26
REMARK    5  A    between atoms: C_26  and  C_28
REMARK                            x       y       z     vdW  Elec       q    Type
REMARK                         _______ _______ _______ _____ _____    ______ ____
ROOT
ATOM      1  O   UNL     1      34.432 -17.311 -22.223  0.00  0.00    -0.479 OA
ENDROOT
BRANCH   1   6
ATOM      2  N   UNL     1      33.029 -13.038 -24.028  0.00  0.00    -0.332 NA
ATOM      3  N   UNL     1      33.210 -14.912 -25.533  0.00  0.00    -0.317 NA
ATOM      4  N   UNL     1      33.876 -17.016 -24.778  0.00  0.00    -0.335 N 
ATOM      5  N   UNL     1      32.540 -12.806 -26.310  0.00  0.00    -0.283 N 
ATOM      6  C   UNL     1      34.122 -15.978 -22.104  0.00  0.00    +0.130 C 
ATOM      7  C   UNL     1      33.719 -15.175 -23.184  0.00  0.00    +0.177 C 
ATOM      8  C   UNL     1      34.226 -15.429 -20.829  0.00  0.00    +0.033 C 
ATOM      9  C   UNL     1      33.416 -13.816 -23.001  0.00  0.00    +0.137 C 
ATOM     10  C   UNL     1      33.595 -15.662 -24.483  0.00  0.00    +0.181 C 
ATOM     11  C   UNL     1      33.929 -14.085 -20.636  0.00  0.00    +0.005 C 
ATOM     12  C   UNL     1      33.528 -13.293 -21.716  0.00  0.00    +0.030 C 
ATOM     13  C   UNL     1      32.947 -13.629 -25.238  0.00  0.00    +0.197 C 
ATOM     14  H   UNL     1      33.784 -17.348 -25.700  0.00  0.00    +0.144 HD
ATOM     15  H   UNL     1      34.163 -17.627 -24.061  0.00  0.00    +0.144 HD
ATOM     16  H   UNL     1      32.334 -11.857 -26.152  0.00  0.00    +0.156 HD
ATOM     17  H   UNL     1      32.461 -13.182 -27.217  0.00  0.00    +0.156 HD
ENDBRANCH   1   6
BRANCH   1  18
ATOM     18  C   UNL     1      35.327 -17.851 -21.268  0.00  0.00    +0.205 C 
BRANCH  18  20
ATOM     19  N   UNL     1      33.876 -21.258 -19.044  0.00  0.00    +0.390 N 
ATOM     20  C   UNL     1      34.896 -19.281 -20.954  0.00  0.00    +0.040 C 
ATOM     21  C   UNL     1      33.424 -19.333 -20.531  0.00  0.00    -0.019 C 
ATOM     22  C   UNL     1      35.772 -19.890 -19.854  0.00  0.00    -0.019 C 
ATOM     23  C   UNL     1      33.013 -20.748 -20.118  0.00  0.00    -0.077 C 
ATOM     24  C   UNL     1      35.283 -21.287 -19.463  0.00  0.00    -0.077 C 
ATOM     25  H   UNL     1      33.797 -20.623 -18.250  0.00  0.00    -0.079 HD
BRANCH  19  26
ATOM     26  C   UNL     1      33.438 -22.589 -18.626  0.00  0.00    -0.048 C 
BRANCH  26  28
ATOM     27  F   UNL     1      35.265 -22.627 -16.459  0.00  0.00    -0.205 F 
ATOM     28  C   UNL     1      33.004 -22.609 -17.184  0.00  0.00    -0.016 C 
ATOM     29  C   UNL     1      33.958 -22.627 -16.166  0.00  0.00    +0.134 C 
ATOM     30  C   UNL     1      31.646 -22.610 -16.868  0.00  0.00    -0.004 C 
ATOM     31  C   UNL     1      33.551 -22.647 -14.831  0.00  0.00    +0.029 C 
ATOM     32  C   UNL     1      31.240 -22.629 -15.534  0.00  0.00    -0.000 C 
ATOM     33  C   UNL     1      32.193 -22.649 -14.515  0.00  0.00    +0.002 C 
ENDBRANCH  26  28
ENDBRANCH  19  26
ENDBRANCH  18  20
ENDBRANCH   1  18
TORSDOF 5
ENDMDL
MODEL 4
REMARK VINA RESULT:     -12.7      0.907      1.307
REMARK  Name = 23729147
REMARK  5 active torsions:
REMARK  status: ('A' for Active; 'I' for Inactive)
REMARK    1  A    between atoms: O_1  and  C_6
REMARK    2  A    between atoms: O_1  and  C_18
REMARK    3  A    between atoms: C_18  and  C_20
REMARK    4  A    between atoms: N_19  and  C_26
REMARK    5  A    between atoms: C_26  and  C_28
REMARK                            x       y       z     vdW  Elec       q    Type
REMARK                         _______ _______ _______ _____ _____    ______ ____
ROOT
ATOM      1  O   UNL     1      34.478 -22.172 -17.498  0.00  0.00    -0.479 OA
ENDROOT
BRANCH   1   6
ATOM      2  N   UNL     1      35.404 -23.425 -12.909  0.00  0.00    -0.332 NA
ATOM      3  N   UNL     1      37.243 -22.708 -14.292  0.00  0.00    -0.317 NA
ATOM      4  N   UNL     1      36.918 -22.081 -16.515  0.00  0.00    -0.335 N 
ATOM      5  N   UNL     1      37.589 -23.334 -12.061  0.00  0.00    -0.283 N 
ATOM      6  C   UNL     1      34.100 -22.612 -16.252  0.00  0.00    +0.130 C 
ATOM      7  C   UNL     1      34.999 -22.794 -15.187  0.00  0.00    +0.177 C 
ATOM      8  C   UNL     1      32.747 -22.882 -16.075  0.00  0.00    +0.033 C 
ATOM      9  C   UNL     1      34.553 -23.248 -13.935  0.00  0.00    +0.137 C 
ATOM     10  C   UNL     1      36.364 -22.541 -15.298  0.00  0.00    +0.181 C 
ATOM     11  C   UNL     1      32.294 -23.332 -14.840  0.00  0.00    +0.005 C 
ATOM     12  C   UNL     1      33.194 -23.510 -13.786  0.00  0.00    +0.030 C 
ATOM     13  C   UNL     1      36.703 -23.145 -13.143  0.00  0.00    +0.197 C 
ATOM     14  H   UNL     1      37.884 -21.906 -16.581  0.00  0.00    +0.144 HD
ATOM     15  H   UNL     1      36.337 -21.935 -17.297  0.00  0.00    +0.144 HD
ATOM     16  H   UNL     1      37.249 -23.653 -11.195  0.00  0.00    +0.156 HD
ATOM     17  H   UNL     1      38.549 -23.145 -12.173  0.00  0.00    +0.156 HD
ENDBRANCH   1   6
BRANCH   1  18
ATOM     18  C   UNL     1      33.443 -21.838 -18.403  0.00  0.00    +0.205 C 
BRANCH  18  20
ATOM     19  N   UNL     1      35.019 -18.746 -20.974  0.00  0.00    +0.390 N 
ATOM     20  C   UNL     1      34.064 -21.167 -19.625  0.00  0.00    +0.040 C 
ATOM     21  C   UNL     1      35.395 -20.497 -19.269  0.00  0.00    -0.019 C 
ATOM     22  C   UNL     1      33.110 -20.132 -20.229  0.00  0.00    -0.019 C 
ATOM     23  C   UNL     1      35.975 -19.738 -20.463  0.00  0.00    -0.077 C 
ATOM     24  C   UNL     1      33.764 -19.384 -21.393  0.00  0.00    -0.077 C 
ATOM     25  H   UNL     1      34.804 -18.097 -20.217  0.00  0.00    -0.079 HD
BRANCH  19  26
ATOM     26  C   UNL     1      35.606 -17.993 -22.083  0.00  0.00    -0.048 C 
BRANCH  26  28
ATOM     27  F   UNL     1      34.758 -16.188 -20.068  0.00  0.00    -0.205 F 
ATOM     28  C   UNL     1      34.833 -16.735 -22.378  0.00  0.00    -0.016 C 
ATOM     29  C   UNL     1      34.446 -15.890 -21.337  0.00  0.00    +0.134 C 
ATOM     30  C   UNL     1      34.503 -16.417 -23.694  0.00  0.00    -0.004 C 
ATOM     31  C   UNL     1      33.728 -14.726 -21.615  0.00  0.00    +0.029 C 
ATOM     32  C   UNL     1      33.786 -15.253 -23.972  0.00  0.00    -0.000 C 
ATOM     33  C   UNL     1      33.398 -14.408 -22.932  0.00  0.00    +0.002 C 
ENDBRANCH  26  28
ENDBRANCH  19  26
ENDBRANCH  18  20
ENDBRANCH   1  18
TORSDOF 5
ENDMDL
MODEL 5
REMARK VINA RESULT:     -12.4      1.423      1.865
REMARK  Name = 23729147
REMARK  5 active torsions:
REMARK  status: ('A' for Active; 'I' for Inactive)
REMARK    1  A    between atoms: O_1  and  C_6
REMARK    2  A    between atoms: O_1  and  C_18
REMARK    3  A    between atoms: C_18  and  C_20
REMARK    4  A    between atoms: N_19  and  C_26
REMARK    5  A    between atoms: C_26  and  C_28
REMARK                            x       y       z     vdW  Elec       q    Type
REMARK                         _______ _______ _______ _____ _____    ______ ____
ROOT
ATOM      1  O   UNL     1      33.478 -22.472 -16.906  0.00  0.00    -0.479 OA
ENDROOT
BRANCH   1   6
ATOM      2  N   UNL     1      33.482 -23.867 -12.265  0.00  0.00    -0.332 NA
ATOM      3  N   UNL     1      35.602 -23.545 -13.365  0.00  0.00    -0.317 NA
ATOM      4  N   UNL     1      35.724 -22.875 -15.596  0.00  0.00    -0.335 N 
ATOM      5  N   UNL     1      35.501 -24.219 -11.124  0.00  0.00    -0.283 N 
ATOM      6  C   UNL     1      32.848 -22.820 -15.735  0.00  0.00    +0.130 C 
ATOM      7  C   UNL     1      33.534 -23.177 -14.562  0.00  0.00    +0.177 C 
ATOM      8  C   UNL     1      31.457 -22.808 -15.752  0.00  0.00    +0.033 C 
ATOM      9  C   UNL     1      32.836 -23.525 -13.394  0.00  0.00    +0.137 C 
ATOM     10  C   UNL     1      34.924 -23.207 -14.478  0.00  0.00    +0.181 C 
ATOM     11  C   UNL     1      30.755 -23.152 -14.603  0.00  0.00    +0.005 C 
ATOM     12  C   UNL     1      31.445 -23.505 -13.439  0.00  0.00    +0.030 C 
ATOM     13  C   UNL     1      34.830 -23.859 -12.312  0.00  0.00    +0.197 C 
ATOM     14  H   UNL     1      36.705 -22.901 -15.524  0.00  0.00    +0.144 HD
ATOM     15  H   UNL     1      35.299 -22.617 -16.446  0.00  0.00    +0.144 HD
ATOM     16  H   UNL     1      34.985 -24.459 -10.321  0.00  0.00    +0.156 HD
ATOM     17  H   UNL     1      36.485 -24.230 -11.098  0.00  0.00    +0.156 HD
ENDBRANCH   1   6
BRANCH   1  18
ATOM     18  C   UNL     1      32.652 -22.204 -18.024  0.00  0.00    +0.205 C 
BRANCH  18  20
ATOM     19  N   UNL     1      35.093 -19.421 -20.251  0.00  0.00    +0.390 N 
ATOM     20  C   UNL     1      33.520 -21.633 -19.142  0.00  0.00    +0.040 C 
ATOM     21  C   UNL     1      34.919 -21.280 -18.629  0.00  0.00    -0.019 C 
ATOM     22  C   UNL     1      32.870 -20.393 -19.765  0.00  0.00    -0.019 C 
ATOM     23  C   UNL     1      35.762 -20.615 -19.719  0.00  0.00    -0.077 C 
ATOM     24  C   UNL     1      33.780 -19.757 -20.818  0.00  0.00    -0.077 C 
ATOM     25  H   UNL     1      34.944 -18.773 -19.477  0.00  0.00    -0.079 HD
BRANCH  19  26
ATOM     26  C   UNL     1      35.933 -18.768 -21.255  0.00  0.00    -0.048 C 
BRANCH  26  28
ATOM     27  F   UNL     1      34.791 -19.307 -23.793  0.00  0.00    -0.205 F 
ATOM     28  C   UNL     1      35.166 -17.743 -22.047  0.00  0.00    -0.016 C 
ATOM     29  C   UNL     1      34.630 -18.076 -23.291  0.00  0.00    +0.134 C 
ATOM     30  C   UNL     1      34.992 -16.458 -21.534  0.00  0.00    -0.004 C 
ATOM     31  C   UNL     1      33.921 -17.122 -24.023  0.00  0.00    +0.029 C 
ATOM     32  C   UNL     1      34.283 -15.505 -22.265  0.00  0.00    -0.000 C 
ATOM     33  C   UNL     1      33.748 -15.836 -23.509  0.00  0.00    +0.002 C 
ENDBRANCH  26  28
ENDBRANCH  19  26
ENDBRANCH  18  20
ENDBRANCH   1  18
TORSDOF 5
ENDMDL
MODEL 6
REMARK VINA RESULT:     -12.1      3.532      9.773
REMARK  Name = 23729147
REMARK  5 active torsions:
REMARK  status: ('A' for Active; 'I' for Inactive)
REMARK    1  A    between atoms: O_1  and  C_6
REMARK    2  A    between atoms: O_1  and  C_18
REMARK    3  A    between atoms: C_18  and  C_20
REMARK    4  A    between atoms: N_19  and  C_26
REMARK    5  A    between atoms: C_26  and  C_28
REMARK                            x       y       z     vdW  Elec       q    Type
REMARK                         _______ _______ _______ _____ _____    ______ ____
ROOT
ATOM      1  O   UNL     1      34.569 -16.931 -21.215  0.00  0.00    -0.479 OA
ENDROOT
BRANCH   1   6
ATOM      2  N   UNL     1      32.995 -13.176 -23.842  0.00  0.00    -0.332 NA
ATOM      3  N   UNL     1      33.210 -12.894 -21.458  0.00  0.00    -0.317 NA
ATOM      4  N   UNL     1      33.957 -14.631 -20.093  0.00  0.00    -0.335 N 
ATOM      5  N   UNL     1      32.457 -11.138 -22.814  0.00  0.00    -0.283 N 
ATOM      6  C   UNL     1      34.221 -16.332 -22.401  0.00  0.00    +0.130 C 
ATOM      7  C   UNL     1      33.771 -15.004 -22.497  0.00  0.00    +0.177 C 
ATOM      8  C   UNL     1      34.331 -17.114 -23.546  0.00  0.00    +0.033 C 
ATOM      9  C   UNL     1      33.427 -14.446 -23.739  0.00  0.00    +0.137 C 
ATOM     10  C   UNL     1      33.639 -14.169 -21.390  0.00  0.00    +0.181 C 
ATOM     11  C   UNL     1      33.993 -16.572 -24.781  0.00  0.00    +0.005 C 
ATOM     12  C   UNL     1      33.547 -15.250 -24.868  0.00  0.00    +0.030 C 
ATOM     13  C   UNL     1      32.911 -12.469 -22.696  0.00  0.00    +0.197 C 
ATOM     14  H   UNL     1      33.860 -14.031 -19.318  0.00  0.00    +0.144 HD
ATOM     15  H   UNL     1      34.278 -15.553 -19.963  0.00  0.00    +0.144 HD
ATOM     16  H   UNL     1      32.224 -10.773 -23.697  0.00  0.00    +0.156 HD
ATOM     17  H   UNL     1      32.376 -10.573 -22.011  0.00  0.00    +0.156 HD
ENDBRANCH   1   6
BRANCH   1  18
ATOM     18  C   UNL     1      35.654 -17.840 -21.249  0.00  0.00    +0.205 C 
BRANCH  18  20
ATOM     19  N   UNL     1      33.968 -21.199 -19.119  0.00  0.00    +0.390 N 
ATOM     20  C   UNL     1      35.119 -19.244 -20.975  0.00  0.00    +0.040 C 
ATOM     21  C   UNL     1      33.651 -19.199 -20.540  0.00  0.00    -0.019 C 
ATOM     22  C   UNL     1      35.955 -19.952 -19.905  0.00  0.00    -0.019 C 
ATOM     23  C   UNL     1      33.137 -20.591 -20.168  0.00  0.00    -0.077 C 
ATOM     24  C   UNL     1      35.365 -21.320 -19.553  0.00  0.00    -0.077 C 
ATOM     25  H   UNL     1      33.943 -20.587 -18.305  0.00  0.00    -0.079 HD
BRANCH  19  26
ATOM     26  C   UNL     1      33.434 -22.507 -18.739  0.00  0.00    -0.048 C 
BRANCH  26  28
ATOM     27  F   UNL     1      35.256 -22.648 -16.571  0.00  0.00    -0.205 F 
ATOM     28  C   UNL     1      32.998 -22.537 -17.298  0.00  0.00    -0.016 C 
ATOM     29  C   UNL     1      33.949 -22.607 -16.280  0.00  0.00    +0.134 C 
ATOM     30  C   UNL     1      31.640 -22.495 -16.984  0.00  0.00    -0.004 C 
ATOM     31  C   UNL     1      33.540 -22.636 -14.945  0.00  0.00    +0.029 C 
ATOM     32  C   UNL     1      31.232 -22.523 -15.650  0.00  0.00    -0.000 C 
ATOM     33  C   UNL     1      32.182 -22.594 -14.631  0.00  0.00    +0.002 C 
ENDBRANCH  26  28
ENDBRANCH  19  26
ENDBRANCH  18  20
ENDBRANCH   1  18
TORSDOF 5
ENDMDL
MODEL 7
REMARK VINA RESULT:     -11.9      4.607     10.425
REMARK  Name = 23729147
REMARK  5 active torsions:
REMARK  status: ('A' for Active; 'I' for Inactive)
REMARK    1  A    between atoms: O_1  and  C_6
REMARK    2  A    between atoms: O_1  and  C_18
REMARK    3  A    between atoms: C_18  and  C_20
REMARK    4  A    between atoms: N_19  and  C_26
REMARK    5  A    between atoms: C_26  and  C_28
REMARK                            x       y       z     vdW  Elec       q    Type
REMARK                         _______ _______ _______ _____ _____    ______ ____
ROOT
ATOM      1  O   UNL     1      33.128 -14.309 -22.704  0.00  0.00    -0.479 OA
ENDROOT
BRANCH   1   6
ATOM      2  N   UNL     1      31.554  -9.889 -21.491  0.00  0.00    -0.332 NA
ATOM      3  N   UNL     1      31.490 -11.625 -19.820  0.00  0.00    -0.317 NA
ATOM      4  N   UNL     1      32.222 -13.790 -20.289  0.00  0.00    -0.335 N 
ATOM      5  N   UNL     1      30.751  -9.456 -19.330  0.00  0.00    -0.283 N 
ATOM      6  C   UNL     1      32.862 -12.990 -22.980  0.00  0.00    +0.130 C 
ATOM      7  C   UNL     1      32.322 -12.094 -22.041  0.00  0.00    +0.177 C 
ATOM      8  C   UNL     1      33.155 -12.555 -24.269  0.00  0.00    +0.033 C 
ATOM      9  C   UNL     1      32.070 -10.755 -22.382  0.00  0.00    +0.137 C 
ATOM     10  C   UNL     1      32.008 -12.465 -20.736  0.00  0.00    +0.181 C 
ATOM     11  C   UNL     1      32.909 -11.232 -24.618  0.00  0.00    +0.005 C 
ATOM     12  C   UNL     1      32.372 -10.347 -23.678  0.00  0.00    +0.030 C 
ATOM     13  C   UNL     1      31.292 -10.371 -20.259  0.00  0.00    +0.197 C 
ATOM     14  H   UNL     1      31.996 -14.040 -19.364  0.00  0.00    +0.144 HD
ATOM     15  H   UNL     1      32.598 -14.462 -20.902  0.00  0.00    +0.144 HD
ATOM     16  H   UNL     1      30.585  -8.524 -19.597  0.00  0.00    +0.156 HD
ATOM     17  H   UNL     1      30.541  -9.751 -18.414  0.00  0.00    +0.156 HD
ENDBRANCH   1   6
BRANCH   1  18
ATOM     18  C   UNL     1      33.649 -15.094 -23.761  0.00  0.00    +0.205 C 
BRANCH  18  20
ATOM     19  N   UNL     1      34.607 -18.596 -21.420  0.00  0.00    +0.390 N 
ATOM     20  C   UNL     1      34.457 -16.241 -23.160  0.00  0.00    +0.040 C 
ATOM     21  C   UNL     1      33.869 -17.598 -23.560  0.00  0.00    -0.019 C 
ATOM     22  C   UNL     1      34.516 -16.132 -21.633  0.00  0.00    -0.019 C 
ATOM     23  C   UNL     1      34.613 -18.750 -22.881  0.00  0.00    -0.077 C 
ATOM     24  C   UNL     1      35.239 -17.333 -21.017  0.00  0.00    -0.077 C 
ATOM     25  H   UNL     1      33.635 -18.574 -21.110  0.00  0.00    -0.079 HD
BRANCH  19  26
ATOM     26  C   UNL     1      35.276 -19.730 -20.784  0.00  0.00    -0.048 C 
BRANCH  26  28
ATOM     27  F   UNL     1      36.198 -21.532 -18.799  0.00  0.00    -0.205 F 
ATOM     28  C   UNL     1      34.353 -20.480 -19.861  0.00  0.00    -0.016 C 
ATOM     29  C   UNL     1      34.875 -21.353 -18.905  0.00  0.00    +0.134 C 
ATOM     30  C   UNL     1      32.974 -20.302 -19.964  0.00  0.00    -0.004 C 
ATOM     31  C   UNL     1      34.015 -22.048 -18.053  0.00  0.00    +0.029 C 
ATOM     32  C   UNL     1      32.115 -20.996 -19.111  0.00  0.00    -0.000 C 
ATOM     33  C   UNL     1      32.636 -21.870 -18.156  0.00  0.00    +0.002 C 
ENDBRANCH  26  28
ENDBRANCH  19  26
ENDBRANCH  18  20
ENDBRANCH   1  18
TORSDOF 5
ENDMDL
MODEL 8
REMARK VINA RESULT:     -11.8      4.739     10.556
REMARK  Name = 23729147
REMARK  5 active torsions:
REMARK  status: ('A' for Active; 'I' for Inactive)
REMARK    1  A    between atoms: O_1  and  C_6
REMARK    2  A    between atoms: O_1  and  C_18
REMARK    3  A    between atoms: C_18  and  C_20
REMARK    4  A    between atoms: N_19  and  C_26
REMARK    5  A    between atoms: C_26  and  C_28
REMARK                            x       y       z     vdW  Elec       q    Type
REMARK                         _______ _______ _______ _____ _____    ______ ____
ROOT
ATOM      1  O   UNL     1      34.121 -13.603 -22.889  0.00  0.00    -0.479 OA
ENDROOT
BRANCH   1   6
ATOM      2  N   UNL     1      31.015 -10.142 -21.524  0.00  0.00    -0.332 NA
ATOM      3  N   UNL     1      32.294  -9.802 -23.538  0.00  0.00    -0.317 NA
ATOM      4  N   UNL     1      33.819 -11.398 -24.292  0.00  0.00    -0.335 N 
ATOM      5  N   UNL     1      30.767  -8.187 -22.796  0.00  0.00    -0.283 N 
ATOM      6  C   UNL     1      33.175 -13.076 -22.042  0.00  0.00    +0.130 C 
ATOM      7  C   UNL     1      32.566 -11.825 -22.243  0.00  0.00    +0.177 C 
ATOM      8  C   UNL     1      32.830 -13.850 -20.939  0.00  0.00    +0.033 C 
ATOM      9  C   UNL     1      31.605 -11.337 -21.341  0.00  0.00    +0.137 C 
ATOM     10  C   UNL     1      32.865 -11.003 -23.326  0.00  0.00    +0.181 C 
ATOM     11  C   UNL     1      31.882 -13.376 -20.040  0.00  0.00    +0.005 C 
ATOM     12  C   UNL     1      31.279 -12.132 -20.247  0.00  0.00    +0.030 C 
ATOM     13  C   UNL     1      31.392  -9.440 -22.612  0.00  0.00    +0.197 C 
ATOM     14  H   UNL     1      34.021 -10.808 -25.054  0.00  0.00    +0.144 HD
ATOM     15  H   UNL     1      34.279 -12.264 -24.205  0.00  0.00    +0.144 HD
ATOM     16  H   UNL     1      30.098  -7.871 -22.148  0.00  0.00    +0.156 HD
ATOM     17  H   UNL     1      31.002  -7.630 -23.574  0.00  0.00    +0.156 HD
ENDBRANCH   1   6
BRANCH   1  18
ATOM     18  C   UNL     1      33.733 -14.717 -23.671  0.00  0.00    +0.205 C 
BRANCH  18  20
ATOM     19  N   UNL     1      34.568 -18.455 -21.674  0.00  0.00    +0.390 N 
ATOM     20  C   UNL     1      34.500 -15.943 -23.184  0.00  0.00    +0.040 C 
ATOM     21  C   UNL     1      33.865 -17.235 -23.707  0.00  0.00    -0.019 C 
ATOM     22  C   UNL     1      34.563 -15.981 -21.654  0.00  0.00    -0.019 C 
ATOM     23  C   UNL     1      34.568 -18.471 -23.143  0.00  0.00    -0.077 C 
ATOM     24  C   UNL     1      35.244 -17.258 -21.156  0.00  0.00    -0.077 C 
ATOM     25  H   UNL     1      33.598 -18.428 -21.360  0.00  0.00    -0.079 HD
BRANCH  19  26
ATOM     26  C   UNL     1      35.198 -19.666 -21.149  0.00  0.00    -0.048 C 
BRANCH  26  28
ATOM     27  F   UNL     1      36.196 -21.445 -19.180  0.00  0.00    -0.205 F 
ATOM     28  C   UNL     1      34.314 -20.371 -20.153  0.00  0.00    -0.016 C 
ATOM     29  C   UNL     1      34.873 -21.234 -19.210  0.00  0.00    +0.134 C 
ATOM     30  C   UNL     1      32.937 -20.160 -20.177  0.00  0.00    -0.004 C 
ATOM     31  C   UNL     1      34.051 -21.887 -18.290  0.00  0.00    +0.029 C 
ATOM     32  C   UNL     1      32.115 -20.811 -19.256  0.00  0.00    -0.000 C 
ATOM     33  C   UNL     1      32.672 -21.675 -18.314  0.00  0.00    +0.002 C 
ENDBRANCH  26  28
ENDBRANCH  19  26
ENDBRANCH  18  20
ENDBRANCH   1  18
TORSDOF 5
ENDMDL
MODEL 9
REMARK VINA RESULT:     -11.7      6.807     10.827
REMARK  Name = 23729147
REMARK  5 active torsions:
REMARK  status: ('A' for Active; 'I' for Inactive)
REMARK    1  A    between atoms: O_1  and  C_6
REMARK    2  A    between atoms: O_1  and  C_18
REMARK    3  A    between atoms: C_18  and  C_20
REMARK    4  A    between atoms: N_19  and  C_26
REMARK    5  A    between atoms: C_26  and  C_28
REMARK                            x       y       z     vdW  Elec       q    Type
REMARK                         _______ _______ _______ _____ _____    ______ ____
ROOT
ATOM      1  O   UNL     1      32.833 -12.625 -22.083  0.00  0.00    -0.479 OA
ENDROOT
BRANCH   1   6
ATOM      2  N   UNL     1      34.687 -17.035 -22.858  0.00  0.00    -0.332 NA
ATOM      3  N   UNL     1      34.640 -16.194 -20.600  0.00  0.00    -0.317 NA
ATOM      4  N   UNL     1      33.771 -14.086 -20.107  0.00  0.00    -0.335 N 
ATOM      5  N   UNL     1      35.516 -18.314 -21.075  0.00  0.00    -0.283 N 
ATOM      6  C   UNL     1      33.183 -13.677 -22.895  0.00  0.00    +0.130 C 
ATOM      7  C   UNL     1      33.779 -14.858 -22.421  0.00  0.00    +0.177 C 
ATOM      8  C   UNL     1      32.918 -13.527 -24.253  0.00  0.00    +0.033 C 
ATOM      9  C   UNL     1      34.117 -15.900 -23.301  0.00  0.00    +0.137 C 
ATOM     10  C   UNL     1      34.069 -15.072 -21.076  0.00  0.00    +0.181 C 
ATOM     11  C   UNL     1      33.249 -14.551 -25.133  0.00  0.00    +0.005 C 
ATOM     12  C   UNL     1      33.841 -15.724 -24.653  0.00  0.00    +0.030 C 
ATOM     13  C   UNL     1      34.918 -17.120 -21.532  0.00  0.00    +0.197 C 
ATOM     14  H   UNL     1      33.981 -14.249 -19.159  0.00  0.00    +0.144 HD
ATOM     15  H   UNL     1      33.352 -13.238 -20.379  0.00  0.00    +0.144 HD
ATOM     16  H   UNL     1      35.742 -19.028 -21.714  0.00  0.00    +0.156 HD
ATOM     17  H   UNL     1      35.707 -18.434 -20.117  0.00  0.00    +0.156 HD
ENDBRANCH   1   6
BRANCH   1  18
ATOM     18  C   UNL     1      31.492 -12.580 -21.633  0.00  0.00    +0.205 C 
BRANCH  18  20
ATOM     19  N   UNL     1      31.749  -8.293 -21.170  0.00  0.00    +0.390 N 
ATOM     20  C   UNL     1      31.061 -11.119 -21.539  0.00  0.00    +0.040 C 
ATOM     21  C   UNL     1      31.711 -10.279 -22.643  0.00  0.00    -0.019 C 
ATOM     22  C   UNL     1      31.409 -10.530 -20.168  0.00  0.00    -0.019 C 
ATOM     23  C   UNL     1      31.364  -8.797 -22.495  0.00  0.00    -0.077 C 
ATOM     24  C   UNL     1      31.071  -9.038 -20.101  0.00  0.00    -0.077 C 
ATOM     25  H   UNL     1      32.753  -8.431 -21.061  0.00  0.00    -0.079 HD
BRANCH  19  26
ATOM     26  C   UNL     1      31.457  -6.864 -21.062  0.00  0.00    -0.048 C 
BRANCH  26  28
ATOM     27  F   UNL     1      29.996  -5.069 -22.700  0.00  0.00    -0.205 F 
ATOM     28  C   UNL     1      32.083  -6.078 -22.183  0.00  0.00    -0.016 C 
ATOM     29  C   UNL     1      31.305  -5.211 -22.951  0.00  0.00    +0.134 C 
ATOM     30  C   UNL     1      33.443  -6.218 -22.454  0.00  0.00    -0.004 C 
ATOM     31  C   UNL     1      31.888  -4.486 -23.991  0.00  0.00    +0.029 C 
ATOM     32  C   UNL     1      34.027  -5.493 -23.492  0.00  0.00    -0.000 C 
ATOM     33  C   UNL     1      33.249  -4.627 -24.261  0.00  0.00    +0.002 C 
ENDBRANCH  26  28
ENDBRANCH  19  26
ENDBRANCH  18  20
ENDBRANCH   1  18
TORSDOF 5
ENDMDL
