MODEL 1
REMARK VINA RESULT:     -14.9      0.000      0.000
REMARK  Name = 25171648
REMARK  8 active torsions:
REMARK  status: ('A' for Active; 'I' for Inactive)
REMARK    1  A    between atoms: C_1  and  C_12
REMARK    2  A    between atoms: C_2  and  C_23
REMARK    3  A    between atoms: C_9  and  O_13
REMARK    4  A    between atoms: O_13  and  C_14
REMARK    5  A    between atoms: C_14  and  C_16
REMARK    6  A    between atoms: C_23  and  N_25
REMARK    7  A    between atoms: C_27  and  C_31
REMARK    8  A    between atoms: C_34  and  C_38
REMARK                            x       y       z     vdW  Elec       q    Type
REMARK                         _______ _______ _______ _____ _____    ______ ____
ROOT
ATOM      1  C   UNL     1      34.716 -19.306 -20.515  0.00  0.00    +0.062 C 
ATOM      2  C   UNL     1      33.652 -21.134 -19.346  0.00  0.00    +0.000 C 
ATOM      3  C   UNL     1      33.557 -19.970 -20.111  0.00  0.00    +0.007 C 
ATOM      4  C   UNL     1      35.967 -19.804 -20.153  0.00  0.00    +0.010 C 
ATOM      5  C   UNL     1      34.904 -21.632 -18.985  0.00  0.00    -0.003 C 
ATOM      6  C   UNL     1      36.061 -20.967 -19.390  0.00  0.00    +0.000 C 
ENDROOT
BRANCH   1  12
ATOM      7  N   UNL     1      34.672 -16.940 -20.634  0.00  0.00    -0.212 NA
ATOM      8  N   UNL     1      34.483 -18.270 -22.634  0.00  0.00    -0.190 NA
ATOM      9  C   UNL     1      34.437 -15.868 -22.776  0.00  0.00    +0.161 C 
ATOM     10  C   UNL     1      34.578 -15.836 -21.404  0.00  0.00    +0.201 C 
ATOM     11  C   UNL     1      34.395 -17.125 -23.343  0.00  0.00    +0.144 C 
ATOM     12  C   UNL     1      34.618 -18.105 -21.304  0.00  0.00    +0.031 C 
BRANCH   9  13
ATOM     13  O   UNL     1      34.345 -14.723 -23.529  0.00  0.00    -0.476 OA
BRANCH  13  14
ATOM     14  C   UNL     1      33.055 -14.169 -23.703  0.00  0.00    +0.205 C 
BRANCH  14  16
ATOM     15  N   UNL     1      31.429 -10.542 -22.012  0.00  0.00    +0.386 N 
ATOM     16  C   UNL     1      32.971 -12.870 -22.907  0.00  0.00    +0.040 C 
ATOM     17  C   UNL     1      31.899 -12.963 -21.815  0.00  0.00    -0.019 C 
ATOM     18  C   UNL     1      32.674 -11.679 -23.824  0.00  0.00    -0.019 C 
ATOM     19  C   UNL     1      31.739 -11.632 -21.077  0.00  0.00    -0.077 C 
ATOM     20  C   UNL     1      32.489 -10.390 -23.019  0.00  0.00    -0.077 C 
ATOM     21  C   UNL     1      31.229  -9.287 -21.287  0.00  0.00    -0.101 C 
ATOM     22  H   UNL     1      30.565 -10.781 -22.498  0.00  0.00    -0.080 HD
ENDBRANCH  14  16
ENDBRANCH  13  14
ENDBRANCH   9  13
ENDBRANCH   1  12
BRANCH   2  23
ATOM     23  C   UNL     1      32.414 -21.845 -18.914  0.00  0.00    +0.146 C 
BRANCH  23  25
ATOM     24  O   UNL     1      30.169 -21.959 -17.136  0.00  0.00    -0.268 OA
ATOM     25  N   UNL     1      32.450 -22.210 -17.508  0.00  0.00    -0.173 N 
ATOM     26  N   UNL     1      33.692 -22.511 -17.026  0.00  0.00    -0.175 NA
ATOM     27  C   UNL     1      33.802 -22.838 -15.779  0.00  0.00    +0.099 C 
ATOM     28  C   UNL     1      31.299 -22.236 -16.733  0.00  0.00    +0.268 C 
ATOM     29  C   UNL     1      32.671 -22.934 -14.837  0.00  0.00    +0.025 C 
ATOM     30  C   UNL     1      31.467 -22.636 -15.320  0.00  0.00    +0.061 C 
BRANCH  27  31
ATOM     31  C   UNL     1      35.150 -23.162 -15.241  0.00  0.00    +0.020 C 
ATOM     32  C   UNL     1      35.282 -24.061 -14.182  0.00  0.00    +0.012 C 
ATOM     33  C   UNL     1      36.284 -22.569 -15.797  0.00  0.00    +0.002 C 
ATOM     34  C   UNL     1      36.547 -24.365 -13.679  0.00  0.00    +0.068 C 
ATOM     35  C   UNL     1      37.549 -22.872 -15.294  0.00  0.00    +0.001 C 
ATOM     36  C   UNL     1      37.681 -23.771 -14.235  0.00  0.00    +0.010 C 
BRANCH  34  38
ATOM     37  N   UNL     1      36.793 -26.031 -11.712  0.00  0.00    -0.191 NA
ATOM     38  C   UNL     1      36.683 -25.284 -12.593  0.00  0.00    +0.100 C 
ENDBRANCH  34  38
ENDBRANCH  27  31
ENDBRANCH  23  25
ENDBRANCH   2  23
TORSDOF 8
ENDMDL
MODEL 2
REMARK VINA RESULT:     -14.6      1.298      1.881
REMARK  Name = 25171648
REMARK  8 active torsions:
REMARK  status: ('A' for Active; 'I' for Inactive)
REMARK    1  A    between atoms: C_1  and  C_12
REMARK    2  A    between atoms: C_2  and  C_23
REMARK    3  A    between atoms: C_9  and  O_13
REMARK    4  A    between atoms: O_13  and  C_14
REMARK    5  A    between atoms: C_14  and  C_16
REMARK    6  A    between atoms: C_23  and  N_25
REMARK    7  A    between atoms: C_27  and  C_31
REMARK    8  A    between atoms: C_34  and  C_38
REMARK                            x       y       z     vdW  Elec       q    Type
REMARK                         _______ _______ _______ _____ _____    ______ ____
ROOT
ATOM      1  C   UNL     1      34.723 -20.058 -19.990  0.00  0.00    +0.062 C 
ATOM      2  C   UNL     1      33.743 -21.834 -18.678  0.00  0.00    +0.000 C 
ATOM      3  C   UNL     1      33.623 -20.851 -19.661  0.00  0.00    +0.007 C 
ATOM      4  C   UNL     1      35.940 -20.248 -19.337  0.00  0.00    +0.010 C 
ATOM      5  C   UNL     1      34.961 -22.024 -18.025  0.00  0.00    -0.003 C 
ATOM      6  C   UNL     1      36.060 -21.231 -18.356  0.00  0.00    +0.000 C 
ENDROOT
BRANCH   1  12
ATOM      7  N   UNL     1      33.969 -19.401 -22.139  0.00  0.00    -0.212 NA
ATOM      8  N   UNL     1      35.127 -17.838 -20.716  0.00  0.00    -0.190 NA
ATOM      9  C   UNL     1      34.370 -17.150 -22.895  0.00  0.00    +0.161 C 
ATOM     10  C   UNL     1      33.871 -18.426 -23.067  0.00  0.00    +0.201 C 
ATOM     11  C   UNL     1      34.993 -16.911 -21.687  0.00  0.00    +0.144 C 
ATOM     12  C   UNL     1      34.599 -19.043 -21.005  0.00  0.00    +0.031 C 
BRANCH   9  13
ATOM     13  O   UNL     1      34.251 -16.183 -23.862  0.00  0.00    -0.476 OA
BRANCH  13  14
ATOM     14  C   UNL     1      34.601 -14.861 -23.496  0.00  0.00    +0.205 C 
BRANCH  14  16
ATOM     15  N   UNL     1      32.136 -11.856 -21.614  0.00  0.00    +0.386 N 
ATOM     16  C   UNL     1      33.364 -14.168 -22.933  0.00  0.00    +0.040 C 
ATOM     17  C   UNL     1      33.089 -12.851 -23.668  0.00  0.00    -0.019 C 
ATOM     18  C   UNL     1      33.517 -13.901 -21.432  0.00  0.00    -0.019 C 
ATOM     19  C   UNL     1      31.911 -12.101 -23.045  0.00  0.00    -0.077 C 
ATOM     20  C   UNL     1      32.323 -13.116 -20.883  0.00  0.00    -0.077 C 
ATOM     21  C   UNL     1      31.025 -11.093 -21.044  0.00  0.00    -0.101 C 
ATOM     22  H   UNL     1      32.991 -11.307 -21.520  0.00  0.00    -0.080 HD
ENDBRANCH  14  16
ENDBRANCH  13  14
ENDBRANCH   9  13
ENDBRANCH   1  12
BRANCH   2  23
ATOM     23  C   UNL     1      32.568 -22.683 -18.324  0.00  0.00    +0.146 C 
BRANCH  23  25
ATOM     24  O   UNL     1      30.187 -21.904 -16.931  0.00  0.00    -0.268 OA
ATOM     25  N   UNL     1      32.350 -22.754 -16.889  0.00  0.00    -0.173 N 
ATOM     26  N   UNL     1      33.409 -23.234 -16.173  0.00  0.00    -0.175 NA
ATOM     27  C   UNL     1      33.291 -23.320 -14.887  0.00  0.00    +0.099 C 
ATOM     28  C   UNL     1      31.154 -22.352 -16.314  0.00  0.00    +0.268 C 
ATOM     29  C   UNL     1      32.076 -22.955 -14.135  0.00  0.00    +0.025 C 
ATOM     30  C   UNL     1      31.052 -22.487 -14.846  0.00  0.00    +0.061 C 
BRANCH  27  31
ATOM     31  C   UNL     1      34.439 -23.836 -14.096  0.00  0.00    +0.020 C 
ATOM     32  C   UNL     1      34.461 -23.675 -12.711  0.00  0.00    +0.012 C 
ATOM     33  C   UNL     1      35.494 -24.484 -14.740  0.00  0.00    +0.002 C 
ATOM     34  C   UNL     1      35.539 -24.160 -11.969  0.00  0.00    +0.068 C 
ATOM     35  C   UNL     1      36.572 -24.969 -13.998  0.00  0.00    +0.001 C 
ATOM     36  C   UNL     1      36.594 -24.808 -12.613  0.00  0.00    +0.010 C 
BRANCH  34  38
ATOM     37  N   UNL     1      35.582 -23.859  -9.397  0.00  0.00    -0.191 NA
ATOM     38  C   UNL     1      35.563 -23.994 -10.550  0.00  0.00    +0.100 C 
ENDBRANCH  34  38
ENDBRANCH  27  31
ENDBRANCH  23  25
ENDBRANCH   2  23
TORSDOF 8
ENDMDL
MODEL 3
REMARK VINA RESULT:     -14.6      1.434      2.107
REMARK  Name = 25171648
REMARK  8 active torsions:
REMARK  status: ('A' for Active; 'I' for Inactive)
REMARK    1  A    between atoms: C_1  and  C_12
REMARK    2  A    between atoms: C_2  and  C_23
REMARK    3  A    between atoms: C_9  and  O_13
REMARK    4  A    between atoms: O_13  and  C_14
REMARK    5  A    between atoms: C_14  and  C_16
REMARK    6  A    between atoms: C_23  and  N_25
REMARK    7  A    between atoms: C_27  and  C_31
REMARK    8  A    between atoms: C_34  and  C_38
REMARK                            x       y       z     vdW  Elec       q    Type
REMARK                         _______ _______ _______ _____ _____    ______ ____
ROOT
ATOM      1  C   UNL     1      34.802 -20.197 -19.821  0.00  0.00    +0.062 C 
ATOM      2  C   UNL     1      33.856 -21.983 -18.495  0.00  0.00    +0.000 C 
ATOM      3  C   UNL     1      33.730 -21.034 -19.511  0.00  0.00    +0.007 C 
ATOM      4  C   UNL     1      35.999 -20.308 -19.114  0.00  0.00    +0.010 C 
ATOM      5  C   UNL     1      35.054 -22.093 -17.789  0.00  0.00    -0.003 C 
ATOM      6  C   UNL     1      36.126 -21.256 -18.100  0.00  0.00    +0.000 C 
ENDROOT
BRANCH   1  12
ATOM      7  N   UNL     1      33.894 -19.559 -21.914  0.00  0.00    -0.212 NA
ATOM      8  N   UNL     1      35.339 -18.062 -20.698  0.00  0.00    -0.190 NA
ATOM      9  C   UNL     1      34.427 -17.394 -22.823  0.00  0.00    +0.161 C 
ATOM     10  C   UNL     1      33.793 -18.619 -22.877  0.00  0.00    +0.201 C 
ATOM     11  C   UNL     1      35.194 -17.168 -21.698  0.00  0.00    +0.144 C 
ATOM     12  C   UNL     1      34.671 -19.219 -20.869  0.00  0.00    +0.031 C 
BRANCH   9  13
ATOM     13  O   UNL     1      34.302 -16.461 -23.823  0.00  0.00    -0.476 OA
BRANCH  13  14
ATOM     14  C   UNL     1      34.660 -15.129 -23.508  0.00  0.00    +0.205 C 
BRANCH  14  16
ATOM     15  N   UNL     1      32.269 -12.082 -21.595  0.00  0.00    +0.386 N 
ATOM     16  C   UNL     1      33.452 -14.435 -22.885  0.00  0.00    +0.040 C 
ATOM     17  C   UNL     1      33.083 -13.167 -23.664  0.00  0.00    -0.019 C 
ATOM     18  C   UNL     1      33.716 -14.081 -21.418  0.00  0.00    -0.019 C 
ATOM     19  C   UNL     1      31.937 -12.412 -22.989  0.00  0.00    -0.077 C 
ATOM     20  C   UNL     1      32.548 -13.296 -20.816  0.00  0.00    -0.077 C 
ATOM     21  C   UNL     1      31.185 -11.316 -20.979  0.00  0.00    -0.101 C 
ATOM     22  H   UNL     1      33.113 -11.510 -21.600  0.00  0.00    -0.080 HD
ENDBRANCH  14  16
ENDBRANCH  13  14
ENDBRANCH   9  13
ENDBRANCH   1  12
BRANCH   2  23
ATOM     23  C   UNL     1      32.710 -22.878 -18.163  0.00  0.00    +0.146 C 
BRANCH  23  25
ATOM     24  O   UNL     1      30.281 -21.943 -16.963  0.00  0.00    -0.268 OA
ATOM     25  N   UNL     1      32.400 -22.873 -16.743  0.00  0.00    -0.173 N 
ATOM     26  N   UNL     1      33.390 -23.360 -15.939  0.00  0.00    -0.175 NA
ATOM     27  C   UNL     1      33.187 -23.380 -14.661  0.00  0.00    +0.099 C 
ATOM     28  C   UNL     1      31.187 -22.398 -16.265  0.00  0.00    +0.268 C 
ATOM     29  C   UNL     1      31.944 -22.934 -14.006  0.00  0.00    +0.025 C 
ATOM     30  C   UNL     1      30.988 -22.460 -14.802  0.00  0.00    +0.061 C 
BRANCH  27  31
ATOM     31  C   UNL     1      34.261 -23.903 -13.774  0.00  0.00    +0.020 C 
ATOM     32  C   UNL     1      35.323 -24.627 -14.316  0.00  0.00    +0.012 C 
ATOM     33  C   UNL     1      34.206 -23.669 -12.400  0.00  0.00    +0.002 C 
ATOM     34  C   UNL     1      36.330 -25.116 -13.483  0.00  0.00    +0.068 C 
ATOM     35  C   UNL     1      35.212 -24.158 -11.567  0.00  0.00    +0.001 C 
ATOM     36  C   UNL     1      36.274 -24.882 -12.109  0.00  0.00    +0.010 C 
BRANCH  34  38
ATOM     37  N   UNL     1      38.302 -26.462 -14.487  0.00  0.00    -0.191 NA
ATOM     38  C   UNL     1      37.418 -25.859 -14.037  0.00  0.00    +0.100 C 
ENDBRANCH  34  38
ENDBRANCH  27  31
ENDBRANCH  23  25
ENDBRANCH   2  23
TORSDOF 8
ENDMDL
MODEL 4
REMARK VINA RESULT:     -14.6      3.855      8.151
REMARK  Name = 25171648
REMARK  8 active torsions:
REMARK  status: ('A' for Active; 'I' for Inactive)
REMARK    1  A    between atoms: C_1  and  C_12
REMARK    2  A    between atoms: C_2  and  C_23
REMARK    3  A    between atoms: C_9  and  O_13
REMARK    4  A    between atoms: O_13  and  C_14
REMARK    5  A    between atoms: C_14  and  C_16
REMARK    6  A    between atoms: C_23  and  N_25
REMARK    7  A    between atoms: C_27  and  C_31
REMARK    8  A    between atoms: C_34  and  C_38
REMARK                            x       y       z     vdW  Elec       q    Type
REMARK                         _______ _______ _______ _____ _____    ______ ____
ROOT
ATOM      1  C   UNL     1      32.327 -11.991 -21.612  0.00  0.00    +0.062 C 
ATOM      2  C   UNL     1      33.645 -13.938 -22.168  0.00  0.00    +0.000 C 
ATOM      3  C   UNL     1      33.202 -12.651 -22.475  0.00  0.00    +0.007 C 
ATOM      4  C   UNL     1      31.895 -12.618 -20.443  0.00  0.00    +0.010 C 
ATOM      5  C   UNL     1      33.213 -14.564 -20.999  0.00  0.00    -0.003 C 
ATOM      6  C   UNL     1      32.339 -13.904 -20.136  0.00  0.00    +0.000 C 
ENDROOT
BRANCH   1  12
ATOM      7  N   UNL     1      31.185 -10.018 -20.966  0.00  0.00    -0.212 NA
ATOM      8  N   UNL     1      32.173 -10.200 -23.157  0.00  0.00    -0.190 NA
ATOM      9  C   UNL     1      31.017  -8.187 -22.520  0.00  0.00    +0.161 C 
ATOM     10  C   UNL     1      30.772  -8.776 -21.297  0.00  0.00    +0.201 C 
ATOM     11  C   UNL     1      31.730  -8.953 -23.420  0.00  0.00    +0.144 C 
ATOM     12  C   UNL     1      31.869 -10.663 -21.929  0.00  0.00    +0.031 C 
BRANCH   9  13
ATOM     13  O   UNL     1      30.582  -6.920 -22.822  0.00  0.00    -0.476 OA
BRANCH  13  14
ATOM     14  C   UNL     1      31.292  -5.841 -22.245  0.00  0.00    +0.205 C 
BRANCH  14  16
ATOM     15  N   UNL     1      33.358  -4.932 -25.928  0.00  0.00    +0.386 N 
ATOM     16  C   UNL     1      31.938  -5.030 -23.364  0.00  0.00    +0.040 C 
ATOM     17  C   UNL     1      31.237  -5.286 -24.704  0.00  0.00    -0.019 C 
ATOM     18  C   UNL     1      33.430  -5.354 -23.491  0.00  0.00    -0.019 C 
ATOM     19  C   UNL     1      31.940  -4.554 -25.849  0.00  0.00    -0.077 C 
ATOM     20  C   UNL     1      34.061  -4.619 -24.676  0.00  0.00    -0.077 C 
ATOM     21  C   UNL     1      34.004  -4.264 -27.058  0.00  0.00    -0.101 C 
ATOM     22  H   UNL     1      33.407  -5.940 -26.073  0.00  0.00    -0.080 HD
ENDBRANCH  14  16
ENDBRANCH  13  14
ENDBRANCH   9  13
ENDBRANCH   1  12
BRANCH   2  23
ATOM     23  C   UNL     1      34.581 -14.645 -23.090  0.00  0.00    +0.146 C 
BRANCH  23  25
ATOM     24  O   UNL     1      33.241 -15.680 -25.402  0.00  0.00    -0.268 OA
ATOM     25  N   UNL     1      34.197 -16.028 -23.312  0.00  0.00    -0.173 N 
ATOM     26  N   UNL     1      34.515 -16.881 -22.294  0.00  0.00    -0.175 NA
ATOM     27  C   UNL     1      34.196 -18.129 -22.419  0.00  0.00    +0.099 C 
ATOM     28  C   UNL     1      33.551 -16.426 -24.474  0.00  0.00    +0.268 C 
ATOM     29  C   UNL     1      33.531 -18.707 -23.602  0.00  0.00    +0.025 C 
ATOM     30  C   UNL     1      33.225 -17.864 -24.585  0.00  0.00    +0.061 C 
BRANCH  27  31
ATOM     31  C   UNL     1      34.532 -19.067 -21.315  0.00  0.00    +0.020 C 
ATOM     32  C   UNL     1      33.516 -19.744 -20.639  0.00  0.00    +0.012 C 
ATOM     33  C   UNL     1      35.864 -19.272 -20.955  0.00  0.00    +0.002 C 
ATOM     34  C   UNL     1      33.832 -20.623 -19.604  0.00  0.00    +0.068 C 
ATOM     35  C   UNL     1      36.181 -20.152 -19.919  0.00  0.00    +0.001 C 
ATOM     36  C   UNL     1      35.165 -20.828 -19.244  0.00  0.00    +0.010 C 
BRANCH  34  38
ATOM     37  N   UNL     1      31.946 -21.878 -18.348  0.00  0.00    -0.191 NA
ATOM     38  C   UNL     1      32.791 -21.316 -18.911  0.00  0.00    +0.100 C 
ENDBRANCH  34  38
ENDBRANCH  27  31
ENDBRANCH  23  25
ENDBRANCH   2  23
TORSDOF 8
ENDMDL
MODEL 5
REMARK VINA RESULT:     -13.9      3.274     13.924
REMARK  Name = 25171648
REMARK  8 active torsions:
REMARK  status: ('A' for Active; 'I' for Inactive)
REMARK    1  A    between atoms: C_1  and  C_12
REMARK    2  A    between atoms: C_2  and  C_23
REMARK    3  A    between atoms: C_9  and  O_13
REMARK    4  A    between atoms: O_13  and  C_14
REMARK    5  A    between atoms: C_14  and  C_16
REMARK    6  A    between atoms: C_23  and  N_25
REMARK    7  A    between atoms: C_27  and  C_31
REMARK    8  A    between atoms: C_34  and  C_38
REMARK                            x       y       z     vdW  Elec       q    Type
REMARK                         _______ _______ _______ _____ _____    ______ ____
ROOT
ATOM      1  C   UNL     1      33.284 -13.314 -22.520  0.00  0.00    +0.062 C 
ATOM      2  C   UNL     1      31.820 -11.479 -21.949  0.00  0.00    +0.000 C 
ATOM      3  C   UNL     1      32.331 -12.748 -21.674  0.00  0.00    +0.007 C 
ATOM      4  C   UNL     1      33.725 -12.612 -23.642  0.00  0.00    +0.010 C 
ATOM      5  C   UNL     1      32.262 -10.777 -23.070  0.00  0.00    -0.003 C 
ATOM      6  C   UNL     1      33.215 -11.343 -23.915  0.00  0.00    +0.000 C 
ENDROOT
BRANCH   1  12
ATOM      7  N   UNL     1      34.006 -14.925 -20.940  0.00  0.00    -0.212 NA
ATOM      8  N   UNL     1      34.055 -15.416 -23.298  0.00  0.00    -0.190 NA
ATOM      9  C   UNL     1      34.793 -17.066 -21.709  0.00  0.00    +0.161 C 
ATOM     10  C   UNL     1      34.500 -16.159 -20.710  0.00  0.00    +0.201 C 
ATOM     11  C   UNL     1      34.547 -16.636 -22.997  0.00  0.00    +0.144 C 
ATOM     12  C   UNL     1      33.811 -14.624 -22.237  0.00  0.00    +0.031 C 
BRANCH   9  13
ATOM     13  O   UNL     1      35.295 -18.315 -21.438  0.00  0.00    -0.476 OA
BRANCH  13  14
ATOM     14  C   UNL     1      34.409 -19.409 -21.580  0.00  0.00    +0.205 C 
BRANCH  14  16
ATOM     15  N   UNL     1      33.306 -22.197 -18.471  0.00  0.00    +0.386 N 
ATOM     16  C   UNL     1      34.084 -19.955 -20.193  0.00  0.00    +0.040 C 
ATOM     17  C   UNL     1      35.063 -21.066 -19.796  0.00  0.00    -0.019 C 
ATOM     18  C   UNL     1      32.647 -20.485 -20.131  0.00  0.00    -0.019 C 
ATOM     19  C   UNL     1      34.684 -21.688 -18.450  0.00  0.00    -0.077 C 
ATOM     20  C   UNL     1      32.348 -21.125 -18.773  0.00  0.00    -0.077 C 
ATOM     21  C   UNL     1      32.976 -22.834 -17.195  0.00  0.00    -0.101 C 
ATOM     22  H   UNL     1      33.241 -22.896 -19.211  0.00  0.00    -0.080 HD
ENDBRANCH  14  16
ENDBRANCH  13  14
ENDBRANCH   9  13
ENDBRANCH   1  12
BRANCH   2  23
ATOM     23  C   UNL     1      30.800 -10.873 -21.044  0.00  0.00    +0.146 C 
BRANCH  23  25
ATOM     24  O   UNL     1      31.309  -9.685 -18.486  0.00  0.00    -0.268 OA
ATOM     25  N   UNL     1      31.058  -9.466 -20.786  0.00  0.00    -0.173 N 
ATOM     26  N   UNL     1      31.036  -8.668 -21.894  0.00  0.00    -0.175 NA
ATOM     27  C   UNL     1      31.250  -7.401 -21.740  0.00  0.00    +0.099 C 
ATOM     28  C   UNL     1      31.296  -8.993 -19.504  0.00  0.00    +0.268 C 
ATOM     29  C   UNL     1      31.542  -6.754 -20.447  0.00  0.00    +0.025 C 
ATOM     30  C   UNL     1      31.557  -7.544 -19.375  0.00  0.00    +0.061 C 
BRANCH  27  31
ATOM     31  C   UNL     1      31.224  -6.520 -22.938  0.00  0.00    +0.020 C 
ATOM     32  C   UNL     1      30.838  -5.185 -22.815  0.00  0.00    +0.012 C 
ATOM     33  C   UNL     1      31.586  -7.030 -24.185  0.00  0.00    +0.002 C 
ATOM     34  C   UNL     1      30.815  -4.360 -23.940  0.00  0.00    +0.068 C 
ATOM     35  C   UNL     1      31.563  -6.205 -25.310  0.00  0.00    +0.001 C 
ATOM     36  C   UNL     1      31.177  -4.870 -25.187  0.00  0.00    +0.010 C 
BRANCH  34  38
ATOM     37  N   UNL     1      30.098  -1.882 -23.714  0.00  0.00    -0.191 NA
ATOM     38  C   UNL     1      30.419  -2.992 -23.815  0.00  0.00    +0.100 C 
ENDBRANCH  34  38
ENDBRANCH  27  31
ENDBRANCH  23  25
ENDBRANCH   2  23
TORSDOF 8
ENDMDL
MODEL 6
REMARK VINA RESULT:     -12.9      2.825     13.533
REMARK  Name = 25171648
REMARK  8 active torsions:
REMARK  status: ('A' for Active; 'I' for Inactive)
REMARK    1  A    between atoms: C_1  and  C_12
REMARK    2  A    between atoms: C_2  and  C_23
REMARK    3  A    between atoms: C_9  and  O_13
REMARK    4  A    between atoms: O_13  and  C_14
REMARK    5  A    between atoms: C_14  and  C_16
REMARK    6  A    between atoms: C_23  and  N_25
REMARK    7  A    between atoms: C_27  and  C_31
REMARK    8  A    between atoms: C_34  and  C_38
REMARK                            x       y       z     vdW  Elec       q    Type
REMARK                         _______ _______ _______ _____ _____    ______ ____
ROOT
ATOM      1  C   UNL     1      33.713 -15.012 -23.632  0.00  0.00    +0.062 C 
ATOM      2  C   UNL     1      33.531 -12.608 -23.471  0.00  0.00    +0.000 C 
ATOM      3  C   UNL     1      33.892 -13.833 -22.909  0.00  0.00    +0.007 C 
ATOM      4  C   UNL     1      33.173 -14.966 -24.918  0.00  0.00    +0.010 C 
ATOM      5  C   UNL     1      32.991 -12.563 -24.756  0.00  0.00    -0.003 C 
ATOM      6  C   UNL     1      32.813 -13.741 -25.480  0.00  0.00    +0.000 C 
ENDROOT
BRANCH   1  12
ATOM      7  N   UNL     1      34.630 -16.235 -21.822  0.00  0.00    -0.212 NA
ATOM      8  N   UNL     1      33.852 -17.372 -23.799  0.00  0.00    -0.190 NA
ATOM      9  C   UNL     1      34.780 -18.633 -21.970  0.00  0.00    +0.161 C 
ATOM     10  C   UNL     1      34.967 -17.436 -21.309  0.00  0.00    +0.201 C 
ATOM     11  C   UNL     1      34.212 -18.539 -23.225  0.00  0.00    +0.144 C 
ATOM     12  C   UNL     1      34.086 -16.276 -23.052  0.00  0.00    +0.031 C 
BRANCH   9  13
ATOM     13  O   UNL     1      35.135 -19.838 -21.416  0.00  0.00    -0.476 OA
BRANCH  13  14
ATOM     14  C   UNL     1      35.867 -19.800 -20.206  0.00  0.00    +0.205 C 
BRANCH  14  16
ATOM     15  N   UNL     1      34.137 -22.095 -16.982  0.00  0.00    +0.386 N 
ATOM     16  C   UNL     1      35.466 -21.001 -19.356  0.00  0.00    +0.040 C 
ATOM     17  C   UNL     1      33.941 -21.111 -19.244  0.00  0.00    -0.019 C 
ATOM     18  C   UNL     1      36.083 -20.918 -17.957  0.00  0.00    -0.019 C 
ATOM     19  C   UNL     1      33.532 -22.253 -18.312  0.00  0.00    -0.077 C 
ATOM     20  C   UNL     1      35.604 -22.068 -17.067  0.00  0.00    -0.077 C 
ATOM     21  C   UNL     1      33.696 -23.166 -16.088  0.00  0.00    -0.101 C 
ATOM     22  H   UNL     1      33.827 -21.202 -16.600  0.00  0.00    -0.080 HD
ENDBRANCH  14  16
ENDBRANCH  13  14
ENDBRANCH   9  13
ENDBRANCH   1  12
BRANCH   2  23
ATOM     23  C   UNL     1      33.721 -11.346 -22.698  0.00  0.00    +0.146 C 
BRANCH  23  25
ATOM     24  O   UNL     1      31.491 -12.342 -21.198  0.00  0.00    -0.268 OA
ATOM     25  N   UNL     1      32.467 -10.651 -22.458  0.00  0.00    -0.173 N 
ATOM     26  N   UNL     1      32.382  -9.413 -23.029  0.00  0.00    -0.175 NA
ATOM     27  C   UNL     1      31.291  -8.737 -22.864  0.00  0.00    +0.099 C 
ATOM     28  C   UNL     1      31.448 -11.225 -21.713  0.00  0.00    +0.268 C 
ATOM     29  C   UNL     1      30.132  -9.201 -22.078  0.00  0.00    +0.025 C 
ATOM     30  C   UNL     1      30.229 -10.410 -21.530  0.00  0.00    +0.061 C 
BRANCH  27  31
ATOM     31  C   UNL     1      31.183  -7.389 -23.484  0.00  0.00    +0.020 C 
ATOM     32  C   UNL     1      30.750  -6.303 -22.723  0.00  0.00    +0.012 C 
ATOM     33  C   UNL     1      31.518  -7.212 -24.827  0.00  0.00    +0.002 C 
ATOM     34  C   UNL     1      30.650  -5.040 -23.306  0.00  0.00    +0.068 C 
ATOM     35  C   UNL     1      31.418  -5.948 -25.410  0.00  0.00    +0.001 C 
ATOM     36  C   UNL     1      30.985  -4.862 -24.649  0.00  0.00    +0.010 C 
BRANCH  34  38
ATOM     37  N   UNL     1      29.844  -3.023 -21.896  0.00  0.00    -0.191 NA
ATOM     38  C   UNL     1      30.205  -3.927 -22.528  0.00  0.00    +0.100 C 
ENDBRANCH  34  38
ENDBRANCH  27  31
ENDBRANCH  23  25
ENDBRANCH   2  23
TORSDOF 8
ENDMDL
MODEL 7
REMARK VINA RESULT:     -12.5      2.004     12.277
REMARK  Name = 25171648
REMARK  8 active torsions:
REMARK  status: ('A' for Active; 'I' for Inactive)
REMARK    1  A    between atoms: C_1  and  C_12
REMARK    2  A    between atoms: C_2  and  C_23
REMARK    3  A    between atoms: C_9  and  O_13
REMARK    4  A    between atoms: O_13  and  C_14
REMARK    5  A    between atoms: C_14  and  C_16
REMARK    6  A    between atoms: C_23  and  N_25
REMARK    7  A    between atoms: C_27  and  C_31
REMARK    8  A    between atoms: C_34  and  C_38
REMARK                            x       y       z     vdW  Elec       q    Type
REMARK                         _______ _______ _______ _____ _____    ______ ____
ROOT
ATOM      1  C   UNL     1      34.186 -18.908 -21.733  0.00  0.00    +0.062 C 
ATOM      2  C   UNL     1      34.454 -16.732 -22.750  0.00  0.00    +0.000 C 
ATOM      3  C   UNL     1      34.615 -17.583 -21.655  0.00  0.00    +0.007 C 
ATOM      4  C   UNL     1      33.596 -19.382 -22.904  0.00  0.00    +0.010 C 
ATOM      5  C   UNL     1      33.864 -17.207 -23.921  0.00  0.00    -0.003 C 
ATOM      6  C   UNL     1      33.436 -18.532 -23.999  0.00  0.00    +0.000 C 
ENDROOT
BRANCH   1  12
ATOM      7  N   UNL     1      35.604 -19.924 -20.130  0.00  0.00    -0.212 NA
ATOM      8  N   UNL     1      33.237 -20.377 -20.133  0.00  0.00    -0.190 NA
ATOM      9  C   UNL     1      34.661 -21.420 -18.496  0.00  0.00    +0.161 C 
ATOM     10  C   UNL     1      35.723 -20.753 -19.071  0.00  0.00    +0.201 C 
ATOM     11  C   UNL     1      33.429 -21.191 -19.074  0.00  0.00    +0.144 C 
ATOM     12  C   UNL     1      34.352 -19.785 -20.603  0.00  0.00    +0.031 C 
BRANCH   9  13
ATOM     13  O   UNL     1      34.819 -22.256 -17.418  0.00  0.00    -0.476 OA
BRANCH  13  14
ATOM     14  C   UNL     1      35.940 -22.027 -16.586  0.00  0.00    +0.205 C 
BRANCH  14  16
ATOM     15  N   UNL     1      35.266 -23.056 -12.445  0.00  0.00    +0.386 N 
ATOM     16  C   UNL     1      35.790 -22.872 -15.324  0.00  0.00    +0.040 C 
ATOM     17  C   UNL     1      34.382 -22.733 -14.733  0.00  0.00    -0.019 C 
ATOM     18  C   UNL     1      36.833 -22.483 -14.272  0.00  0.00    -0.019 C 
ATOM     19  C   UNL     1      34.253 -23.498 -13.414  0.00  0.00    -0.077 C 
ATOM     20  C   UNL     1      36.624 -23.257 -12.968  0.00  0.00    -0.077 C 
ATOM     21  C   UNL     1      35.097 -23.759 -11.173  0.00  0.00    -0.101 C 
ATOM     22  H   UNL     1      35.134 -22.057 -12.287  0.00  0.00    -0.080 HD
ENDBRANCH  14  16
ENDBRANCH  13  14
ENDBRANCH   9  13
ENDBRANCH   1  12
BRANCH   2  23
ATOM     23  C   UNL     1      34.912 -15.315 -22.668  0.00  0.00    +0.146 C 
BRANCH  23  25
ATOM     24  O   UNL     1      34.153 -15.352 -25.431  0.00  0.00    -0.268 OA
ATOM     25  N   UNL     1      33.990 -14.398 -23.318  0.00  0.00    -0.173 N 
ATOM     26  N   UNL     1      33.467 -13.438 -22.501  0.00  0.00    -0.175 NA
ATOM     27  C   UNL     1      32.644 -12.581 -23.012  0.00  0.00    +0.099 C 
ATOM     28  C   UNL     1      33.688 -14.506 -24.668  0.00  0.00    +0.268 C 
ATOM     29  C   UNL     1      32.206 -12.580 -24.421  0.00  0.00    +0.025 C 
ATOM     30  C   UNL     1      32.727 -13.521 -25.206  0.00  0.00    +0.061 C 
BRANCH  27  31
ATOM     31  C   UNL     1      32.071 -11.526 -22.133  0.00  0.00    +0.020 C 
ATOM     32  C   UNL     1      31.808 -10.256 -22.646  0.00  0.00    +0.012 C 
ATOM     33  C   UNL     1      31.794 -11.809 -20.795  0.00  0.00    +0.002 C 
ATOM     34  C   UNL     1      31.271  -9.268 -21.821  0.00  0.00    +0.068 C 
ATOM     35  C   UNL     1      31.257 -10.822 -19.970  0.00  0.00    +0.001 C 
ATOM     36  C   UNL     1      30.994  -9.551 -20.482  0.00  0.00    +0.010 C 
BRANCH  34  38
ATOM     37  N   UNL     1      30.785  -6.909 -22.771  0.00  0.00    -0.191 NA
ATOM     38  C   UNL     1      31.002  -7.966 -22.345  0.00  0.00    +0.100 C 
ENDBRANCH  34  38
ENDBRANCH  27  31
ENDBRANCH  23  25
ENDBRANCH   2  23
TORSDOF 8
ENDMDL
MODEL 8
REMARK VINA RESULT:     -12.4      2.307      4.090
REMARK  Name = 25171648
REMARK  8 active torsions:
REMARK  status: ('A' for Active; 'I' for Inactive)
REMARK    1  A    between atoms: C_1  and  C_12
REMARK    2  A    between atoms: C_2  and  C_23
REMARK    3  A    between atoms: C_9  and  O_13
REMARK    4  A    between atoms: O_13  and  C_14
REMARK    5  A    between atoms: C_14  and  C_16
REMARK    6  A    between atoms: C_23  and  N_25
REMARK    7  A    between atoms: C_27  and  C_31
REMARK    8  A    between atoms: C_34  and  C_38
REMARK                            x       y       z     vdW  Elec       q    Type
REMARK                         _______ _______ _______ _____ _____    ______ ____
ROOT
ATOM      1  C   UNL     1      34.084 -16.336 -23.287  0.00  0.00    +0.062 C 
ATOM      2  C   UNL     1      35.035 -18.286 -22.224  0.00  0.00    +0.000 C 
ATOM      3  C   UNL     1      34.761 -16.918 -22.215  0.00  0.00    +0.007 C 
ATOM      4  C   UNL     1      33.682 -17.121 -24.367  0.00  0.00    +0.010 C 
ATOM      5  C   UNL     1      34.632 -19.071 -23.304  0.00  0.00    -0.003 C 
ATOM      6  C   UNL     1      33.955 -18.489 -24.375  0.00  0.00    +0.000 C 
ENDROOT
BRANCH   1  12
ATOM      7  N   UNL     1      33.269 -14.410 -24.402  0.00  0.00    -0.212 NA
ATOM      8  N   UNL     1      34.097 -14.259 -22.144  0.00  0.00    -0.190 NA
ATOM      9  C   UNL     1      33.273 -12.291 -23.260  0.00  0.00    +0.161 C 
ATOM     10  C   UNL     1      33.017 -13.086 -24.359  0.00  0.00    +0.201 C 
ATOM     11  C   UNL     1      33.818 -12.939 -22.170  0.00  0.00    +0.144 C 
ATOM     12  C   UNL     1      33.801 -14.924 -23.278  0.00  0.00    +0.031 C 
BRANCH   9  13
ATOM     13  O   UNL     1      33.003 -10.945 -23.251  0.00  0.00    -0.476 OA
BRANCH  13  14
ATOM     14  C   UNL     1      31.876 -10.520 -22.508  0.00  0.00    +0.205 C 
BRANCH  14  16
ATOM     15  N   UNL     1      30.819  -6.450 -21.521  0.00  0.00    +0.386 N 
ATOM     16  C   UNL     1      32.028  -9.034 -22.201  0.00  0.00    +0.040 C 
ATOM     17  C   UNL     1      31.522  -8.708 -20.792  0.00  0.00    -0.019 C 
ATOM     18  C   UNL     1      31.280  -8.179 -23.230  0.00  0.00    -0.019 C 
ATOM     19  C   UNL     1      31.578  -7.204 -20.513  0.00  0.00    -0.077 C 
ATOM     20  C   UNL     1      31.345  -6.693 -22.871  0.00  0.00    -0.077 C 
ATOM     21  C   UNL     1      30.839  -5.020 -21.212  0.00  0.00    -0.101 C 
ATOM     22  H   UNL     1      29.853  -6.777 -21.496  0.00  0.00    -0.080 HD
ENDBRANCH  14  16
ENDBRANCH  13  14
ENDBRANCH   9  13
ENDBRANCH   1  12
BRANCH   2  23
ATOM     23  C   UNL     1      35.758 -18.910 -21.078  0.00  0.00    +0.146 C 
BRANCH  23  25
ATOM     24  O   UNL     1      32.974 -19.410 -21.537  0.00  0.00    -0.268 OA
ATOM     25  N   UNL     1      34.892 -19.750 -20.269  0.00  0.00    -0.173 N 
ATOM     26  N   UNL     1      35.500 -20.329 -19.192  0.00  0.00    -0.175 NA
ATOM     27  C   UNL     1      34.788 -21.086 -18.421  0.00  0.00    +0.099 C 
ATOM     28  C   UNL     1      33.552 -19.928 -20.582  0.00  0.00    +0.268 C 
ATOM     29  C   UNL     1      33.361 -21.391 -18.636  0.00  0.00    +0.025 C 
ATOM     30  C   UNL     1      32.781 -20.818 -19.688  0.00  0.00    +0.061 C 
BRANCH  27  31
ATOM     31  C   UNL     1      35.437 -21.718 -17.241  0.00  0.00    +0.020 C 
ATOM     32  C   UNL     1      34.666 -22.410 -16.307  0.00  0.00    +0.012 C 
ATOM     33  C   UNL     1      36.818 -21.620 -17.070  0.00  0.00    +0.002 C 
ATOM     34  C   UNL     1      35.277 -23.003 -15.202  0.00  0.00    +0.068 C 
ATOM     35  C   UNL     1      37.429 -22.213 -15.965  0.00  0.00    +0.001 C 
ATOM     36  C   UNL     1      36.658 -22.905 -15.031  0.00  0.00    +0.010 C 
BRANCH  34  38
ATOM     37  N   UNL     1      33.846 -24.287 -13.465  0.00  0.00    -0.191 NA
ATOM     38  C   UNL     1      34.487 -23.711 -14.243  0.00  0.00    +0.100 C 
ENDBRANCH  34  38
ENDBRANCH  27  31
ENDBRANCH  23  25
ENDBRANCH   2  23
TORSDOF 8
ENDMDL
MODEL 9
REMARK VINA RESULT:     -12.3      4.358     14.680
REMARK  Name = 25171648
REMARK  8 active torsions:
REMARK  status: ('A' for Active; 'I' for Inactive)
REMARK    1  A    between atoms: C_1  and  C_12
REMARK    2  A    between atoms: C_2  and  C_23
REMARK    3  A    between atoms: C_9  and  O_13
REMARK    4  A    between atoms: O_13  and  C_14
REMARK    5  A    between atoms: C_14  and  C_16
REMARK    6  A    between atoms: C_23  and  N_25
REMARK    7  A    between atoms: C_27  and  C_31
REMARK    8  A    between atoms: C_34  and  C_38
REMARK                            x       y       z     vdW  Elec       q    Type
REMARK                         _______ _______ _______ _____ _____    ______ ____
ROOT
ATOM      1  C   UNL     1      32.099 -11.709 -21.628  0.00  0.00    +0.062 C 
ATOM      2  C   UNL     1      30.983  -9.584 -21.910  0.00  0.00    +0.000 C 
ATOM      3  C   UNL     1      31.639 -10.687 -22.459  0.00  0.00    +0.007 C 
ATOM      4  C   UNL     1      31.904 -11.628 -20.249  0.00  0.00    +0.010 C 
ATOM      5  C   UNL     1      30.788  -9.504 -20.531  0.00  0.00    -0.003 C 
ATOM      6  C   UNL     1      31.247 -10.526 -19.701  0.00  0.00    +0.000 C 
ENDROOT
BRANCH   1  12
ATOM      7  N   UNL     1      32.600 -13.057 -23.511  0.00  0.00    -0.212 NA
ATOM      8  N   UNL     1      33.518 -13.587 -21.348  0.00  0.00    -0.190 NA
ATOM      9  C   UNL     1      34.039 -14.968 -23.249  0.00  0.00    +0.161 C 
ATOM     10  C   UNL     1      33.248 -14.131 -24.008  0.00  0.00    +0.201 C 
ATOM     11  C   UNL     1      34.139 -14.644 -21.911  0.00  0.00    +0.144 C 
ATOM     12  C   UNL     1      32.776 -12.847 -22.194  0.00  0.00    +0.031 C 
BRANCH   9  13
ATOM     13  O   UNL     1      34.685 -16.053 -23.789  0.00  0.00    -0.476 OA
BRANCH  13  14
ATOM     14  C   UNL     1      34.070 -17.316 -23.625  0.00  0.00    +0.205 C 
BRANCH  14  16
ATOM     15  N   UNL     1      35.527 -19.990 -20.562  0.00  0.00    +0.386 N 
ATOM     16  C   UNL     1      34.425 -17.855 -22.243  0.00  0.00    +0.040 C 
ATOM     17  C   UNL     1      35.931 -18.114 -22.124  0.00  0.00    -0.019 C 
ATOM     18  C   UNL     1      33.653 -19.143 -21.938  0.00  0.00    -0.019 C 
ATOM     19  C   UNL     1      36.283 -18.748 -20.776  0.00  0.00    -0.077 C 
ATOM     20  C   UNL     1      34.080 -19.743 -20.596  0.00  0.00    -0.077 C 
ATOM     21  C   UNL     1      35.912 -20.610 -19.294  0.00  0.00    -0.101 C 
ATOM     22  H   UNL     1      35.755 -20.631 -21.322  0.00  0.00    -0.080 HD
ENDBRANCH  14  16
ENDBRANCH  13  14
ENDBRANCH   9  13
ENDBRANCH   1  12
BRANCH   2  23
ATOM     23  C   UNL     1      30.491  -8.491 -22.798  0.00  0.00    +0.146 C 
BRANCH  23  25
ATOM     24  O   UNL     1      31.225  -6.878 -20.545  0.00  0.00    -0.268 OA
ATOM     25  N   UNL     1      31.389  -7.348 -22.815  0.00  0.00    -0.173 N 
ATOM     26  N   UNL     1      31.901  -7.043 -24.044  0.00  0.00    -0.175 NA
ATOM     27  C   UNL     1      32.703  -6.031 -24.138  0.00  0.00    +0.099 C 
ATOM     28  C   UNL     1      31.680  -6.634 -21.663  0.00  0.00    +0.268 C 
ATOM     29  C   UNL     1      33.127  -5.192 -23.001  0.00  0.00    +0.025 C 
ATOM     30  C   UNL     1      32.618  -5.501 -21.811  0.00  0.00    +0.061 C 
BRANCH  27  31
ATOM     31  C   UNL     1      33.264  -5.685 -25.471  0.00  0.00    +0.020 C 
ATOM     32  C   UNL     1      34.514  -5.073 -25.566  0.00  0.00    +0.012 C 
ATOM     33  C   UNL     1      32.539  -5.973 -26.628  0.00  0.00    +0.002 C 
ATOM     34  C   UNL     1      35.039  -4.749 -26.817  0.00  0.00    +0.068 C 
ATOM     35  C   UNL     1      33.064  -5.650 -27.880  0.00  0.00    +0.001 C 
ATOM     36  C   UNL     1      34.314  -5.038 -27.974  0.00  0.00    +0.010 C 
BRANCH  34  38
ATOM     37  N   UNL     1      37.359  -3.612 -26.994  0.00  0.00    -0.191 NA
ATOM     38  C   UNL     1      36.319  -4.122 -26.915  0.00  0.00    +0.100 C 
ENDBRANCH  34  38
ENDBRANCH  27  31
ENDBRANCH  23  25
ENDBRANCH   2  23
TORSDOF 8
ENDMDL
