MODEL 1
REMARK VINA RESULT:     -11.3      0.000      0.000
REMARK  Name = 445957
REMARK  8 active torsions:
REMARK  status: ('A' for Active; 'I' for Inactive)
REMARK    1  A    between atoms: N_2  and  C_15
REMARK    2  A    between atoms: N_3  and  C_28
REMARK    3  A    between atoms: C_12  and  O_18
REMARK    4  A    between atoms: O_18  and  C_19
REMARK    5  A    between atoms: C_19  and  C_20
REMARK    6  A    between atoms: C_20  and  O_21
REMARK    7  A    between atoms: C_20  and  C_23
REMARK    8  A    between atoms: C_23  and  N_24
REMARK                            x       y       z     vdW  Elec       q    Type
REMARK                         _______ _______ _______ _____ _____    ______ ____
ROOT
ATOM      1 BR   UNL     1      30.067 -24.669 -12.774  0.00  0.00    -0.043 Br
ATOM      2  N   UNL     1      31.208 -21.705 -17.843  0.00  0.00    -0.247 N 
ATOM      3  N   UNL     1      32.848 -24.048 -14.103  0.00  0.00    -0.287 N 
ATOM      4  N   UNL     1      32.031 -22.872 -15.981  0.00  0.00    -0.321 NA
ATOM      5  N   UNL     1      29.664 -22.540 -16.287  0.00  0.00    -0.169 NA
ATOM      6  C   UNL     1      30.956 -22.406 -16.648  0.00  0.00    +0.150 C 
ATOM      7  C   UNL     1      31.753 -23.537 -14.840  0.00  0.00    +0.204 C 
ATOM      8  C   UNL     1      30.474 -23.742 -14.365  0.00  0.00    +0.099 C 
ATOM      9  C   UNL     1      29.458 -23.216 -15.137  0.00  0.00    +0.122 C 
ATOM     10  H   UNL     1      30.393 -21.384 -18.293  0.00  0.00    +0.165 HD
ATOM     11  H   UNL     1      32.639 -24.865 -13.596  0.00  0.00    +0.155 HD
ENDROOT
BRANCH   2  15
ATOM     12  C   UNL     1      34.746 -20.721 -19.863  0.00  0.00    +0.139 C 
ATOM     13  C   UNL     1      33.547 -20.130 -20.245  0.00  0.00    +0.038 C 
ATOM     14  C   UNL     1      34.783 -21.636 -18.817  0.00  0.00    +0.038 C 
ATOM     15  C   UNL     1      32.398 -21.375 -18.523  0.00  0.00    +0.058 C 
ATOM     16  C   UNL     1      32.370 -20.457 -19.574  0.00  0.00    +0.018 C 
ATOM     17  C   UNL     1      33.605 -21.964 -18.144  0.00  0.00    +0.018 C 
BRANCH  12  18
ATOM     18  O   UNL     1      35.902 -20.401 -20.524  0.00  0.00    -0.473 OA
BRANCH  18  19
ATOM     19  C   UNL     1      36.388 -19.073 -20.358  0.00  0.00    +0.232 C 
BRANCH  19  20
ATOM     20  C   UNL     1      36.264 -18.332 -21.688  0.00  0.00    +0.133 C 
BRANCH  20  21
ATOM     21  O   UNL     1      37.568 -17.910 -22.097  0.00  0.00    -0.383 OA
ATOM     22  H   UNL     1      38.051 -18.665 -22.469  0.00  0.00    +0.210 HD
ENDBRANCH  20  21
BRANCH  20  23
ATOM     23  C   UNL     1      35.363 -17.096 -21.612  0.00  0.00    -0.044 C 
BRANCH  23  24
ATOM     24  N   UNL     1      35.008 -16.596 -22.932  0.00  0.00    +0.386 N 
ATOM     25  C   UNL     1      34.389 -15.272 -22.833  0.00  0.00    -0.101 C 
ATOM     26  C   UNL     1      34.105 -17.527 -23.612  0.00  0.00    -0.101 C 
ATOM     27  H   UNL     1      35.864 -16.514 -23.481  0.00  0.00    -0.080 HD
ENDBRANCH  23  24
ENDBRANCH  20  23
ENDBRANCH  19  20
ENDBRANCH  18  19
ENDBRANCH  12  18
ENDBRANCH   2  15
BRANCH   3  28
ATOM     28  C   UNL     1      34.176 -23.614 -13.955  0.00  0.00    +0.050 C 
ATOM     29  C   UNL     1      34.671 -23.280 -12.690  0.00  0.00    +0.015 C 
ATOM     30  C   UNL     1      35.011 -23.514 -15.071  0.00  0.00    +0.015 C 
ATOM     31  C   UNL     1      35.989 -22.848 -12.545  0.00  0.00    +0.001 C 
ATOM     32  C   UNL     1      36.329 -23.082 -14.925  0.00  0.00    +0.001 C 
ATOM     33  C   UNL     1      36.819 -22.749 -13.662  0.00  0.00    +0.000 C 
ENDBRANCH   3  28
TORSDOF 8
ENDMDL
MODEL 2
REMARK VINA RESULT:      -9.5      3.746      7.548
REMARK  Name = 445957
REMARK  8 active torsions:
REMARK  status: ('A' for Active; 'I' for Inactive)
REMARK    1  A    between atoms: N_2  and  C_15
REMARK    2  A    between atoms: N_3  and  C_28
REMARK    3  A    between atoms: C_12  and  O_18
REMARK    4  A    between atoms: O_18  and  C_19
REMARK    5  A    between atoms: C_19  and  C_20
REMARK    6  A    between atoms: C_20  and  O_21
REMARK    7  A    between atoms: C_20  and  C_23
REMARK    8  A    between atoms: C_23  and  N_24
REMARK                            x       y       z     vdW  Elec       q    Type
REMARK                         _______ _______ _______ _____ _____    ______ ____
ROOT
ATOM      1 BR   UNL     1      27.665 -22.982 -16.886  0.00  0.00    -0.043 Br
ATOM      2  N   UNL     1      32.258 -24.237 -13.266  0.00  0.00    -0.247 N 
ATOM      3  N   UNL     1      30.645 -21.997 -17.079  0.00  0.00    -0.287 N 
ATOM      4  N   UNL     1      31.459 -23.118 -15.167  0.00  0.00    -0.321 NA
ATOM      5  N   UNL     1      29.994 -24.484 -13.828  0.00  0.00    -0.169 NA
ATOM      6  C   UNL     1      31.187 -23.932 -14.127  0.00  0.00    +0.150 C 
ATOM      7  C   UNL     1      30.411 -22.847 -15.972  0.00  0.00    +0.204 C 
ATOM      8  C   UNL     1      29.141 -23.350 -15.772  0.00  0.00    +0.099 C 
ATOM      9  C   UNL     1      28.990 -24.171 -14.673  0.00  0.00    +0.122 C 
ATOM     10  H   UNL     1      32.011 -24.835 -12.523  0.00  0.00    +0.165 HD
ATOM     11  H   UNL     1      29.860 -21.465 -17.344  0.00  0.00    +0.155 HD
ENDROOT
BRANCH   2  15
ATOM     12  C   UNL     1      36.292 -23.100 -13.241  0.00  0.00    +0.139 C 
ATOM     13  C   UNL     1      35.636 -23.285 -14.453  0.00  0.00    +0.038 C 
ATOM     14  C   UNL     1      35.623 -23.289 -12.038  0.00  0.00    +0.038 C 
ATOM     15  C   UNL     1      33.616 -23.855 -13.258  0.00  0.00    +0.058 C 
ATOM     16  C   UNL     1      34.294 -23.664 -14.462  0.00  0.00    +0.018 C 
ATOM     17  C   UNL     1      34.281 -23.667 -12.046  0.00  0.00    +0.018 C 
BRANCH  12  18
ATOM     18  O   UNL     1      37.611 -22.730 -13.234  0.00  0.00    -0.473 OA
BRANCH  18  19
ATOM     19  C   UNL     1      38.442 -23.299 -14.241  0.00  0.00    +0.232 C 
BRANCH  19  20
ATOM     20  C   UNL     1      39.028 -24.608 -13.716  0.00  0.00    +0.133 C 
BRANCH  20  21
ATOM     21  O   UNL     1      40.452 -24.481 -13.667  0.00  0.00    -0.383 OA
ATOM     22  H   UNL     1      40.693 -23.541 -13.656  0.00  0.00    +0.210 HD
ENDBRANCH  20  21
BRANCH  20  23
ATOM     23  C   UNL     1      38.685 -25.818 -14.588  0.00  0.00    -0.044 C 
BRANCH  23  24
ATOM     24  N   UNL     1      37.627 -26.631 -14.006  0.00  0.00    +0.386 N 
ATOM     25  C   UNL     1      36.432 -26.607 -14.852  0.00  0.00    -0.101 C 
ATOM     26  C   UNL     1      37.301 -26.164 -12.656  0.00  0.00    -0.101 C 
ATOM     27  H   UNL     1      37.963 -27.592 -13.944  0.00  0.00    -0.080 HD
ENDBRANCH  23  24
ENDBRANCH  20  23
ENDBRANCH  19  20
ENDBRANCH  18  19
ENDBRANCH  12  18
ENDBRANCH   2  15
BRANCH   3  28
ATOM     28  C   UNL     1      31.780 -21.764 -17.873  0.00  0.00    +0.050 C 
ATOM     29  C   UNL     1      32.972 -22.449 -17.614  0.00  0.00    +0.015 C 
ATOM     30  C   UNL     1      31.726 -20.848 -18.926  0.00  0.00    +0.015 C 
ATOM     31  C   UNL     1      34.099 -22.216 -18.401  0.00  0.00    +0.001 C 
ATOM     32  C   UNL     1      32.854 -20.616 -19.713  0.00  0.00    +0.001 C 
ATOM     33  C   UNL     1      34.041 -21.300 -19.451  0.00  0.00    +0.000 C 
ENDBRANCH   3  28
TORSDOF 8
ENDMDL
MODEL 3
REMARK VINA RESULT:      -8.7      9.616     16.168
REMARK  Name = 445957
REMARK  8 active torsions:
REMARK  status: ('A' for Active; 'I' for Inactive)
REMARK    1  A    between atoms: N_2  and  C_15
REMARK    2  A    between atoms: N_3  and  C_28
REMARK    3  A    between atoms: C_12  and  O_18
REMARK    4  A    between atoms: O_18  and  C_19
REMARK    5  A    between atoms: C_19  and  C_20
REMARK    6  A    between atoms: C_20  and  O_21
REMARK    7  A    between atoms: C_20  and  C_23
REMARK    8  A    between atoms: C_23  and  N_24
REMARK                            x       y       z     vdW  Elec       q    Type
REMARK                         _______ _______ _______ _____ _____    ______ ____
ROOT
ATOM      1 BR   UNL     1      31.177  -1.788 -22.656  0.00  0.00    -0.043 Br
ATOM      2  N   UNL     1      30.917  -7.665 -21.575  0.00  0.00    -0.247 N 
ATOM      3  N   UNL     1      32.746  -4.117 -24.071  0.00  0.00    -0.287 N 
ATOM      4  N   UNL     1      31.832  -5.900 -22.821  0.00  0.00    -0.321 NA
ATOM      5  N   UNL     1      30.210  -5.482 -21.090  0.00  0.00    -0.169 NA
ATOM      6  C   UNL     1      30.990  -6.284 -21.841  0.00  0.00    +0.150 C 
ATOM      7  C   UNL     1      31.876  -4.571 -23.050  0.00  0.00    +0.204 C 
ATOM      8  C   UNL     1      31.128  -3.648 -22.349  0.00  0.00    +0.099 C 
ATOM      9  C   UNL     1      30.304  -4.165 -21.371  0.00  0.00    +0.122 C 
ATOM     10  H   UNL     1      30.290  -7.896 -20.852  0.00  0.00    +0.165 HD
ATOM     11  H   UNL     1      33.104  -3.214 -23.914  0.00  0.00    +0.155 HD
ENDROOT
BRANCH   2  15
ATOM     12  C   UNL     1      32.852 -10.984 -23.250  0.00  0.00    +0.139 C 
ATOM     13  C   UNL     1      33.301  -9.702 -23.548  0.00  0.00    +0.038 C 
ATOM     14  C   UNL     1      31.767 -11.176 -22.403  0.00  0.00    +0.038 C 
ATOM     15  C   UNL     1      31.568  -8.782 -22.139  0.00  0.00    +0.058 C 
ATOM     16  C   UNL     1      32.657  -8.598 -22.991  0.00  0.00    +0.018 C 
ATOM     17  C   UNL     1      31.123 -10.071 -21.845  0.00  0.00    +0.018 C 
BRANCH  12  18
ATOM     18  O   UNL     1      33.483 -12.069 -23.800  0.00  0.00    -0.473 OA
BRANCH  18  19
ATOM     19  C   UNL     1      32.753 -13.290 -23.826  0.00  0.00    +0.232 C 
BRANCH  19  20
ATOM     20  C   UNL     1      33.595 -14.355 -24.523  0.00  0.00    +0.133 C 
BRANCH  20  21
ATOM     21  O   UNL     1      33.149 -14.475 -25.876  0.00  0.00    -0.383 OA
ATOM     22  H   UNL     1      32.235 -14.156 -25.945  0.00  0.00    +0.210 HD
ENDBRANCH  20  21
BRANCH  20  23
ATOM     23  C   UNL     1      33.498 -15.734 -23.863  0.00  0.00    -0.044 C 
BRANCH  23  24
ATOM     24  N   UNL     1      34.594 -15.976 -22.937  0.00  0.00    +0.386 N 
ATOM     25  C   UNL     1      34.850 -17.412 -22.803  0.00  0.00    -0.101 C 
ATOM     26  C   UNL     1      34.303 -15.390 -21.627  0.00  0.00    -0.101 C 
ATOM     27  H   UNL     1      35.431 -15.531 -23.313  0.00  0.00    -0.080 HD
ENDBRANCH  23  24
ENDBRANCH  20  23
ENDBRANCH  19  20
ENDBRANCH  18  19
ENDBRANCH  12  18
ENDBRANCH   2  15
BRANCH   3  28
ATOM     28  C   UNL     1      33.197  -4.705 -25.263  0.00  0.00    +0.050 C 
ATOM     29  C   UNL     1      32.283  -5.266 -26.161  0.00  0.00    +0.015 C 
ATOM     30  C   UNL     1      34.562  -4.733 -25.561  0.00  0.00    +0.015 C 
ATOM     31  C   UNL     1      32.732  -5.852 -27.344  0.00  0.00    +0.001 C 
ATOM     32  C   UNL     1      35.010  -5.318 -26.745  0.00  0.00    +0.001 C 
ATOM     33  C   UNL     1      34.096  -5.878 -27.638  0.00  0.00    +0.000 C 
ENDBRANCH   3  28
TORSDOF 8
ENDMDL
