MODEL 1
REMARK VINA RESULT:     -11.7      0.000      0.000
REMARK  Name = 131704305
REMARK  9 active torsions:
REMARK  status: ('A' for Active; 'I' for Inactive)
REMARK    1  A    between atoms: N_2  and  C_23
REMARK    2  A    between atoms: N_3  and  C_13
REMARK    3  A    between atoms: C_5  and  O_11
REMARK    4  A    between atoms: C_13  and  C_14
REMARK    5  A    between atoms: C_14  and  C_16
REMARK    6  A    between atoms: C_23  and  C_24
REMARK    7  A    between atoms: C_24  and  N_25
REMARK    8  A    between atoms: N_25  and  C_28
REMARK    9  A    between atoms: C_28  and  C_31
REMARK                            x       y       z     vdW  Elec       q    Type
REMARK                         _______ _______ _______ _____ _____    ______ ____
ROOT
ATOM      1 CL   UNL     1      32.537 -17.533 -24.686  0.00  0.00    -0.136 Cl
ATOM      2  N   UNL     1      34.216 -17.335 -22.701  0.00  0.00    +0.419 N 
ATOM      3  N   UNL     1      33.411 -14.165 -21.429  0.00  0.00    -0.322 N 
ATOM      4  N   UNL     1      33.835 -14.698 -23.665  0.00  0.00    -0.261 NA
ATOM      5  C   UNL     1      34.760 -16.198 -21.952  0.00  0.00    +0.115 C 
ATOM      6  C   UNL     1      33.964 -14.963 -22.399  0.00  0.00    +0.107 C 
ATOM      7  C   UNL     1      34.194 -17.101 -24.150  0.00  0.00    +0.054 C 
ATOM      8  C   UNL     1      34.504 -15.656 -24.550  0.00  0.00    +0.122 C 
ATOM      9  H   UNL     1      33.245 -17.432 -22.402  0.00  0.00    -0.073 HD
ATOM     10  H   UNL     1      33.548 -14.401 -20.483  0.00  0.00    +0.148 HD
ENDROOT
BRANCH   5  11
ATOM     11  O   UNL     1      34.647 -16.368 -20.548  0.00  0.00    -0.398 OA
ATOM     12  H   UNL     1      33.729 -16.586 -20.321  0.00  0.00    +0.208 HD
ENDBRANCH   5  11
BRANCH   3  13
ATOM     13  C   UNL     1      32.643 -13.002 -21.746  0.00  0.00    +0.086 C 
BRANCH  13  14
ATOM     14  C   UNL     1      31.764 -12.598 -20.568  0.00  0.00    -0.000 C 
BRANCH  14  16
ATOM     15  N   UNL     1      31.653 -10.609 -21.980  0.00  0.00    +0.385 N 
ATOM     16  C   UNL     1      31.173 -11.198 -20.723  0.00  0.00    -0.060 C 
ATOM     17  C   UNL     1      31.557 -10.315 -19.527  0.00  0.00    -0.021 C 
ATOM     18  C   UNL     1      31.041  -8.890 -19.703  0.00  0.00    -0.004 C 
ATOM     19  C   UNL     1      31.478  -8.325 -21.051  0.00  0.00    -0.023 C 
ATOM     20  C   UNL     1      31.107  -9.269 -22.193  0.00  0.00    -0.082 C 
ATOM     21  H   UNL     1      31.371 -11.209 -22.756  0.00  0.00    -0.084 HD
ATOM     22  H   UNL     1      32.670 -10.534 -21.928  0.00  0.00    -0.084 HD
ENDBRANCH  14  16
ENDBRANCH  13  14
ENDBRANCH   3  13
BRANCH   2  23
ATOM     23  C   UNL     1      34.908 -18.582 -22.376  0.00  0.00    -0.095 C 
BRANCH  23  24
ATOM     24  C   UNL     1      33.994 -19.496 -21.564  0.00  0.00    -0.104 C 
BRANCH  24  25
ATOM     25  N   UNL     1      34.592 -19.776 -20.263  0.00  0.00    +0.385 N 
ATOM     26  H   UNL     1      34.263 -19.085 -19.589  0.00  0.00    -0.084 HD
ATOM     27  H   UNL     1      35.606 -19.731 -20.353  0.00  0.00    -0.084 HD
BRANCH  25  28
ATOM     28  C   UNL     1      34.223 -21.106 -19.800  0.00  0.00    -0.054 C 
BRANCH  28  31
ATOM     29 CL   UNL     1      30.642 -23.421 -15.941  0.00  0.00    -0.082 Cl
ATOM     30  S   UNL     1      36.573 -21.662 -16.592  0.00  0.00    -0.087 S 
ATOM     31  C   UNL     1      34.845 -21.428 -18.467  0.00  0.00    -0.037 C 
ATOM     32  C   UNL     1      34.130 -22.009 -17.367  0.00  0.00    +0.001 C 
ATOM     33  C   UNL     1      34.966 -22.194 -16.261  0.00  0.00    +0.029 C 
ATOM     34  C   UNL     1      36.168 -21.191 -18.179  0.00  0.00    +0.029 C 
ATOM     35  C   UNL     1      32.773 -22.399 -17.252  0.00  0.00    +0.012 C 
ATOM     36  C   UNL     1      34.486 -22.751 -15.059  0.00  0.00    +0.007 C 
ATOM     37  C   UNL     1      32.295 -22.952 -16.062  0.00  0.00    +0.058 C 
ATOM     38  C   UNL     1      33.143 -23.126 -14.978  0.00  0.00    +0.012 C 
ENDBRANCH  28  31
ENDBRANCH  25  28
ENDBRANCH  24  25
ENDBRANCH  23  24
ENDBRANCH   2  23
TORSDOF 9
ENDMDL
MODEL 2
REMARK VINA RESULT:     -11.5      1.692      2.026
REMARK  Name = 131704305
REMARK  9 active torsions:
REMARK  status: ('A' for Active; 'I' for Inactive)
REMARK    1  A    between atoms: N_2  and  C_23
REMARK    2  A    between atoms: N_3  and  C_13
REMARK    3  A    between atoms: C_5  and  O_11
REMARK    4  A    between atoms: C_13  and  C_14
REMARK    5  A    between atoms: C_14  and  C_16
REMARK    6  A    between atoms: C_23  and  C_24
REMARK    7  A    between atoms: C_24  and  N_25
REMARK    8  A    between atoms: N_25  and  C_28
REMARK    9  A    between atoms: C_28  and  C_31
REMARK                            x       y       z     vdW  Elec       q    Type
REMARK                         _______ _______ _______ _____ _____    ______ ____
ROOT
ATOM      1 CL   UNL     1      32.526 -17.464 -24.755  0.00  0.00    -0.136 Cl
ATOM      2  N   UNL     1      34.204 -17.132 -22.786  0.00  0.00    +0.419 N 
ATOM      3  N   UNL     1      33.180 -14.022 -21.524  0.00  0.00    -0.322 N 
ATOM      4  N   UNL     1      33.622 -14.536 -23.761  0.00  0.00    -0.261 NA
ATOM      5  C   UNL     1      34.669 -15.954 -22.048  0.00  0.00    +0.115 C 
ATOM      6  C   UNL     1      33.781 -14.783 -22.495  0.00  0.00    +0.107 C 
ATOM      7  C   UNL     1      34.152 -16.909 -24.236  0.00  0.00    +0.054 C 
ATOM      8  C   UNL     1      34.352 -15.448 -24.647  0.00  0.00    +0.122 C 
ATOM      9  H   UNL     1      33.245 -17.298 -22.478  0.00  0.00    -0.073 HD
ATOM     10  H   UNL     1      33.342 -14.241 -20.578  0.00  0.00    +0.148 HD
ENDROOT
BRANCH   5  11
ATOM     11  O   UNL     1      34.581 -16.123 -20.642  0.00  0.00    -0.398 OA
ATOM     12  H   UNL     1      35.021 -16.948 -20.387  0.00  0.00    +0.208 HD
ENDBRANCH   5  11
BRANCH   3  13
ATOM     13  C   UNL     1      32.326 -12.920 -21.841  0.00  0.00    +0.086 C 
BRANCH  13  14
ATOM     14  C   UNL     1      31.563 -12.456 -20.605  0.00  0.00    -0.000 C 
BRANCH  14  16
ATOM     15  N   UNL     1      31.595 -10.426 -21.961  0.00  0.00    +0.385 N 
ATOM     16  C   UNL     1      31.087 -11.008 -20.712  0.00  0.00    -0.060 C 
ATOM     17  C   UNL     1      31.560 -10.195 -19.500  0.00  0.00    -0.021 C 
ATOM     18  C   UNL     1      31.161  -8.728 -19.628  0.00  0.00    -0.004 C 
ATOM     19  C   UNL     1      31.623  -8.162 -20.968  0.00  0.00    -0.023 C 
ATOM     20  C   UNL     1      31.157  -9.040 -22.128  0.00  0.00    -0.082 C 
ATOM     21  H   UNL     1      31.253 -10.978 -22.747  0.00  0.00    -0.084 HD
ATOM     22  H   UNL     1      32.615 -10.435 -21.925  0.00  0.00    -0.084 HD
ENDBRANCH  14  16
ENDBRANCH  13  14
ENDBRANCH   3  13
BRANCH   2  23
ATOM     23  C   UNL     1      34.988 -18.323 -22.461  0.00  0.00    -0.095 C 
BRANCH  23  24
ATOM     24  C   UNL     1      34.121 -19.338 -21.720  0.00  0.00    -0.104 C 
BRANCH  24  25
ATOM     25  N   UNL     1      34.465 -19.352 -20.302  0.00  0.00    +0.385 N 
ATOM     26  H   UNL     1      33.624 -19.177 -19.753  0.00  0.00    -0.084 HD
ATOM     27  H   UNL     1      35.161 -18.628 -20.128  0.00  0.00    -0.084 HD
BRANCH  25  28
ATOM     28  C   UNL     1      35.025 -20.639 -19.918  0.00  0.00    -0.054 C 
BRANCH  28  31
ATOM     29 CL   UNL     1      38.053 -22.545 -15.416  0.00  0.00    -0.082 Cl
ATOM     30  S   UNL     1      32.216 -22.247 -17.542  0.00  0.00    -0.087 S 
ATOM     31  C   UNL     1      34.212 -21.306 -18.840  0.00  0.00    -0.037 C 
ATOM     32  C   UNL     1      34.770 -21.851 -17.635  0.00  0.00    +0.001 C 
ATOM     33  C   UNL     1      33.775 -22.404 -16.823  0.00  0.00    +0.029 C 
ATOM     34  C   UNL     1      32.848 -21.455 -18.913  0.00  0.00    +0.029 C 
ATOM     35  C   UNL     1      36.110 -21.902 -17.181  0.00  0.00    +0.012 C 
ATOM     36  C   UNL     1      34.083 -23.002 -15.584  0.00  0.00    +0.007 C 
ATOM     37  C   UNL     1      36.418 -22.492 -15.952  0.00  0.00    +0.058 C 
ATOM     38  C   UNL     1      35.414 -23.036 -15.164  0.00  0.00    +0.012 C 
ENDBRANCH  28  31
ENDBRANCH  25  28
ENDBRANCH  24  25
ENDBRANCH  23  24
ENDBRANCH   2  23
TORSDOF 9
ENDMDL
MODEL 3
REMARK VINA RESULT:     -11.3      2.084      3.346
REMARK  Name = 131704305
REMARK  9 active torsions:
REMARK  status: ('A' for Active; 'I' for Inactive)
REMARK    1  A    between atoms: N_2  and  C_23
REMARK    2  A    between atoms: N_3  and  C_13
REMARK    3  A    between atoms: C_5  and  O_11
REMARK    4  A    between atoms: C_13  and  C_14
REMARK    5  A    between atoms: C_14  and  C_16
REMARK    6  A    between atoms: C_23  and  C_24
REMARK    7  A    between atoms: C_24  and  N_25
REMARK    8  A    between atoms: N_25  and  C_28
REMARK    9  A    between atoms: C_28  and  C_31
REMARK                            x       y       z     vdW  Elec       q    Type
REMARK                         _______ _______ _______ _____ _____    ______ ____
ROOT
ATOM      1 CL   UNL     1      32.443 -19.736 -20.231  0.00  0.00    -0.136 Cl
ATOM      2  N   UNL     1      35.031 -19.507 -20.462  0.00  0.00    +0.419 N 
ATOM      3  N   UNL     1      35.313 -16.338 -21.943  0.00  0.00    -0.322 N 
ATOM      4  N   UNL     1      33.923 -18.081 -22.646  0.00  0.00    -0.261 NA
ATOM      5  C   UNL     1      35.897 -18.680 -21.308  0.00  0.00    +0.115 C 
ATOM      6  C   UNL     1      34.979 -17.667 -22.009  0.00  0.00    +0.107 C 
ATOM      7  C   UNL     1      33.908 -20.095 -21.203  0.00  0.00    +0.054 C 
ATOM      8  C   UNL     1      33.736 -19.535 -22.618  0.00  0.00    +0.122 C 
ATOM      9  H   UNL     1      34.629 -18.877 -19.767  0.00  0.00    -0.073 HD
ATOM     10  H   UNL     1      36.130 -16.077 -21.460  0.00  0.00    +0.148 HD
ENDROOT
BRANCH   5  11
ATOM     11  O   UNL     1      36.893 -17.999 -20.563  0.00  0.00    -0.398 OA
ATOM     12  H   UNL     1      36.471 -17.399 -19.929  0.00  0.00    +0.208 HD
ENDBRANCH   5  11
BRANCH   3  13
ATOM     13  C   UNL     1      34.516 -15.321 -22.552  0.00  0.00    +0.086 C 
BRANCH  13  14
ATOM     14  C   UNL     1      33.862 -14.440 -21.493  0.00  0.00    -0.000 C 
BRANCH  14  16
ATOM     15  N   UNL     1      33.698 -12.414 -22.845  0.00  0.00    +0.385 N 
ATOM     16  C   UNL     1      32.915 -13.400 -22.089  0.00  0.00    -0.060 C 
ATOM     17  C   UNL     1      32.102 -12.715 -20.981  0.00  0.00    -0.021 C 
ATOM     18  C   UNL     1      31.208 -11.618 -21.550  0.00  0.00    -0.004 C 
ATOM     19  C   UNL     1      32.024 -10.651 -22.403  0.00  0.00    -0.023 C 
ATOM     20  C   UNL     1      32.842 -11.397 -23.454  0.00  0.00    -0.082 C 
ATOM     21  H   UNL     1      34.216 -12.896 -23.581  0.00  0.00    -0.084 HD
ATOM     22  H   UNL     1      34.335 -11.949 -22.197  0.00  0.00    -0.084 HD
ENDBRANCH  14  16
ENDBRANCH  13  14
ENDBRANCH   3  13
BRANCH   2  23
ATOM     23  C   UNL     1      35.788 -20.534 -19.747  0.00  0.00    -0.095 C 
BRANCH  23  24
ATOM     24  C   UNL     1      34.901 -21.744 -19.468  0.00  0.00    -0.104 C 
BRANCH  24  25
ATOM     25  N   UNL     1      34.570 -21.807 -18.048  0.00  0.00    +0.385 N 
ATOM     26  H   UNL     1      34.511 -20.859 -17.677  0.00  0.00    -0.084 HD
ATOM     27  H   UNL     1      35.297 -22.334 -17.567  0.00  0.00    -0.084 HD
BRANCH  25  28
ATOM     28  C   UNL     1      33.295 -22.480 -17.844  0.00  0.00    -0.054 C 
BRANCH  28  31
ATOM     29 CL   UNL     1      27.876 -22.133 -15.951  0.00  0.00    -0.082 Cl
ATOM     30  S   UNL     1      33.584 -23.683 -14.025  0.00  0.00    -0.087 S 
ATOM     31  C   UNL     1      33.096 -22.880 -16.407  0.00  0.00    -0.037 C 
ATOM     32  C   UNL     1      31.826 -22.867 -15.738  0.00  0.00    +0.001 C 
ATOM     33  C   UNL     1      31.950 -23.290 -14.410  0.00  0.00    +0.029 C 
ATOM     34  C   UNL     1      34.123 -23.299 -15.595  0.00  0.00    +0.029 C 
ATOM     35  C   UNL     1      30.540 -22.506 -16.208  0.00  0.00    +0.012 C 
ATOM     36  C   UNL     1      30.834 -23.358 -13.552  0.00  0.00    +0.007 C 
ATOM     37  C   UNL     1      29.432 -22.575 -15.360  0.00  0.00    +0.058 C 
ATOM     38  C   UNL     1      29.579 -22.997 -14.047  0.00  0.00    +0.012 C 
ENDBRANCH  28  31
ENDBRANCH  25  28
ENDBRANCH  24  25
ENDBRANCH  23  24
ENDBRANCH   2  23
TORSDOF 9
ENDMDL
MODEL 4
REMARK VINA RESULT:     -11.2      2.846      4.090
REMARK  Name = 131704305
REMARK  9 active torsions:
REMARK  status: ('A' for Active; 'I' for Inactive)
REMARK    1  A    between atoms: N_2  and  C_23
REMARK    2  A    between atoms: N_3  and  C_13
REMARK    3  A    between atoms: C_5  and  O_11
REMARK    4  A    between atoms: C_13  and  C_14
REMARK    5  A    between atoms: C_14  and  C_16
REMARK    6  A    between atoms: C_23  and  C_24
REMARK    7  A    between atoms: C_24  and  N_25
REMARK    8  A    between atoms: N_25  and  C_28
REMARK    9  A    between atoms: C_28  and  C_31
REMARK                            x       y       z     vdW  Elec       q    Type
REMARK                         _______ _______ _______ _____ _____    ______ ____
ROOT
ATOM      1 CL   UNL     1      32.345 -19.769 -20.002  0.00  0.00    -0.136 Cl
ATOM      2  N   UNL     1      34.939 -19.602 -20.225  0.00  0.00    +0.419 N 
ATOM      3  N   UNL     1      35.295 -16.496 -21.820  0.00  0.00    -0.322 N 
ATOM      4  N   UNL     1      33.873 -18.235 -22.467  0.00  0.00    -0.261 NA
ATOM      5  C   UNL     1      35.826 -18.824 -21.096  0.00  0.00    +0.115 C 
ATOM      6  C   UNL     1      34.933 -17.820 -21.839  0.00  0.00    +0.107 C 
ATOM      7  C   UNL     1      33.808 -20.194 -20.951  0.00  0.00    +0.054 C 
ATOM      8  C   UNL     1      33.656 -19.683 -22.387  0.00  0.00    +0.122 C 
ATOM      9  H   UNL     1      34.545 -18.938 -19.556  0.00  0.00    -0.073 HD
ATOM     10  H   UNL     1      36.114 -16.233 -21.341  0.00  0.00    +0.148 HD
ENDROOT
BRANCH   5  11
ATOM     11  O   UNL     1      36.832 -18.136 -20.370  0.00  0.00    -0.398 OA
ATOM     12  H   UNL     1      37.698 -18.311 -20.770  0.00  0.00    +0.208 HD
ENDBRANCH   5  11
BRANCH   3  13
ATOM     13  C   UNL     1      34.522 -15.486 -22.472  0.00  0.00    +0.086 C 
BRANCH  13  14
ATOM     14  C   UNL     1      33.919 -14.526 -21.452  0.00  0.00    -0.000 C 
BRANCH  14  16
ATOM     15  N   UNL     1      33.786 -12.518 -22.834  0.00  0.00    +0.385 N 
ATOM     16  C   UNL     1      32.986 -13.496 -22.087  0.00  0.00    -0.060 C 
ATOM     17  C   UNL     1      32.140 -12.801 -21.012  0.00  0.00    -0.021 C 
ATOM     18  C   UNL     1      31.258 -11.714 -21.619  0.00  0.00    -0.004 C 
ATOM     19  C   UNL     1      32.094 -10.755 -22.461  0.00  0.00    -0.023 C 
ATOM     20  C   UNL     1      32.944 -11.511 -23.480  0.00  0.00    -0.082 C 
ATOM     21  H   UNL     1      34.325 -13.007 -23.549  0.00  0.00    -0.084 HD
ATOM     22  H   UNL     1      34.403 -12.041 -22.175  0.00  0.00    -0.084 HD
ENDBRANCH  14  16
ENDBRANCH  13  14
ENDBRANCH   3  13
BRANCH   2  23
ATOM     23  C   UNL     1      35.671 -20.616 -19.467  0.00  0.00    -0.095 C 
BRANCH  23  24
ATOM     24  C   UNL     1      34.785 -21.837 -19.230  0.00  0.00    -0.104 C 
BRANCH  24  25
ATOM     25  N   UNL     1      34.330 -21.865 -17.844  0.00  0.00    +0.385 N 
ATOM     26  H   UNL     1      33.764 -22.700 -17.696  0.00  0.00    -0.084 HD
ATOM     27  H   UNL     1      33.780 -21.026 -17.664  0.00  0.00    -0.084 HD
BRANCH  25  28
ATOM     28  C   UNL     1      35.461 -21.887 -16.928  0.00  0.00    -0.054 C 
BRANCH  28  31
ATOM     29 CL   UNL     1      39.959 -24.578 -14.561  0.00  0.00    -0.082 Cl
ATOM     30  S   UNL     1      33.863 -23.681 -13.711  0.00  0.00    -0.087 S 
ATOM     31  C   UNL     1      35.152 -22.662 -15.674  0.00  0.00    -0.037 C 
ATOM     32  C   UNL     1      36.127 -23.404 -14.928  0.00  0.00    +0.001 C 
ATOM     33  C   UNL     1      35.550 -24.019 -13.813  0.00  0.00    +0.029 C 
ATOM     34  C   UNL     1      33.893 -22.730 -15.125  0.00  0.00    +0.029 C 
ATOM     35  C   UNL     1      37.514 -23.588 -15.151  0.00  0.00    +0.012 C 
ATOM     36  C   UNL     1      36.315 -24.806 -12.927  0.00  0.00    +0.007 C 
ATOM     37  C   UNL     1      38.274 -24.366 -14.274  0.00  0.00    +0.058 C 
ATOM     38  C   UNL     1      37.679 -24.967 -13.175  0.00  0.00    +0.012 C 
ENDBRANCH  28  31
ENDBRANCH  25  28
ENDBRANCH  24  25
ENDBRANCH  23  24
ENDBRANCH   2  23
TORSDOF 9
ENDMDL
MODEL 5
REMARK VINA RESULT:     -11.0      3.723     10.361
REMARK  Name = 131704305
REMARK  9 active torsions:
REMARK  status: ('A' for Active; 'I' for Inactive)
REMARK    1  A    between atoms: N_2  and  C_23
REMARK    2  A    between atoms: N_3  and  C_13
REMARK    3  A    between atoms: C_5  and  O_11
REMARK    4  A    between atoms: C_13  and  C_14
REMARK    5  A    between atoms: C_14  and  C_16
REMARK    6  A    between atoms: C_23  and  C_24
REMARK    7  A    between atoms: C_24  and  N_25
REMARK    8  A    between atoms: N_25  and  C_28
REMARK    9  A    between atoms: C_28  and  C_31
REMARK                            x       y       z     vdW  Elec       q    Type
REMARK                         _______ _______ _______ _____ _____    ______ ____
ROOT
ATOM      1 CL   UNL     1      36.146 -20.858 -18.518  0.00  0.00    -0.136 Cl
ATOM      2  N   UNL     1      33.892 -20.228 -19.669  0.00  0.00    +0.419 N 
ATOM      3  N   UNL     1      31.587 -21.954 -17.663  0.00  0.00    -0.322 N 
ATOM      4  N   UNL     1      33.530 -22.835 -18.619  0.00  0.00    -0.261 NA
ATOM      5  C   UNL     1      32.559 -20.838 -19.672  0.00  0.00    +0.115 C 
ATOM      6  C   UNL     1      32.584 -21.943 -18.606  0.00  0.00    +0.107 C 
ATOM      7  C   UNL     1      34.968 -21.216 -19.823  0.00  0.00    +0.054 C 
ATOM      8  C   UNL     1      34.498 -22.668 -19.708  0.00  0.00    +0.122 C 
ATOM      9  H   UNL     1      34.008 -19.806 -18.747  0.00  0.00    -0.073 HD
ATOM     10  H   UNL     1      30.886 -21.264 -17.704  0.00  0.00    +0.148 HD
ENDROOT
BRANCH   5  11
ATOM     11  O   UNL     1      31.533 -19.902 -19.379  0.00  0.00    -0.398 OA
ATOM     12  H   UNL     1      31.666 -19.100 -19.906  0.00  0.00    +0.208 HD
ENDBRANCH   5  11
BRANCH   3  13
ATOM     13  C   UNL     1      31.533 -22.934 -16.624  0.00  0.00    +0.086 C 
BRANCH  13  14
ATOM     14  C   UNL     1      31.977 -22.337 -15.294  0.00  0.00    -0.000 C 
BRANCH  14  16
ATOM     15  N   UNL     1      33.127 -23.004 -13.247  0.00  0.00    +0.385 N 
ATOM     16  C   UNL     1      33.206 -23.034 -14.713  0.00  0.00    -0.060 C 
ATOM     17  C   UNL     1      34.493 -22.354 -15.202  0.00  0.00    -0.021 C 
ATOM     18  C   UNL     1      35.728 -22.987 -14.568  0.00  0.00    -0.004 C 
ATOM     19  C   UNL     1      35.590 -23.026 -13.049  0.00  0.00    -0.023 C 
ATOM     20  C   UNL     1      34.272 -23.673 -12.630  0.00  0.00    -0.082 C 
ATOM     21  H   UNL     1      32.270 -23.474 -12.952  0.00  0.00    -0.084 HD
ATOM     22  H   UNL     1      33.128 -22.029 -12.947  0.00  0.00    -0.084 HD
ENDBRANCH  14  16
ENDBRANCH  13  14
ENDBRANCH   3  13
BRANCH   2  23
ATOM     23  C   UNL     1      34.006 -19.161 -20.663  0.00  0.00    -0.095 C 
BRANCH  23  24
ATOM     24  C   UNL     1      35.458 -19.013 -21.112  0.00  0.00    -0.104 C 
BRANCH  24  25
ATOM     25  N   UNL     1      35.817 -17.601 -21.191  0.00  0.00    +0.385 N 
ATOM     26  H   UNL     1      36.205 -17.407 -22.114  0.00  0.00    -0.084 HD
ATOM     27  H   UNL     1      36.504 -17.399 -20.465  0.00  0.00    -0.084 HD
BRANCH  25  28
ATOM     28  C   UNL     1      34.650 -16.758 -20.977  0.00  0.00    -0.054 C 
BRANCH  28  31
ATOM     29 CL   UNL     1      31.954 -11.764 -20.050  0.00  0.00    -0.082 Cl
ATOM     30  S   UNL     1      33.991 -15.374 -24.687  0.00  0.00    -0.087 S 
ATOM     31  C   UNL     1      34.271 -15.999 -22.220  0.00  0.00    -0.037 C 
ATOM     32  C   UNL     1      33.593 -14.734 -22.214  0.00  0.00    +0.001 C 
ATOM     33  C   UNL     1      33.374 -14.271 -23.515  0.00  0.00    +0.029 C 
ATOM     34  C   UNL     1      34.542 -16.453 -23.489  0.00  0.00    +0.029 C 
ATOM     35  C   UNL     1      33.141 -13.936 -21.134  0.00  0.00    +0.012 C 
ATOM     36  C   UNL     1      32.721 -13.046 -23.761  0.00  0.00    +0.007 C 
ATOM     37  C   UNL     1      32.496 -12.721 -21.375  0.00  0.00    +0.058 C 
ATOM     38  C   UNL     1      32.289 -12.282 -22.675  0.00  0.00    +0.012 C 
ENDBRANCH  28  31
ENDBRANCH  25  28
ENDBRANCH  24  25
ENDBRANCH  23  24
ENDBRANCH   2  23
TORSDOF 9
ENDMDL
MODEL 6
REMARK VINA RESULT:     -11.0      4.509      7.351
REMARK  Name = 131704305
REMARK  9 active torsions:
REMARK  status: ('A' for Active; 'I' for Inactive)
REMARK    1  A    between atoms: N_2  and  C_23
REMARK    2  A    between atoms: N_3  and  C_13
REMARK    3  A    between atoms: C_5  and  O_11
REMARK    4  A    between atoms: C_13  and  C_14
REMARK    5  A    between atoms: C_14  and  C_16
REMARK    6  A    between atoms: C_23  and  C_24
REMARK    7  A    between atoms: C_24  and  N_25
REMARK    8  A    between atoms: N_25  and  C_28
REMARK    9  A    between atoms: C_28  and  C_31
REMARK                            x       y       z     vdW  Elec       q    Type
REMARK                         _______ _______ _______ _____ _____    ______ ____
ROOT
ATOM      1 CL   UNL     1      31.111  -9.632 -19.581  0.00  0.00    -0.136 Cl
ATOM      2  N   UNL     1      31.795 -10.846 -21.786  0.00  0.00    +0.419 N 
ATOM      3  N   UNL     1      33.855  -8.435 -23.290  0.00  0.00    -0.322 N 
ATOM      4  N   UNL     1      31.719  -8.082 -22.408  0.00  0.00    -0.261 NA
ATOM      5  C   UNL     1      32.299 -10.374 -23.080  0.00  0.00    +0.115 C 
ATOM      6  C   UNL     1      32.616  -8.882 -22.904  0.00  0.00    +0.107 C 
ATOM      7  C   UNL     1      30.685 -10.030 -21.278  0.00  0.00    +0.054 C 
ATOM      8  C   UNL     1      30.453  -8.738 -22.067  0.00  0.00    +0.122 C 
ATOM      9  H   UNL     1      32.566 -10.738 -21.126  0.00  0.00    -0.073 HD
ATOM     10  H   UNL     1      34.495  -9.078 -23.673  0.00  0.00    +0.148 HD
ENDROOT
BRANCH   5  11
ATOM     11  O   UNL     1      33.461 -11.073 -23.497  0.00  0.00    -0.398 OA
ATOM     12  H   UNL     1      33.519 -11.056 -24.465  0.00  0.00    +0.208 HD
ENDBRANCH   5  11
BRANCH   3  13
ATOM     13  C   UNL     1      34.247  -7.067 -23.154  0.00  0.00    +0.086 C 
BRANCH  13  14
ATOM     14  C   UNL     1      33.783  -6.251 -24.355  0.00  0.00    -0.000 C 
BRANCH  14  16
ATOM     15  N   UNL     1      32.604  -5.155 -22.520  0.00  0.00    +0.385 N 
ATOM     16  C   UNL     1      32.830  -5.121 -23.970  0.00  0.00    -0.060 C 
ATOM     17  C   UNL     1      31.503  -5.252 -24.732  0.00  0.00    -0.021 C 
ATOM     18  C   UNL     1      30.510  -4.177 -24.301  0.00  0.00    -0.004 C 
ATOM     19  C   UNL     1      30.352  -4.171 -22.784  0.00  0.00    -0.023 C 
ATOM     20  C   UNL     1      31.708  -4.083 -22.088  0.00  0.00    -0.082 C 
ATOM     21  H   UNL     1      33.499  -5.052 -22.042  0.00  0.00    -0.084 HD
ATOM     22  H   UNL     1      32.167  -6.048 -22.287  0.00  0.00    -0.084 HD
ENDBRANCH  14  16
ENDBRANCH  13  14
ENDBRANCH   3  13
BRANCH   2  23
ATOM     23  C   UNL     1      31.436 -12.263 -21.824  0.00  0.00    -0.095 C 
BRANCH  23  24
ATOM     24  C   UNL     1      32.143 -13.016 -20.700  0.00  0.00    -0.104 C 
BRANCH  24  25
ATOM     25  N   UNL     1      33.579 -13.064 -20.954  0.00  0.00    +0.385 N 
ATOM     26  H   UNL     1      34.053 -12.432 -20.310  0.00  0.00    -0.084 HD
ATOM     27  H   UNL     1      33.749 -12.783 -21.919  0.00  0.00    -0.084 HD
BRANCH  25  28
ATOM     28  C   UNL     1      34.093 -14.413 -20.764  0.00  0.00    -0.054 C 
BRANCH  28  31
ATOM     29 CL   UNL     1      35.015 -20.058 -20.170  0.00  0.00    -0.082 Cl
ATOM     30  S   UNL     1      33.985 -15.759 -24.545  0.00  0.00    -0.087 S 
ATOM     31  C   UNL     1      34.106 -15.195 -22.051  0.00  0.00    -0.037 C 
ATOM     32  C   UNL     1      34.320 -16.612 -22.127  0.00  0.00    +0.001 C 
ATOM     33  C   UNL     1      34.277 -17.059 -23.451  0.00  0.00    +0.029 C 
ATOM     34  C   UNL     1      33.914 -14.616 -23.282  0.00  0.00    +0.029 C 
ATOM     35  C   UNL     1      34.552 -17.565 -21.106  0.00  0.00    +0.012 C 
ATOM     36  C   UNL     1      34.462 -18.418 -23.776  0.00  0.00    +0.007 C 
ATOM     37  C   UNL     1      34.734 -18.913 -21.425  0.00  0.00    +0.058 C 
ATOM     38  C   UNL     1      34.689 -19.333 -22.746  0.00  0.00    +0.012 C 
ENDBRANCH  28  31
ENDBRANCH  25  28
ENDBRANCH  24  25
ENDBRANCH  23  24
ENDBRANCH   2  23
TORSDOF 9
ENDMDL
MODEL 7
REMARK VINA RESULT:     -10.8      3.792     10.487
REMARK  Name = 131704305
REMARK  9 active torsions:
REMARK  status: ('A' for Active; 'I' for Inactive)
REMARK    1  A    between atoms: N_2  and  C_23
REMARK    2  A    between atoms: N_3  and  C_13
REMARK    3  A    between atoms: C_5  and  O_11
REMARK    4  A    between atoms: C_13  and  C_14
REMARK    5  A    between atoms: C_14  and  C_16
REMARK    6  A    between atoms: C_23  and  C_24
REMARK    7  A    between atoms: C_24  and  N_25
REMARK    8  A    between atoms: N_25  and  C_28
REMARK    9  A    between atoms: C_28  and  C_31
REMARK                            x       y       z     vdW  Elec       q    Type
REMARK                         _______ _______ _______ _____ _____    ______ ____
ROOT
ATOM      1 CL   UNL     1      36.328 -19.930 -18.722  0.00  0.00    -0.136 Cl
ATOM      2  N   UNL     1      34.010 -19.808 -19.912  0.00  0.00    +0.419 N 
ATOM      3  N   UNL     1      32.098 -21.977 -17.923  0.00  0.00    -0.322 N 
ATOM      4  N   UNL     1      34.200 -22.425 -18.842  0.00  0.00    -0.261 NA
ATOM      5  C   UNL     1      32.839 -20.691 -19.929  0.00  0.00    +0.115 C 
ATOM      6  C   UNL     1      33.085 -21.757 -18.851  0.00  0.00    +0.107 C 
ATOM      7  C   UNL     1      35.275 -20.542 -20.040  0.00  0.00    +0.054 C 
ATOM      8  C   UNL     1      35.127 -22.061 -19.917  0.00  0.00    +0.122 C 
ATOM      9  H   UNL     1      34.018 -19.365 -18.993  0.00  0.00    -0.073 HD
ATOM     10  H   UNL     1      31.265 -21.455 -17.981  0.00  0.00    +0.148 HD
ENDROOT
BRANCH   5  11
ATOM     11  O   UNL     1      31.632 -19.997 -19.660  0.00  0.00    -0.398 OA
ATOM     12  H   UNL     1      31.438 -20.039 -18.711  0.00  0.00    +0.208 HD
ENDBRANCH   5  11
BRANCH   3  13
ATOM     13  C   UNL     1      32.238 -22.939 -16.875  0.00  0.00    +0.086 C 
BRANCH  13  14
ATOM     14  C   UNL     1      31.985 -22.297 -15.516  0.00  0.00    -0.000 C 
BRANCH  14  16
ATOM     15  N   UNL     1      31.187 -24.117 -14.098  0.00  0.00    +0.385 N 
ATOM     16  C   UNL     1      30.776 -22.892 -14.796  0.00  0.00    -0.060 C 
ATOM     17  C   UNL     1      29.647 -23.187 -15.793  0.00  0.00    -0.021 C 
ATOM     18  C   UNL     1      28.461 -23.855 -15.103  0.00  0.00    -0.004 C 
ATOM     19  C   UNL     1      28.920 -25.077 -14.314  0.00  0.00    -0.023 C 
ATOM     20  C   UNL     1      30.072 -24.727 -13.375  0.00  0.00    -0.082 C 
ATOM     21  H   UNL     1      31.927 -23.888 -13.434  0.00  0.00    -0.084 HD
ATOM     22  H   UNL     1      31.518 -24.785 -14.795  0.00  0.00    -0.084 HD
ENDBRANCH  14  16
ENDBRANCH  13  14
ENDBRANCH   3  13
BRANCH   2  23
ATOM     23  C   UNL     1      33.908 -18.749 -20.916  0.00  0.00    -0.095 C 
BRANCH  23  24
ATOM     24  C   UNL     1      35.096 -18.815 -21.873  0.00  0.00    -0.104 C 
BRANCH  24  25
ATOM     25  N   UNL     1      35.704 -17.496 -22.009  0.00  0.00    +0.385 N 
ATOM     26  H   UNL     1      35.905 -17.321 -22.994  0.00  0.00    -0.084 HD
ATOM     27  H   UNL     1      36.563 -17.474 -21.461  0.00  0.00    -0.084 HD
BRANCH  25  28
ATOM     28  C   UNL     1      34.809 -16.460 -21.514  0.00  0.00    -0.054 C 
BRANCH  28  31
ATOM     29 CL   UNL     1      32.003 -11.720 -19.862  0.00  0.00    -0.082 Cl
ATOM     30  S   UNL     1      33.559 -14.881 -24.987  0.00  0.00    -0.087 S 
ATOM     31  C   UNL     1      34.218 -15.647 -22.635  0.00  0.00    -0.037 C 
ATOM     32  C   UNL     1      33.479 -14.431 -22.442  0.00  0.00    +0.001 C 
ATOM     33  C   UNL     1      33.054 -13.899 -23.663  0.00  0.00    +0.029 C 
ATOM     34  C   UNL     1      34.332 -15.999 -23.958  0.00  0.00    +0.029 C 
ATOM     35  C   UNL     1      33.142 -13.736 -21.255  0.00  0.00    +0.012 C 
ATOM     36  C   UNL     1      32.308 -12.705 -23.727  0.00  0.00    +0.007 C 
ATOM     37  C   UNL     1      32.404 -12.552 -21.315  0.00  0.00    +0.058 C 
ATOM     38  C   UNL     1      31.992 -12.043 -22.539  0.00  0.00    +0.012 C 
ENDBRANCH  28  31
ENDBRANCH  25  28
ENDBRANCH  24  25
ENDBRANCH  23  24
ENDBRANCH   2  23
TORSDOF 9
ENDMDL
MODEL 8
REMARK VINA RESULT:     -10.5      3.558     10.642
REMARK  Name = 131704305
REMARK  9 active torsions:
REMARK  status: ('A' for Active; 'I' for Inactive)
REMARK    1  A    between atoms: N_2  and  C_23
REMARK    2  A    between atoms: N_3  and  C_13
REMARK    3  A    between atoms: C_5  and  O_11
REMARK    4  A    between atoms: C_13  and  C_14
REMARK    5  A    between atoms: C_14  and  C_16
REMARK    6  A    between atoms: C_23  and  C_24
REMARK    7  A    between atoms: C_24  and  N_25
REMARK    8  A    between atoms: N_25  and  C_28
REMARK    9  A    between atoms: C_28  and  C_31
REMARK                            x       y       z     vdW  Elec       q    Type
REMARK                         _______ _______ _______ _____ _____    ______ ____
ROOT
ATOM      1 CL   UNL     1      36.300 -20.245 -18.831  0.00  0.00    -0.136 Cl
ATOM      2  N   UNL     1      33.925 -19.953 -19.869  0.00  0.00    +0.419 N 
ATOM      3  N   UNL     1      32.010 -22.058 -17.815  0.00  0.00    -0.322 N 
ATOM      4  N   UNL     1      34.021 -22.605 -18.875  0.00  0.00    -0.261 NA
ATOM      5  C   UNL     1      32.704 -20.764 -19.833  0.00  0.00    +0.115 C 
ATOM      6  C   UNL     1      32.950 -21.872 -18.798  0.00  0.00    +0.107 C 
ATOM      7  C   UNL     1      35.133 -20.757 -20.094  0.00  0.00    +0.054 C 
ATOM      8  C   UNL     1      34.900 -22.268 -19.998  0.00  0.00    +0.122 C 
ATOM      9  H   UNL     1      34.016 -19.537 -18.942  0.00  0.00    -0.073 HD
ATOM     10  H   UNL     1      31.209 -21.486 -17.808  0.00  0.00    +0.148 HD
ENDROOT
BRANCH   5  11
ATOM     11  O   UNL     1      31.560 -20.006 -19.472  0.00  0.00    -0.398 OA
ATOM     12  H   UNL     1      31.751 -19.493 -18.672  0.00  0.00    +0.208 HD
ENDBRANCH   5  11
BRANCH   3  13
ATOM     13  C   UNL     1      32.156 -23.055 -16.801  0.00  0.00    +0.086 C 
BRANCH  13  14
ATOM     14  C   UNL     1      33.024 -22.540 -15.659  0.00  0.00    -0.000 C 
BRANCH  14  16
ATOM     15  N   UNL     1      34.496 -24.185 -14.618  0.00  0.00    +0.385 N 
ATOM     16  C   UNL     1      34.424 -23.151 -15.657  0.00  0.00    -0.060 C 
ATOM     17  C   UNL     1      35.485 -22.066 -15.419  0.00  0.00    -0.021 C 
ATOM     18  C   UNL     1      36.883 -22.670 -15.335  0.00  0.00    -0.004 C 
ATOM     19  C   UNL     1      36.918 -23.800 -14.311  0.00  0.00    -0.023 C 
ATOM     20  C   UNL     1      35.813 -24.820 -14.577  0.00  0.00    -0.082 C 
ATOM     21  H   UNL     1      33.791 -24.898 -14.810  0.00  0.00    -0.084 HD
ATOM     22  H   UNL     1      34.328 -23.742 -13.714  0.00  0.00    -0.084 HD
ENDBRANCH  14  16
ENDBRANCH  13  14
ENDBRANCH   3  13
BRANCH   2  23
ATOM     23  C   UNL     1      33.827 -18.863 -20.839  0.00  0.00    -0.095 C 
BRANCH  23  24
ATOM     24  C   UNL     1      34.957 -18.962 -21.860  0.00  0.00    -0.104 C 
BRANCH  24  25
ATOM     25  N   UNL     1      35.463 -17.632 -22.181  0.00  0.00    +0.385 N 
ATOM     26  H   UNL     1      36.338 -17.723 -22.697  0.00  0.00    -0.084 HD
ATOM     27  H   UNL     1      35.613 -17.122 -21.311  0.00  0.00    -0.084 HD
BRANCH  25  28
ATOM     28  C   UNL     1      34.505 -16.896 -22.993  0.00  0.00    -0.054 C 
BRANCH  28  31
ATOM     29 CL   UNL     1      32.670 -12.883 -26.680  0.00  0.00    -0.082 Cl
ATOM     30  S   UNL     1      33.734 -13.755 -20.614  0.00  0.00    -0.087 S 
ATOM     31  C   UNL     1      34.134 -15.578 -22.367  0.00  0.00    -0.037 C 
ATOM     32  C   UNL     1      33.655 -14.445 -23.105  0.00  0.00    +0.001 C 
ATOM     33  C   UNL     1      33.392 -13.363 -22.258  0.00  0.00    +0.029 C 
ATOM     34  C   UNL     1      34.223 -15.338 -21.016  0.00  0.00    +0.029 C 
ATOM     35  C   UNL     1      33.424 -14.280 -24.493  0.00  0.00    +0.012 C 
ATOM     36  C   UNL     1      32.912 -12.136 -22.758  0.00  0.00    +0.007 C 
ATOM     37  C   UNL     1      32.946 -13.065 -24.990  0.00  0.00    +0.058 C 
ATOM     38  C   UNL     1      32.694 -12.005 -24.130  0.00  0.00    +0.012 C 
ENDBRANCH  28  31
ENDBRANCH  25  28
ENDBRANCH  24  25
ENDBRANCH  23  24
ENDBRANCH   2  23
TORSDOF 9
ENDMDL
MODEL 9
REMARK VINA RESULT:     -10.4      3.634     10.665
REMARK  Name = 131704305
REMARK  9 active torsions:
REMARK  status: ('A' for Active; 'I' for Inactive)
REMARK    1  A    between atoms: N_2  and  C_23
REMARK    2  A    between atoms: N_3  and  C_13
REMARK    3  A    between atoms: C_5  and  O_11
REMARK    4  A    between atoms: C_13  and  C_14
REMARK    5  A    between atoms: C_14  and  C_16
REMARK    6  A    between atoms: C_23  and  C_24
REMARK    7  A    between atoms: C_24  and  N_25
REMARK    8  A    between atoms: N_25  and  C_28
REMARK    9  A    between atoms: C_28  and  C_31
REMARK                            x       y       z     vdW  Elec       q    Type
REMARK                         _______ _______ _______ _____ _____    ______ ____
ROOT
ATOM      1 CL   UNL     1      36.255 -20.038 -18.926  0.00  0.00    -0.136 Cl
ATOM      2  N   UNL     1      33.883 -19.903 -20.002  0.00  0.00    +0.419 N 
ATOM      3  N   UNL     1      32.029 -21.960 -17.847  0.00  0.00    -0.322 N 
ATOM      4  N   UNL     1      34.072 -22.487 -18.854  0.00  0.00    -0.261 NA
ATOM      5  C   UNL     1      32.695 -20.758 -19.930  0.00  0.00    +0.115 C 
ATOM      6  C   UNL     1      32.972 -21.794 -18.830  0.00  0.00    +0.107 C 
ATOM      7  C   UNL     1      35.125 -20.669 -20.168  0.00  0.00    +0.054 C 
ATOM      8  C   UNL     1      34.951 -22.180 -19.987  0.00  0.00    +0.122 C 
ATOM      9  H   UNL     1      33.947 -19.430 -19.100  0.00  0.00    -0.073 HD
ATOM     10  H   UNL     1      31.206 -21.421 -17.881  0.00  0.00    +0.148 HD
ENDROOT
BRANCH   5  11
ATOM     11  O   UNL     1      31.518 -20.028 -19.625  0.00  0.00    -0.398 OA
ATOM     12  H   UNL     1      31.493 -19.216 -20.155  0.00  0.00    +0.208 HD
ENDBRANCH   5  11
BRANCH   3  13
ATOM     13  C   UNL     1      32.202 -22.890 -16.775  0.00  0.00    +0.086 C 
BRANCH  13  14
ATOM     14  C   UNL     1      31.898 -22.231 -15.435  0.00  0.00    -0.000 C 
BRANCH  14  16
ATOM     15  N   UNL     1      31.059 -24.135 -14.158  0.00  0.00    +0.385 N 
ATOM     16  C   UNL     1      30.682 -22.840 -14.738  0.00  0.00    -0.060 C 
ATOM     17  C   UNL     1      29.521 -23.005 -15.729  0.00  0.00    -0.021 C 
ATOM     18  C   UNL     1      28.324 -23.685 -15.069  0.00  0.00    -0.004 C 
ATOM     19  C   UNL     1      28.751 -24.986 -14.398  0.00  0.00    -0.023 C 
ATOM     20  C   UNL     1      29.936 -24.762 -13.461  0.00  0.00    -0.082 C 
ATOM     21  H   UNL     1      31.821 -23.992 -13.495  0.00  0.00    -0.084 HD
ATOM     22  H   UNL     1      31.347 -24.753 -14.917  0.00  0.00    -0.084 HD
ENDBRANCH  14  16
ENDBRANCH  13  14
ENDBRANCH   3  13
BRANCH   2  23
ATOM     23  C   UNL     1      33.753 -18.875 -21.035  0.00  0.00    -0.095 C 
BRANCH  23  24
ATOM     24  C   UNL     1      34.958 -18.914 -21.971  0.00  0.00    -0.104 C 
BRANCH  24  25
ATOM     25  N   UNL     1      35.468 -17.565 -22.191  0.00  0.00    +0.385 N 
ATOM     26  H   UNL     1      36.388 -17.623 -22.625  0.00  0.00    -0.084 HD
ATOM     27  H   UNL     1      35.527 -17.089 -21.292  0.00  0.00    -0.084 HD
BRANCH  25  28
ATOM     28  C   UNL     1      34.577 -16.811 -23.060  0.00  0.00    -0.054 C 
BRANCH  28  31
ATOM     29 CL   UNL     1      32.673 -12.840 -26.759  0.00  0.00    -0.082 Cl
ATOM     30  S   UNL     1      33.659 -13.711 -20.679  0.00  0.00    -0.087 S 
ATOM     31  C   UNL     1      34.151 -15.509 -22.434  0.00  0.00    -0.037 C 
ATOM     32  C   UNL     1      33.647 -14.389 -23.175  0.00  0.00    +0.001 C 
ATOM     33  C   UNL     1      33.333 -13.321 -22.327  0.00  0.00    +0.029 C 
ATOM     34  C   UNL     1      34.208 -15.274 -21.081  0.00  0.00    +0.029 C 
ATOM     35  C   UNL     1      33.435 -14.223 -24.566  0.00  0.00    +0.012 C 
ATOM     36  C   UNL     1      32.821 -12.108 -22.829  0.00  0.00    +0.007 C 
ATOM     37  C   UNL     1      32.925 -13.022 -25.065  0.00  0.00    +0.058 C 
ATOM     38  C   UNL     1      32.622 -11.977 -24.204  0.00  0.00    +0.012 C 
ENDBRANCH  28  31
ENDBRANCH  25  28
ENDBRANCH  24  25
ENDBRANCH  23  24
ENDBRANCH   2  23
TORSDOF 9
ENDMDL
