MODEL 1
REMARK VINA RESULT:     -12.0      0.000      0.000
REMARK  Name = 24861080
REMARK  3 active torsions:
REMARK  status: ('A' for Active; 'I' for Inactive)
REMARK    1  A    between atoms: N_1  and  C_15
REMARK    2  A    between atoms: N_2  and  C_21
REMARK    3  A    between atoms: C_23  and  C_29
REMARK                            x       y       z     vdW  Elec       q    Type
REMARK                         _______ _______ _______ _____ _____    ______ ____
ROOT
ATOM      1  N   UNL     1      34.206 -24.225 -12.695  0.00  0.00    -0.284 N 
ATOM      2  N   UNL     1      32.385 -22.835 -16.825  0.00  0.00    -0.247 N 
ATOM      3  N   UNL     1      33.311 -23.519 -14.780  0.00  0.00    -0.322 NA
ATOM      4  N   UNL     1      30.970 -23.844 -15.248  0.00  0.00    -0.170 NA
ATOM      5  C   UNL     1      33.112 -24.089 -13.574  0.00  0.00    +0.198 C 
ATOM      6  C   UNL     1      32.214 -23.428 -15.555  0.00  0.00    +0.150 C 
ATOM      7  C   UNL     1      31.888 -24.556 -13.140  0.00  0.00    +0.070 C 
ATOM      8  C   UNL     1      30.842 -24.405 -14.028  0.00  0.00    +0.116 C 
ATOM      9  H   UNL     1      33.955 -24.195 -11.744  0.00  0.00    +0.155 HD
ATOM     10  H   UNL     1      31.557 -22.791 -17.356  0.00  0.00    +0.165 HD
ENDROOT
BRANCH   1  15
ATOM     11 CL   UNL     1      36.076 -22.576 -10.935  0.00  0.00    -0.081 Cl
ATOM     12  O   UNL     1      35.262 -26.033 -14.690  0.00  0.00    -0.433 OA
ATOM     13  O   UNL     1      37.614 -26.361 -15.100  0.00  0.00    -0.435 OA
ATOM     14  C   UNL     1      36.041 -25.269 -13.875  0.00  0.00    +0.191 C 
ATOM     15  C   UNL     1      35.587 -24.394 -12.909  0.00  0.00    +0.098 C 
ATOM     16  C   UNL     1      37.383 -25.457 -14.109  0.00  0.00    +0.178 C 
ATOM     17  C   UNL     1      36.542 -23.696 -12.167  0.00  0.00    +0.074 C 
ATOM     18  C   UNL     1      38.347 -24.780 -13.390  0.00  0.00    +0.041 C 
ATOM     19  C   UNL     1      36.266 -26.721 -15.464  0.00  0.00    +0.429 C 
ATOM     20  C   UNL     1      37.915 -23.887 -12.407  0.00  0.00    +0.016 C 
ENDBRANCH   1  15
BRANCH   2  21
ATOM     21  C   UNL     1      33.508 -22.295 -17.480  0.00  0.00    +0.058 C 
ATOM     22  C   UNL     1      34.661 -21.994 -16.755  0.00  0.00    +0.020 C 
ATOM     23  C   UNL     1      35.773 -21.459 -17.404  0.00  0.00    +0.054 C 
ATOM     24  C   UNL     1      33.466 -22.060 -18.854  0.00  0.00    +0.015 C 
ATOM     25  C   UNL     1      35.732 -21.223 -18.778  0.00  0.00    +0.005 C 
ATOM     26  C   UNL     1      34.578 -21.523 -19.504  0.00  0.00    +0.001 C 
BRANCH  23  29
ATOM     27  O   UNL     1      37.596 -22.020 -16.023  0.00  0.00    -0.270 OA
ATOM     28  N   UNL     1      37.419 -19.824 -16.662  0.00  0.00    -0.325 N 
ATOM     29  C   UNL     1      36.975 -21.143 -16.649  0.00  0.00    +0.243 C 
ATOM     30  H   UNL     1      38.229 -19.573 -16.161  0.00  0.00    +0.145 HD
ATOM     31  H   UNL     1      36.925 -19.143 -17.170  0.00  0.00    +0.145 HD
ENDBRANCH  23  29
ENDBRANCH   2  21
TORSDOF 3
ENDMDL
MODEL 2
REMARK VINA RESULT:     -12.0      2.717      3.286
REMARK  Name = 24861080
REMARK  3 active torsions:
REMARK  status: ('A' for Active; 'I' for Inactive)
REMARK    1  A    between atoms: N_1  and  C_15
REMARK    2  A    between atoms: N_2  and  C_21
REMARK    3  A    between atoms: C_23  and  C_29
REMARK                            x       y       z     vdW  Elec       q    Type
REMARK                         _______ _______ _______ _____ _____    ______ ____
ROOT
ATOM      1  N   UNL     1      34.371 -23.305 -14.518  0.00  0.00    -0.284 N 
ATOM      2  N   UNL     1      32.458 -21.671 -18.515  0.00  0.00    -0.247 N 
ATOM      3  N   UNL     1      33.429 -22.476 -16.537  0.00  0.00    -0.322 NA
ATOM      4  N   UNL     1      31.070 -22.733 -16.950  0.00  0.00    -0.170 NA
ATOM      5  C   UNL     1      33.254 -23.104 -15.356  0.00  0.00    +0.198 C 
ATOM      6  C   UNL     1      32.313 -22.325 -17.273  0.00  0.00    +0.150 C 
ATOM      7  C   UNL     1      32.034 -23.570 -14.910  0.00  0.00    +0.070 C 
ATOM      8  C   UNL     1      30.966 -23.353 -15.757  0.00  0.00    +0.116 C 
ATOM      9  H   UNL     1      34.148 -23.320 -13.560  0.00  0.00    +0.155 HD
ATOM     10  H   UNL     1      31.617 -21.583 -19.018  0.00  0.00    +0.165 HD
ENDROOT
BRANCH   1  15
ATOM     11 CL   UNL     1      35.855 -20.943 -15.755  0.00  0.00    -0.081 Cl
ATOM     12  O   UNL     1      35.750 -25.778 -13.934  0.00  0.00    -0.433 OA
ATOM     13  O   UNL     1      38.092 -26.148 -14.365  0.00  0.00    -0.435 OA
ATOM     14  C   UNL     1      36.353 -24.689 -14.485  0.00  0.00    +0.191 C 
ATOM     15  C   UNL     1      35.741 -23.489 -14.782  0.00  0.00    +0.098 C 
ATOM     16  C   UNL     1      37.690 -24.901 -14.732  0.00  0.00    +0.178 C 
ATOM     17  C   UNL     1      36.527 -22.482 -15.347  0.00  0.00    +0.074 C 
ATOM     18  C   UNL     1      38.489 -23.923 -15.289  0.00  0.00    +0.041 C 
ATOM     19  C   UNL     1      36.858 -26.699 -13.862  0.00  0.00    +0.429 C 
ATOM     20  C   UNL     1      37.894 -22.699 -15.599  0.00  0.00    +0.016 C 
ENDBRANCH   1  15
BRANCH   2  21
ATOM     21  C   UNL     1      33.572 -21.119 -19.175  0.00  0.00    +0.058 C 
ATOM     22  C   UNL     1      33.395 -20.098 -20.109  0.00  0.00    +0.020 C 
ATOM     23  C   UNL     1      34.500 -19.552 -20.763  0.00  0.00    +0.054 C 
ATOM     24  C   UNL     1      34.854 -21.594 -18.896  0.00  0.00    +0.015 C 
ATOM     25  C   UNL     1      35.781 -20.028 -20.484  0.00  0.00    +0.005 C 
ATOM     26  C   UNL     1      35.958 -21.049 -19.550  0.00  0.00    +0.001 C 
BRANCH  23  29
ATOM     27  O   UNL     1      33.813 -18.712 -22.853  0.00  0.00    -0.270 OA
ATOM     28  N   UNL     1      34.709 -17.204 -21.376  0.00  0.00    -0.325 N 
ATOM     29  C   UNL     1      34.316 -18.489 -21.738  0.00  0.00    +0.243 C 
ATOM     30  H   UNL     1      34.601 -16.458 -22.010  0.00  0.00    +0.145 HD
ATOM     31  H   UNL     1      35.095 -17.039 -20.486  0.00  0.00    +0.145 HD
ENDBRANCH  23  29
ENDBRANCH   2  21
TORSDOF 3
ENDMDL
MODEL 3
REMARK VINA RESULT:     -11.3      1.676      2.068
REMARK  Name = 24861080
REMARK  3 active torsions:
REMARK  status: ('A' for Active; 'I' for Inactive)
REMARK    1  A    between atoms: N_1  and  C_15
REMARK    2  A    between atoms: N_2  and  C_21
REMARK    3  A    between atoms: C_23  and  C_29
REMARK                            x       y       z     vdW  Elec       q    Type
REMARK                         _______ _______ _______ _____ _____    ______ ____
ROOT
ATOM      1  N   UNL     1      34.190 -24.178 -12.849  0.00  0.00    -0.284 N 
ATOM      2  N   UNL     1      32.510 -22.583 -16.965  0.00  0.00    -0.247 N 
ATOM      3  N   UNL     1      33.366 -23.369 -14.926  0.00  0.00    -0.322 NA
ATOM      4  N   UNL     1      31.038 -23.649 -15.481  0.00  0.00    -0.170 NA
ATOM      5  C   UNL     1      33.124 -23.991 -13.755  0.00  0.00    +0.198 C 
ATOM      6  C   UNL     1      32.295 -23.232 -15.730  0.00  0.00    +0.150 C 
ATOM      7  C   UNL     1      31.883 -24.466 -13.380  0.00  0.00    +0.070 C 
ATOM      8  C   UNL     1      30.867 -24.264 -14.293  0.00  0.00    +0.116 C 
ATOM      9  H   UNL     1      33.909 -24.189 -11.906  0.00  0.00    +0.155 HD
ATOM     10  H   UNL     1      31.700 -22.506 -17.518  0.00  0.00    +0.165 HD
ENDROOT
BRANCH   1  15
ATOM     11 CL   UNL     1      36.018 -22.479 -11.093  0.00  0.00    -0.081 Cl
ATOM     12  O   UNL     1      35.291 -26.037 -14.771  0.00  0.00    -0.433 OA
ATOM     13  O   UNL     1      37.652 -26.371 -15.119  0.00  0.00    -0.435 OA
ATOM     14  C   UNL     1      36.051 -25.250 -13.959  0.00  0.00    +0.191 C 
ATOM     15  C   UNL     1      35.575 -24.350 -13.028  0.00  0.00    +0.098 C 
ATOM     16  C   UNL     1      37.399 -25.442 -14.159  0.00  0.00    +0.178 C 
ATOM     17  C   UNL     1      36.513 -23.630 -12.284  0.00  0.00    +0.074 C 
ATOM     18  C   UNL     1      38.346 -24.744 -13.437  0.00  0.00    +0.041 C 
ATOM     19  C   UNL     1      36.313 -26.744 -15.503  0.00  0.00    +0.429 C 
ATOM     20  C   UNL     1      37.891 -23.826 -12.489  0.00  0.00    +0.016 C 
ENDBRANCH   1  15
BRANCH   2  21
ATOM     21  C   UNL     1      33.657 -22.024 -17.559  0.00  0.00    +0.058 C 
ATOM     22  C   UNL     1      33.541 -21.262 -18.722  0.00  0.00    +0.020 C 
ATOM     23  C   UNL     1      34.678 -20.710 -19.310  0.00  0.00    +0.054 C 
ATOM     24  C   UNL     1      34.911 -22.235 -16.985  0.00  0.00    +0.015 C 
ATOM     25  C   UNL     1      35.932 -20.921 -18.737  0.00  0.00    +0.005 C 
ATOM     26  C   UNL     1      36.049 -21.683 -17.574  0.00  0.00    +0.001 C 
BRANCH  23  29
ATOM     27  O   UNL     1      33.487 -19.850 -21.150  0.00  0.00    -0.270 OA
ATOM     28  N   UNL     1      35.682 -19.217 -20.953  0.00  0.00    -0.325 N 
ATOM     29  C   UNL     1      34.558 -19.917 -20.523  0.00  0.00    +0.243 C 
ATOM     30  H   UNL     1      35.639 -18.670 -21.771  0.00  0.00    +0.145 HD
ATOM     31  H   UNL     1      36.520 -19.269 -20.441  0.00  0.00    +0.145 HD
ENDBRANCH  23  29
ENDBRANCH   2  21
TORSDOF 3
ENDMDL
MODEL 4
REMARK VINA RESULT:     -10.8      2.632      5.650
REMARK  Name = 24861080
REMARK  3 active torsions:
REMARK  status: ('A' for Active; 'I' for Inactive)
REMARK    1  A    between atoms: N_1  and  C_15
REMARK    2  A    between atoms: N_2  and  C_21
REMARK    3  A    between atoms: C_23  and  C_29
REMARK                            x       y       z     vdW  Elec       q    Type
REMARK                         _______ _______ _______ _____ _____    ______ ____
ROOT
ATOM      1  N   UNL     1      32.174 -22.252 -17.764  0.00  0.00    -0.284 N 
ATOM      2  N   UNL     1      33.071 -23.631 -13.337  0.00  0.00    -0.247 N 
ATOM      3  N   UNL     1      32.648 -22.945 -15.542  0.00  0.00    -0.322 NA
ATOM      4  N   UNL     1      30.849 -23.205 -13.960  0.00  0.00    -0.170 NA
ATOM      5  C   UNL     1      31.736 -22.579 -16.464  0.00  0.00    +0.198 C 
ATOM      6  C   UNL     1      32.144 -23.241 -14.329  0.00  0.00    +0.150 C 
ATOM      7  C   UNL     1      30.380 -22.502 -16.214  0.00  0.00    +0.070 C 
ATOM      8  C   UNL     1      29.991 -22.831 -14.931  0.00  0.00    +0.116 C 
ATOM      9  H   UNL     1      31.512 -22.447 -18.466  0.00  0.00    +0.155 HD
ATOM     10  H   UNL     1      32.658 -23.837 -12.468  0.00  0.00    +0.165 HD
ENDROOT
BRANCH   1  15
ATOM     11 CL   UNL     1      31.973 -20.615 -20.333  0.00  0.00    -0.081 Cl
ATOM     12  O   UNL     1      34.719 -22.625 -16.442  0.00  0.00    -0.433 OA
ATOM     13  O   UNL     1      36.798 -21.707 -17.242  0.00  0.00    -0.435 OA
ATOM     14  C   UNL     1      34.562 -21.908 -17.590  0.00  0.00    +0.191 C 
ATOM     15  C   UNL     1      33.372 -21.701 -18.257  0.00  0.00    +0.098 C 
ATOM     16  C   UNL     1      35.749 -21.385 -18.045  0.00  0.00    +0.178 C 
ATOM     17  C   UNL     1      33.409 -20.933 -19.423  0.00  0.00    +0.074 C 
ATOM     18  C   UNL     1      35.813 -20.623 -19.194  0.00  0.00    +0.041 C 
ATOM     19  C   UNL     1      36.139 -22.493 -16.229  0.00  0.00    +0.429 C 
ATOM     20  C   UNL     1      34.623 -20.398 -19.890  0.00  0.00    +0.016 C 
ENDBRANCH   1  15
BRANCH   2  21
ATOM     21  C   UNL     1      34.470 -23.781 -13.349  0.00  0.00    +0.058 C 
ATOM     22  C   UNL     1      35.049 -24.878 -13.987  0.00  0.00    +0.020 C 
ATOM     23  C   UNL     1      36.436 -25.027 -13.998  0.00  0.00    +0.054 C 
ATOM     24  C   UNL     1      35.278 -22.833 -12.722  0.00  0.00    +0.015 C 
ATOM     25  C   UNL     1      37.244 -24.079 -13.370  0.00  0.00    +0.005 C 
ATOM     26  C   UNL     1      36.665 -22.982 -12.731  0.00  0.00    +0.001 C 
BRANCH  23  29
ATOM     27  O   UNL     1      38.178 -26.570 -14.358  0.00  0.00    -0.270 OA
ATOM     28  N   UNL     1      36.293 -26.820 -15.640  0.00  0.00    -0.325 N 
ATOM     29  C   UNL     1      37.040 -26.172 -14.661  0.00  0.00    +0.243 C 
ATOM     30  H   UNL     1      36.669 -27.599 -16.111  0.00  0.00    +0.145 HD
ATOM     31  H   UNL     1      35.389 -26.502 -15.862  0.00  0.00    +0.145 HD
ENDBRANCH  23  29
ENDBRANCH   2  21
TORSDOF 3
ENDMDL
MODEL 5
REMARK VINA RESULT:     -10.2      3.428      5.717
REMARK  Name = 24861080
REMARK  3 active torsions:
REMARK  status: ('A' for Active; 'I' for Inactive)
REMARK    1  A    between atoms: N_1  and  C_15
REMARK    2  A    between atoms: N_2  and  C_21
REMARK    3  A    between atoms: C_23  and  C_29
REMARK                            x       y       z     vdW  Elec       q    Type
REMARK                         _______ _______ _______ _____ _____    ______ ____
ROOT
ATOM      1  N   UNL     1      33.891 -23.732 -15.085  0.00  0.00    -0.284 N 
ATOM      2  N   UNL     1      36.563 -21.057 -17.916  0.00  0.00    -0.247 N 
ATOM      3  N   UNL     1      35.217 -22.381 -16.522  0.00  0.00    -0.322 NA
ATOM      4  N   UNL     1      37.565 -22.092 -16.064  0.00  0.00    -0.170 NA
ATOM      5  C   UNL     1      35.137 -23.167 -15.429  0.00  0.00    +0.198 C 
ATOM      6  C   UNL     1      36.441 -21.884 -16.778  0.00  0.00    +0.150 C 
ATOM      7  C   UNL     1      36.213 -23.457 -14.614  0.00  0.00    +0.070 C 
ATOM      8  C   UNL     1      37.414 -22.887 -14.984  0.00  0.00    +0.116 C 
ATOM      9  H   UNL     1      33.964 -24.598 -14.623  0.00  0.00    +0.155 HD
ATOM     10  H   UNL     1      37.475 -20.718 -18.063  0.00  0.00    +0.165 HD
ENDROOT
BRANCH   1  15
ATOM     11 CL   UNL     1      32.951 -23.408 -17.970  0.00  0.00    -0.081 Cl
ATOM     12  O   UNL     1      32.112 -23.172 -12.876  0.00  0.00    -0.433 OA
ATOM     13  O   UNL     1      29.833 -22.432 -13.137  0.00  0.00    -0.435 OA
ATOM     14  C   UNL     1      31.754 -23.047 -14.184  0.00  0.00    +0.191 C 
ATOM     15  C   UNL     1      32.564 -23.302 -15.272  0.00  0.00    +0.098 C 
ATOM     16  C   UNL     1      30.454 -22.624 -14.333  0.00  0.00    +0.178 C 
ATOM     17  C   UNL     1      32.018 -23.117 -16.544  0.00  0.00    +0.074 C 
ATOM     18  C   UNL     1      29.890 -22.434 -15.578  0.00  0.00    +0.041 C 
ATOM     19  C   UNL     1      30.889 -22.780 -12.219  0.00  0.00    +0.429 C 
ATOM     20  C   UNL     1      30.689 -22.684 -16.696  0.00  0.00    +0.016 C 
ENDBRANCH   1  15
BRANCH   2  21
ATOM     21  C   UNL     1      35.634 -20.624 -18.881  0.00  0.00    +0.058 C 
ATOM     22  C   UNL     1      36.041 -19.774 -19.909  0.00  0.00    +0.020 C 
ATOM     23  C   UNL     1      35.120 -19.345 -20.864  0.00  0.00    +0.054 C 
ATOM     24  C   UNL     1      34.305 -21.043 -18.806  0.00  0.00    +0.015 C 
ATOM     25  C   UNL     1      33.791 -19.763 -20.790  0.00  0.00    +0.005 C 
ATOM     26  C   UNL     1      33.384 -20.613 -19.761  0.00  0.00    +0.001 C 
BRANCH  23  29
ATOM     27  O   UNL     1      34.747 -18.069 -22.809  0.00  0.00    -0.270 OA
ATOM     28  N   UNL     1      36.871 -18.042 -21.946  0.00  0.00    -0.325 N 
ATOM     29  C   UNL     1      35.543 -18.458 -21.937  0.00  0.00    +0.243 C 
ATOM     30  H   UNL     1      37.194 -17.441 -22.656  0.00  0.00    +0.145 HD
ATOM     31  H   UNL     1      37.488 -18.347 -21.242  0.00  0.00    +0.145 HD
ENDBRANCH  23  29
ENDBRANCH   2  21
TORSDOF 3
ENDMDL
MODEL 6
REMARK VINA RESULT:     -10.1      2.541      5.938
REMARK  Name = 24861080
REMARK  3 active torsions:
REMARK  status: ('A' for Active; 'I' for Inactive)
REMARK    1  A    between atoms: N_1  and  C_15
REMARK    2  A    between atoms: N_2  and  C_21
REMARK    3  A    between atoms: C_23  and  C_29
REMARK                            x       y       z     vdW  Elec       q    Type
REMARK                         _______ _______ _______ _____ _____    ______ ____
ROOT
ATOM      1  N   UNL     1      32.038 -22.478 -17.342  0.00  0.00    -0.284 N 
ATOM      2  N   UNL     1      33.288 -23.535 -12.912  0.00  0.00    -0.247 N 
ATOM      3  N   UNL     1      32.689 -23.010 -15.119  0.00  0.00    -0.322 NA
ATOM      4  N   UNL     1      31.017 -23.188 -13.393  0.00  0.00    -0.170 NA
ATOM      5  C   UNL     1      31.704 -22.722 -15.993  0.00  0.00    +0.198 C 
ATOM      6  C   UNL     1      32.282 -23.229 -13.855  0.00  0.00    +0.150 C 
ATOM      7  C   UNL     1      30.369 -22.648 -15.648  0.00  0.00    +0.070 C 
ATOM      8  C   UNL     1      30.083 -22.894 -14.320  0.00  0.00    +0.116 C 
ATOM      9  H   UNL     1      31.330 -22.731 -17.977  0.00  0.00    +0.155 HD
ATOM     10  H   UNL     1      32.944 -23.688 -12.002  0.00  0.00    +0.165 HD
ENDROOT
BRANCH   1  15
ATOM     11 CL   UNL     1      34.733 -23.295 -16.165  0.00  0.00    -0.081 Cl
ATOM     12  O   UNL     1      31.895 -20.693 -19.612  0.00  0.00    -0.433 OA
ATOM     13  O   UNL     1      33.823 -19.749 -20.706  0.00  0.00    -0.435 OA
ATOM     14  C   UNL     1      33.063 -21.095 -19.040  0.00  0.00    +0.191 C 
ATOM     15  C   UNL     1      33.185 -21.944 -17.959  0.00  0.00    +0.098 C 
ATOM     16  C   UNL     1      34.164 -20.556 -19.665  0.00  0.00    +0.178 C 
ATOM     17  C   UNL     1      34.474 -22.243 -17.512  0.00  0.00    +0.074 C 
ATOM     18  C   UNL     1      35.447 -20.835 -19.243  0.00  0.00    +0.041 C 
ATOM     19  C   UNL     1      32.385 -19.840 -20.667  0.00  0.00    +0.429 C 
ATOM     20  C   UNL     1      35.599 -21.691 -18.150  0.00  0.00    +0.016 C 
ENDBRANCH   1  15
BRANCH   2  21
ATOM     21  C   UNL     1      34.685 -23.665 -13.019  0.00  0.00    +0.058 C 
ATOM     22  C   UNL     1      35.235 -24.755 -13.693  0.00  0.00    +0.020 C 
ATOM     23  C   UNL     1      36.620 -24.883 -13.798  0.00  0.00    +0.054 C 
ATOM     24  C   UNL     1      35.519 -22.703 -12.449  0.00  0.00    +0.015 C 
ATOM     25  C   UNL     1      37.455 -23.922 -13.228  0.00  0.00    +0.005 C 
ATOM     26  C   UNL     1      36.905 -22.832 -12.553  0.00  0.00    +0.001 C 
BRANCH  23  29
ATOM     27  O   UNL     1      38.351 -26.411 -14.261  0.00  0.00    -0.270 OA
ATOM     28  N   UNL     1      36.400 -26.671 -15.438  0.00  0.00    -0.325 N 
ATOM     29  C   UNL     1      37.195 -26.020 -14.499  0.00  0.00    +0.243 C 
ATOM     30  H   UNL     1      36.755 -27.444 -15.933  0.00  0.00    +0.145 HD
ATOM     31  H   UNL     1      35.482 -26.358 -15.608  0.00  0.00    +0.145 HD
ENDBRANCH  23  29
ENDBRANCH   2  21
TORSDOF 3
ENDMDL
