MODEL 1
REMARK VINA RESULT:     -11.6      0.000      0.000
REMARK  Name = 44513473
REMARK  7 active torsions:
REMARK  status: ('A' for Active; 'I' for Inactive)
REMARK    1  A    between atoms: C_1  and  N_4
REMARK    2  A    between atoms: C_1  and  C_17
REMARK    3  A    between atoms: N_4  and  C_7
REMARK    4  A    between atoms: C_7  and  C_14
REMARK    5  A    between atoms: C_10  and  C_16
REMARK    6  A    between atoms: C_17  and  N_19
REMARK    7  A    between atoms: C_20  and  C_25
REMARK                            x       y       z     vdW  Elec       q    Type
REMARK                         _______ _______ _______ _____ _____    ______ ____
ROOT
ATOM      1  C   UNL     1      35.137 -18.460 -21.365  0.00  0.00    -0.027 C 
ATOM      2  C   UNL     1      36.340 -18.916 -20.526  0.00  0.00    -0.020 C 
ATOM      3  C   UNL     1      35.505 -18.468 -22.856  0.00  0.00    -0.020 C 
ENDROOT
BRANCH   1   4
ATOM      4  N   UNL     1      34.803 -17.089 -20.994  0.00  0.00    +0.393 N 
ATOM      5  H   UNL     1      35.622 -16.651 -20.572  0.00  0.00    -0.084 HD
ATOM      6  H   UNL     1      34.027 -17.113 -20.333  0.00  0.00    -0.084 HD
BRANCH   4   7
ATOM      7  C   UNL     1      34.397 -16.315 -22.147  0.00  0.00    +0.006 C 
BRANCH   7  14
ATOM      8  O   UNL     1      34.304 -14.639 -20.459  0.00  0.00    -0.277 OA
ATOM      9  N   UNL     1      33.652 -14.026 -22.593  0.00  0.00    -0.270 N 
ATOM     10  C   UNL     1      33.431 -12.609 -22.297  0.00  0.00    +0.167 C 
ATOM     11  C   UNL     1      33.357 -11.954 -23.677  0.00  0.00    +0.037 C 
ATOM     12  C   UNL     1      32.772 -13.054 -24.559  0.00  0.00    +0.024 C 
ATOM     13  C   UNL     1      33.419 -14.314 -24.006  0.00  0.00    +0.094 C 
ATOM     14  C   UNL     1      34.120 -14.921 -21.644  0.00  0.00    +0.205 C 
BRANCH  10  16
ATOM     15  N   UNL     1      31.200 -12.273 -20.943  0.00  0.00    -0.194 NA
ATOM     16  C   UNL     1      32.184 -12.421 -21.540  0.00  0.00    +0.093 C 
ENDBRANCH  10  16
ENDBRANCH   7  14
ENDBRANCH   4   7
ENDBRANCH   1   4
BRANCH   1  17
ATOM     17  C   UNL     1      33.897 -19.331 -21.088  0.00  0.00    +0.070 C 
BRANCH  17  19
ATOM     18  O   UNL     1      31.931 -21.184 -20.003  0.00  0.00    -0.270 OA
ATOM     19  N   UNL     1      34.014 -20.138 -19.904  0.00  0.00    -0.303 N 
ATOM     20  C   UNL     1      33.018 -20.994 -19.466  0.00  0.00    +0.245 C 
ATOM     21  H   UNL     1      34.844 -20.079 -19.377  0.00  0.00    +0.150 HD
BRANCH  20  25
ATOM     22  N   UNL     1      34.973 -22.421 -16.632  0.00  0.00    -0.194 N 
ATOM     23  N   UNL     1      32.686 -23.081 -16.271  0.00  0.00    -0.232 NA
ATOM     24  N   UNL     1      36.200 -22.550 -16.061  0.00  0.00    -0.185 NA
ATOM     25  C   UNL     1      33.379 -21.710 -18.229  0.00  0.00    +0.072 C 
ATOM     26  C   UNL     1      34.648 -21.740 -17.803  0.00  0.00    +0.150 C 
ATOM     27  C   UNL     1      32.413 -22.438 -17.367  0.00  0.00    +0.102 C 
ATOM     28  C   UNL     1      33.993 -23.079 -15.886  0.00  0.00    +0.133 C 
ATOM     29  C   UNL     1      34.639 -23.640 -14.808  0.00  0.00    +0.106 C 
ATOM     30  C   UNL     1      35.985 -23.283 -14.970  0.00  0.00    +0.062 C 
ATOM     31  C   UNL     1      37.114 -23.628 -14.089  0.00  0.00    +0.049 C 
ENDBRANCH  20  25
ENDBRANCH  17  19
ENDBRANCH   1  17
TORSDOF 7
ENDMDL
MODEL 2
REMARK VINA RESULT:     -11.5      0.886      1.811
REMARK  Name = 44513473
REMARK  7 active torsions:
REMARK  status: ('A' for Active; 'I' for Inactive)
REMARK    1  A    between atoms: C_1  and  N_4
REMARK    2  A    between atoms: C_1  and  C_17
REMARK    3  A    between atoms: N_4  and  C_7
REMARK    4  A    between atoms: C_7  and  C_14
REMARK    5  A    between atoms: C_10  and  C_16
REMARK    6  A    between atoms: C_17  and  N_19
REMARK    7  A    between atoms: C_20  and  C_25
REMARK                            x       y       z     vdW  Elec       q    Type
REMARK                         _______ _______ _______ _____ _____    ______ ____
ROOT
ATOM      1  C   UNL     1      35.210 -18.461 -21.367  0.00  0.00    -0.027 C 
ATOM      2  C   UNL     1      36.359 -18.912 -20.454  0.00  0.00    -0.020 C 
ATOM      3  C   UNL     1      35.688 -18.407 -22.825  0.00  0.00    -0.020 C 
ENDROOT
BRANCH   1   4
ATOM      4  N   UNL     1      34.808 -17.113 -20.979  0.00  0.00    +0.393 N 
ATOM      5  H   UNL     1      35.611 -16.630 -20.575  0.00  0.00    -0.084 HD
ATOM      6  H   UNL     1      34.051 -17.184 -20.299  0.00  0.00    -0.084 HD
BRANCH   4   7
ATOM      7  C   UNL     1      34.328 -16.357 -22.116  0.00  0.00    +0.006 C 
BRANCH   7  14
ATOM      8  O   UNL     1      34.285 -14.669 -20.438  0.00  0.00    -0.277 OA
ATOM      9  N   UNL     1      33.634 -14.054 -22.572  0.00  0.00    -0.270 N 
ATOM     10  C   UNL     1      33.449 -12.630 -22.283  0.00  0.00    +0.167 C 
ATOM     11  C   UNL     1      33.382 -11.983 -23.668  0.00  0.00    +0.037 C 
ATOM     12  C   UNL     1      32.766 -13.074 -24.539  0.00  0.00    +0.024 C 
ATOM     13  C   UNL     1      33.386 -14.346 -23.982  0.00  0.00    +0.094 C 
ATOM     14  C   UNL     1      34.087 -14.954 -21.620  0.00  0.00    +0.205 C 
BRANCH  10  16
ATOM     15  N   UNL     1      31.235 -12.233 -20.919  0.00  0.00    -0.194 NA
ATOM     16  C   UNL     1      32.211 -12.408 -21.521  0.00  0.00    +0.093 C 
ENDBRANCH  10  16
ENDBRANCH   7  14
ENDBRANCH   4   7
ENDBRANCH   1   4
BRANCH   1  17
ATOM     17  C   UNL     1      33.979 -19.374 -21.214  0.00  0.00    +0.070 C 
BRANCH  17  19
ATOM     18  O   UNL     1      31.829 -21.022 -20.146  0.00  0.00    -0.270 OA
ATOM     19  N   UNL     1      33.994 -20.162 -20.011  0.00  0.00    -0.303 N 
ATOM     20  C   UNL     1      32.915 -20.917 -19.584  0.00  0.00    +0.245 C 
ATOM     21  H   UNL     1      34.813 -20.165 -19.464  0.00  0.00    +0.150 HD
BRANCH  20  25
ATOM     22  N   UNL     1      32.441 -22.749 -16.373  0.00  0.00    -0.194 N 
ATOM     23  N   UNL     1      34.819 -22.557 -16.694  0.00  0.00    -0.232 NA
ATOM     24  N   UNL     1      31.543 -23.259 -15.488  0.00  0.00    -0.185 NA
ATOM     25  C   UNL     1      33.181 -21.634 -18.324  0.00  0.00    +0.072 C 
ATOM     26  C   UNL     1      32.172 -22.074 -17.561  0.00  0.00    +0.150 C 
ATOM     27  C   UNL     1      34.538 -21.930 -17.795  0.00  0.00    +0.102 C 
ATOM     28  C   UNL     1      33.753 -22.981 -15.957  0.00  0.00    +0.133 C 
ATOM     29  C   UNL     1      33.667 -23.661 -14.765  0.00  0.00    +0.106 C 
ATOM     30  C   UNL     1      32.292 -23.802 -14.528  0.00  0.00    +0.062 C 
ATOM     31  C   UNL     1      31.643 -24.459 -13.381  0.00  0.00    +0.049 C 
ENDBRANCH  20  25
ENDBRANCH  17  19
ENDBRANCH   1  17
TORSDOF 7
ENDMDL
MODEL 3
REMARK VINA RESULT:     -11.0      3.682     10.376
REMARK  Name = 44513473
REMARK  7 active torsions:
REMARK  status: ('A' for Active; 'I' for Inactive)
REMARK    1  A    between atoms: C_1  and  N_4
REMARK    2  A    between atoms: C_1  and  C_17
REMARK    3  A    between atoms: N_4  and  C_7
REMARK    4  A    between atoms: C_7  and  C_14
REMARK    5  A    between atoms: C_10  and  C_16
REMARK    6  A    between atoms: C_17  and  N_19
REMARK    7  A    between atoms: C_20  and  C_25
REMARK                            x       y       z     vdW  Elec       q    Type
REMARK                         _______ _______ _______ _____ _____    ______ ____
ROOT
ATOM      1  C   UNL     1      31.640 -23.024 -14.678  0.00  0.00    -0.027 C 
ATOM      2  C   UNL     1      30.689 -21.928 -14.174  0.00  0.00    -0.020 C 
ATOM      3  C   UNL     1      31.384 -24.332 -13.915  0.00  0.00    -0.020 C 
ENDROOT
BRANCH   1   4
ATOM      4  N   UNL     1      33.013 -22.610 -14.408  0.00  0.00    +0.393 N 
ATOM      5  H   UNL     1      33.002 -21.689 -13.969  0.00  0.00    -0.084 HD
ATOM      6  H   UNL     1      33.521 -22.581 -15.292  0.00  0.00    -0.084 HD
BRANCH   4   7
ATOM      7  C   UNL     1      33.682 -23.543 -13.529  0.00  0.00    +0.006 C 
BRANCH   7  14
ATOM      8  O   UNL     1      34.961 -24.133 -15.448  0.00  0.00    -0.277 OA
ATOM      9  N   UNL     1      36.065 -24.096 -13.414  0.00  0.00    -0.270 N 
ATOM     10  C   UNL     1      37.398 -24.384 -13.945  0.00  0.00    +0.167 C 
ATOM     11  C   UNL     1      38.336 -24.027 -12.791  0.00  0.00    +0.037 C 
ATOM     12  C   UNL     1      37.499 -24.324 -11.550  0.00  0.00    +0.024 C 
ATOM     13  C   UNL     1      36.103 -23.888 -11.968  0.00  0.00    +0.094 C 
ATOM     14  C   UNL     1      34.954 -23.948 -14.230  0.00  0.00    +0.205 C 
BRANCH  10  16
ATOM     15  N   UNL     1      37.610 -26.919 -14.617  0.00  0.00    -0.194 NA
ATOM     16  C   UNL     1      37.517 -25.801 -14.321  0.00  0.00    +0.093 C 
ENDBRANCH  10  16
ENDBRANCH   7  14
ENDBRANCH   4   7
ENDBRANCH   1   4
BRANCH   1  17
ATOM     17  C   UNL     1      31.506 -23.227 -16.199  0.00  0.00    +0.070 C 
BRANCH  17  19
ATOM     18  O   UNL     1      33.114 -24.019 -18.494  0.00  0.00    -0.270 OA
ATOM     19  N   UNL     1      32.398 -22.404 -16.970  0.00  0.00    -0.303 N 
ATOM     20  C   UNL     1      33.125 -22.875 -18.050  0.00  0.00    +0.245 C 
ATOM     21  H   UNL     1      32.499 -21.457 -16.716  0.00  0.00    +0.150 HD
BRANCH  20  25
ATOM     22  N   UNL     1      34.300 -20.108 -20.254  0.00  0.00    -0.194 N 
ATOM     23  N   UNL     1      36.137 -20.625 -18.785  0.00  0.00    -0.232 NA
ATOM     24  N   UNL     1      33.982 -19.265 -21.271  0.00  0.00    -0.185 NA
ATOM     25  C   UNL     1      33.965 -21.836 -18.673  0.00  0.00    +0.072 C 
ATOM     26  C   UNL     1      33.493 -21.085 -19.676  0.00  0.00    +0.150 C 
ATOM     27  C   UNL     1      35.361 -21.529 -18.266  0.00  0.00    +0.102 C 
ATOM     28  C   UNL     1      35.604 -19.892 -19.803  0.00  0.00    +0.133 C 
ATOM     29  C   UNL     1      36.116 -18.874 -20.573  0.00  0.00    +0.106 C 
ATOM     30  C   UNL     1      35.080 -18.531 -21.453  0.00  0.00    +0.062 C 
ATOM     31  C   UNL     1      35.098 -17.492 -22.497  0.00  0.00    +0.049 C 
ENDBRANCH  20  25
ENDBRANCH  17  19
ENDBRANCH   1  17
TORSDOF 7
ENDMDL
MODEL 4
REMARK VINA RESULT:     -11.0      2.413      9.962
REMARK  Name = 44513473
REMARK  7 active torsions:
REMARK  status: ('A' for Active; 'I' for Inactive)
REMARK    1  A    between atoms: C_1  and  N_4
REMARK    2  A    between atoms: C_1  and  C_17
REMARK    3  A    between atoms: N_4  and  C_7
REMARK    4  A    between atoms: C_7  and  C_14
REMARK    5  A    between atoms: C_10  and  C_16
REMARK    6  A    between atoms: C_17  and  N_19
REMARK    7  A    between atoms: C_20  and  C_25
REMARK                            x       y       z     vdW  Elec       q    Type
REMARK                         _______ _______ _______ _____ _____    ______ ____
ROOT
ATOM      1  C   UNL     1      33.809 -21.495 -19.149  0.00  0.00    -0.027 C 
ATOM      2  C   UNL     1      32.482 -20.753 -19.369  0.00  0.00    -0.020 C 
ATOM      3  C   UNL     1      33.782 -22.845 -19.880  0.00  0.00    -0.020 C 
ENDROOT
BRANCH   1   4
ATOM      4  N   UNL     1      33.963 -21.761 -17.723  0.00  0.00    +0.393 N 
ATOM      5  H   UNL     1      33.574 -20.980 -17.195  0.00  0.00    -0.084 HD
ATOM      6  H   UNL     1      34.956 -21.874 -17.521  0.00  0.00    -0.084 HD
BRANCH   4   7
ATOM      7  C   UNL     1      33.279 -22.977 -17.337  0.00  0.00    +0.006 C 
BRANCH   7  14
ATOM      8  O   UNL     1      33.927 -22.850 -15.050  0.00  0.00    -0.277 OA
ATOM      9  N   UNL     1      31.661 -22.759 -15.512  0.00  0.00    -0.270 N 
ATOM     10  C   UNL     1      31.221 -22.532 -14.134  0.00  0.00    +0.167 C 
ATOM     11  C   UNL     1      29.771 -22.067 -14.286  0.00  0.00    +0.037 C 
ATOM     12  C   UNL     1      29.298 -22.788 -15.545  0.00  0.00    +0.024 C 
ATOM     13  C   UNL     1      30.530 -22.760 -16.437  0.00  0.00    +0.094 C 
ATOM     14  C   UNL     1      32.999 -22.854 -15.860  0.00  0.00    +0.205 C 
BRANCH  10  16
ATOM     15  N   UNL     1      31.386 -24.746 -12.723  0.00  0.00    -0.194 NA
ATOM     16  C   UNL     1      31.313 -23.770 -13.345  0.00  0.00    +0.093 C 
ENDBRANCH  10  16
ENDBRANCH   7  14
ENDBRANCH   4   7
ENDBRANCH   1   4
BRANCH   1  17
ATOM     17  C   UNL     1      35.010 -20.639 -19.594  0.00  0.00    +0.070 C 
BRANCH  17  19
ATOM     18  O   UNL     1      36.619 -18.336 -20.358  0.00  0.00    -0.270 OA
ATOM     19  N   UNL     1      34.662 -19.595 -20.520  0.00  0.00    -0.303 N 
ATOM     20  C   UNL     1      35.500 -18.534 -20.818  0.00  0.00    +0.245 C 
ATOM     21  H   UNL     1      33.783 -19.637 -20.962  0.00  0.00    +0.150 HD
BRANCH  20  25
ATOM     22  N   UNL     1      34.201 -15.435 -22.430  0.00  0.00    -0.194 N 
ATOM     23  N   UNL     1      33.936 -17.197 -24.049  0.00  0.00    -0.232 NA
ATOM     24  N   UNL     1      33.974 -14.102 -22.290  0.00  0.00    -0.185 NA
ATOM     25  C   UNL     1      34.914 -17.599 -21.796  0.00  0.00    +0.072 C 
ATOM     26  C   UNL     1      34.758 -16.304 -21.495  0.00  0.00    +0.150 C 
ATOM     27  C   UNL     1      34.457 -17.984 -23.157  0.00  0.00    +0.102 C 
ATOM     28  C   UNL     1      33.800 -15.890 -23.688  0.00  0.00    +0.133 C 
ATOM     29  C   UNL     1      33.303 -14.795 -24.356  0.00  0.00    +0.106 C 
ATOM     30  C   UNL     1      33.435 -13.731 -23.452  0.00  0.00    +0.062 C 
ATOM     31  C   UNL     1      33.052 -12.325 -23.661  0.00  0.00    +0.049 C 
ENDBRANCH  20  25
ENDBRANCH  17  19
ENDBRANCH   1  17
TORSDOF 7
ENDMDL
MODEL 5
REMARK VINA RESULT:     -10.7      1.632      2.151
REMARK  Name = 44513473
REMARK  7 active torsions:
REMARK  status: ('A' for Active; 'I' for Inactive)
REMARK    1  A    between atoms: C_1  and  N_4
REMARK    2  A    between atoms: C_1  and  C_17
REMARK    3  A    between atoms: N_4  and  C_7
REMARK    4  A    between atoms: C_7  and  C_14
REMARK    5  A    between atoms: C_10  and  C_16
REMARK    6  A    between atoms: C_17  and  N_19
REMARK    7  A    between atoms: C_20  and  C_25
REMARK                            x       y       z     vdW  Elec       q    Type
REMARK                         _______ _______ _______ _____ _____    ______ ____
ROOT
ATOM      1  C   UNL     1      34.741 -19.058 -20.988  0.00  0.00    -0.027 C 
ATOM      2  C   UNL     1      34.762 -19.216 -22.516  0.00  0.00    -0.020 C 
ATOM      3  C   UNL     1      33.532 -19.800 -20.401  0.00  0.00    -0.020 C 
ENDROOT
BRANCH   1   4
ATOM      4  N   UNL     1      34.594 -17.641 -20.670  0.00  0.00    +0.393 N 
ATOM      5  H   UNL     1      35.409 -17.334 -20.139  0.00  0.00    -0.084 HD
ATOM      6  H   UNL     1      33.741 -17.520 -20.123  0.00  0.00    -0.084 HD
BRANCH   4   7
ATOM      7  C   UNL     1      34.483 -16.840 -21.869  0.00  0.00    +0.006 C 
BRANCH   7  14
ATOM      8  O   UNL     1      34.348 -15.120 -20.228  0.00  0.00    -0.277 OA
ATOM      9  N   UNL     1      33.778 -14.555 -22.399  0.00  0.00    -0.270 N 
ATOM     10  C   UNL     1      33.561 -13.129 -22.147  0.00  0.00    +0.167 C 
ATOM     11  C   UNL     1      33.543 -12.510 -23.546  0.00  0.00    +0.037 C 
ATOM     12  C   UNL     1      32.978 -13.626 -24.419  0.00  0.00    +0.024 C 
ATOM     13  C   UNL     1      33.593 -14.878 -23.812  0.00  0.00    +0.094 C 
ATOM     14  C   UNL     1      34.203 -15.430 -21.411  0.00  0.00    +0.205 C 
BRANCH  10  16
ATOM     15  N   UNL     1      31.287 -12.739 -20.883  0.00  0.00    -0.194 NA
ATOM     16  C   UNL     1      32.290 -12.911 -21.440  0.00  0.00    +0.093 C 
ENDBRANCH  10  16
ENDBRANCH   7  14
ENDBRANCH   4   7
ENDBRANCH   1   4
BRANCH   1  17
ATOM     17  C   UNL     1      36.059 -19.541 -20.356  0.00  0.00    +0.070 C 
BRANCH  17  19
ATOM     18  O   UNL     1      37.212 -19.429 -17.684  0.00  0.00    -0.270 OA
ATOM     19  N   UNL     1      35.871 -20.477 -19.280  0.00  0.00    -0.303 N 
ATOM     20  C   UNL     1      36.467 -20.337 -18.038  0.00  0.00    +0.245 C 
ATOM     21  H   UNL     1      35.291 -21.258 -19.435  0.00  0.00    +0.150 HD
BRANCH  20  25
ATOM     22  N   UNL     1      36.649 -22.883 -15.322  0.00  0.00    -0.194 N 
ATOM     23  N   UNL     1      34.457 -23.093 -16.296  0.00  0.00    -0.232 NA
ATOM     24  N   UNL     1      37.414 -23.432 -14.341  0.00  0.00    -0.185 NA
ATOM     25  C   UNL     1      36.117 -21.426 -17.108  0.00  0.00    +0.072 C 
ATOM     26  C   UNL     1      36.996 -21.852 -16.193  0.00  0.00    +0.150 C 
ATOM     27  C   UNL     1      34.809 -22.131 -17.094  0.00  0.00    +0.102 C 
ATOM     28  C   UNL     1      35.392 -23.487 -15.385  0.00  0.00    +0.133 C 
ATOM     29  C   UNL     1      35.375 -24.450 -14.403  0.00  0.00    +0.106 C 
ATOM     30  C   UNL     1      36.638 -24.370 -13.799  0.00  0.00    +0.062 C 
ATOM     31  C   UNL     1      37.150 -25.185 -12.684  0.00  0.00    +0.049 C 
ENDBRANCH  20  25
ENDBRANCH  17  19
ENDBRANCH   1  17
TORSDOF 7
ENDMDL
MODEL 6
REMARK VINA RESULT:     -10.7      2.018     10.278
REMARK  Name = 44513473
REMARK  7 active torsions:
REMARK  status: ('A' for Active; 'I' for Inactive)
REMARK    1  A    between atoms: C_1  and  N_4
REMARK    2  A    between atoms: C_1  and  C_17
REMARK    3  A    between atoms: N_4  and  C_7
REMARK    4  A    between atoms: C_7  and  C_14
REMARK    5  A    between atoms: C_10  and  C_16
REMARK    6  A    between atoms: C_17  and  N_19
REMARK    7  A    between atoms: C_20  and  C_25
REMARK                            x       y       z     vdW  Elec       q    Type
REMARK                         _______ _______ _______ _____ _____    ______ ____
ROOT
ATOM      1  C   UNL     1      33.884 -21.395 -19.158  0.00  0.00    -0.027 C 
ATOM      2  C   UNL     1      32.594 -20.609 -19.435  0.00  0.00    -0.020 C 
ATOM      3  C   UNL     1      33.636 -22.897 -19.358  0.00  0.00    -0.020 C 
ENDROOT
BRANCH   1   4
ATOM      4  N   UNL     1      34.266 -21.186 -17.765  0.00  0.00    +0.393 N 
ATOM      5  H   UNL     1      33.591 -20.560 -17.325  0.00  0.00    -0.084 HD
ATOM      6  H   UNL     1      35.201 -20.780 -17.743  0.00  0.00    -0.084 HD
BRANCH   4   7
ATOM      7  C   UNL     1      34.294 -22.434 -17.033  0.00  0.00    +0.006 C 
BRANCH   7  14
ATOM      8  O   UNL     1      36.585 -21.947 -16.606  0.00  0.00    -0.277 OA
ATOM      9  N   UNL     1      35.359 -22.864 -14.870  0.00  0.00    -0.270 N 
ATOM     10  C   UNL     1      36.420 -22.794 -13.864  0.00  0.00    +0.167 C 
ATOM     11  C   UNL     1      35.682 -23.008 -12.540  0.00  0.00    +0.037 C 
ATOM     12  C   UNL     1      34.516 -23.913 -12.927  0.00  0.00    +0.024 C 
ATOM     13  C   UNL     1      34.120 -23.391 -14.300  0.00  0.00    +0.094 C 
ATOM     14  C   UNL     1      35.523 -22.385 -16.160  0.00  0.00    +0.205 C 
BRANCH  10  16
ATOM     15  N   UNL     1      38.227 -24.660 -14.279  0.00  0.00    -0.194 NA
ATOM     16  C   UNL     1      37.430 -23.837 -14.096  0.00  0.00    +0.093 C 
ENDBRANCH  10  16
ENDBRANCH   7  14
ENDBRANCH   4   7
ENDBRANCH   1   4
BRANCH   1  17
ATOM     17  C   UNL     1      35.046 -20.896 -20.037  0.00  0.00    +0.070 C 
BRANCH  17  19
ATOM     18  O   UNL     1      36.467 -18.369 -20.310  0.00  0.00    -0.270 OA
ATOM     19  N   UNL     1      34.696 -19.779 -20.873  0.00  0.00    -0.303 N 
ATOM     20  C   UNL     1      35.439 -18.613 -20.934  0.00  0.00    +0.245 C 
ATOM     21  H   UNL     1      33.886 -19.847 -21.430  0.00  0.00    +0.150 HD
BRANCH  20  25
ATOM     22  N   UNL     1      34.196 -15.416 -22.391  0.00  0.00    -0.194 N 
ATOM     23  N   UNL     1      33.916 -17.088 -24.100  0.00  0.00    -0.232 NA
ATOM     24  N   UNL     1      33.987 -14.088 -22.184  0.00  0.00    -0.185 NA
ATOM     25  C   UNL     1      34.873 -17.620 -21.866  0.00  0.00    +0.072 C 
ATOM     26  C   UNL     1      34.733 -16.341 -21.499  0.00  0.00    +0.150 C 
ATOM     27  C   UNL     1      34.419 -17.928 -23.247  0.00  0.00    +0.102 C 
ATOM     28  C   UNL     1      33.796 -15.799 -23.673  0.00  0.00    +0.133 C 
ATOM     29  C   UNL     1      33.319 -14.664 -24.286  0.00  0.00    +0.106 C 
ATOM     30  C   UNL     1      33.460 -13.651 -23.328  0.00  0.00    +0.062 C 
ATOM     31  C   UNL     1      33.099 -12.230 -23.467  0.00  0.00    +0.049 C 
ENDBRANCH  20  25
ENDBRANCH  17  19
ENDBRANCH   1  17
TORSDOF 7
ENDMDL
MODEL 7
REMARK VINA RESULT:     -10.6      4.424     11.881
REMARK  Name = 44513473
REMARK  7 active torsions:
REMARK  status: ('A' for Active; 'I' for Inactive)
REMARK    1  A    between atoms: C_1  and  N_4
REMARK    2  A    between atoms: C_1  and  C_17
REMARK    3  A    between atoms: N_4  and  C_7
REMARK    4  A    between atoms: C_7  and  C_14
REMARK    5  A    between atoms: C_10  and  C_16
REMARK    6  A    between atoms: C_17  and  N_19
REMARK    7  A    between atoms: C_20  and  C_25
REMARK                            x       y       z     vdW  Elec       q    Type
REMARK                         _______ _______ _______ _____ _____    ______ ____
ROOT
ATOM      1  C   UNL     1      32.923 -12.585 -23.371  0.00  0.00    -0.027 C 
ATOM      2  C   UNL     1      32.588 -13.416 -24.619  0.00  0.00    -0.020 C 
ATOM      3  C   UNL     1      33.665 -11.303 -23.779  0.00  0.00    -0.020 C 
ENDROOT
BRANCH   1   4
ATOM      4  N   UNL     1      33.814 -13.364 -22.518  0.00  0.00    +0.393 N 
ATOM      5  H   UNL     1      33.351 -13.540 -21.627  0.00  0.00    -0.084 HD
ATOM      6  H   UNL     1      34.674 -12.834 -22.378  0.00  0.00    -0.084 HD
BRANCH   4   7
ATOM      7  C   UNL     1      34.155 -14.631 -23.129  0.00  0.00    +0.006 C 
BRANCH   7  14
ATOM      8  O   UNL     1      34.458 -15.215 -20.841  0.00  0.00    -0.277 OA
ATOM      9  N   UNL     1      34.318 -16.951 -22.365  0.00  0.00    -0.270 N 
ATOM     10  C   UNL     1      34.366 -18.037 -21.383  0.00  0.00    +0.167 C 
ATOM     11  C   UNL     1      33.905 -19.264 -22.172  0.00  0.00    +0.037 C 
ATOM     12  C   UNL     1      34.380 -18.970 -23.593  0.00  0.00    +0.024 C 
ATOM     13  C   UNL     1      34.161 -17.470 -23.722  0.00  0.00    +0.094 C 
ATOM     14  C   UNL     1      34.322 -15.615 -21.999  0.00  0.00    +0.205 C 
BRANCH  10  16
ATOM     15  N   UNL     1      36.807 -18.345 -20.450  0.00  0.00    -0.194 NA
ATOM     16  C   UNL     1      35.731 -18.209 -20.861  0.00  0.00    +0.093 C 
ENDBRANCH  10  16
ENDBRANCH   7  14
ENDBRANCH   4   7
ENDBRANCH   1   4
BRANCH   1  17
ATOM     17  C   UNL     1      31.658 -12.266 -22.553  0.00  0.00    +0.070 C 
BRANCH  17  19
ATOM     18  O   UNL     1      31.566 -11.177 -19.854  0.00  0.00    -0.270 OA
ATOM     19  N   UNL     1      31.555 -10.884 -22.169  0.00  0.00    -0.303 N 
ATOM     20  C   UNL     1      31.518 -10.462 -20.850  0.00  0.00    +0.245 C 
ATOM     21  H   UNL     1      31.508 -10.203 -22.879  0.00  0.00    +0.150 HD
BRANCH  20  25
ATOM     22  N   UNL     1      31.047  -6.852 -21.646  0.00  0.00    -0.194 N 
ATOM     23  N   UNL     1      31.497  -6.967 -19.283  0.00  0.00    -0.232 NA
ATOM     24  N   UNL     1      30.783  -5.936 -22.615  0.00  0.00    -0.185 NA
ATOM     25  C   UNL     1      31.411  -8.998 -20.720  0.00  0.00    +0.072 C 
ATOM     26  C   UNL     1      31.144  -8.234 -21.786  0.00  0.00    +0.150 C 
ATOM     27  C   UNL     1      31.582  -8.253 -19.445  0.00  0.00    +0.102 C 
ATOM     28  C   UNL     1      31.224  -6.240 -20.403  0.00  0.00    +0.133 C 
ATOM     29  C   UNL     1      31.064  -4.889 -20.610  0.00  0.00    +0.106 C 
ATOM     30  C   UNL     1      30.797  -4.764 -21.981  0.00  0.00    +0.062 C 
ATOM     31  C   UNL     1      30.546  -3.524 -22.735  0.00  0.00    +0.049 C 
ENDBRANCH  20  25
ENDBRANCH  17  19
ENDBRANCH   1  17
TORSDOF 7
ENDMDL
MODEL 8
REMARK VINA RESULT:     -10.5      1.789      3.018
REMARK  Name = 44513473
REMARK  7 active torsions:
REMARK  status: ('A' for Active; 'I' for Inactive)
REMARK    1  A    between atoms: C_1  and  N_4
REMARK    2  A    between atoms: C_1  and  C_17
REMARK    3  A    between atoms: N_4  and  C_7
REMARK    4  A    between atoms: C_7  and  C_14
REMARK    5  A    between atoms: C_10  and  C_16
REMARK    6  A    between atoms: C_17  and  N_19
REMARK    7  A    between atoms: C_20  and  C_25
REMARK                            x       y       z     vdW  Elec       q    Type
REMARK                         _______ _______ _______ _____ _____    ______ ____
ROOT
ATOM      1  C   UNL     1      34.270 -19.250 -21.308  0.00  0.00    -0.027 C 
ATOM      2  C   UNL     1      34.617 -19.395 -22.798  0.00  0.00    -0.020 C 
ATOM      3  C   UNL     1      32.756 -19.410 -21.105  0.00  0.00    -0.020 C 
ENDROOT
BRANCH   1   4
ATOM      4  N   UNL     1      34.640 -17.908 -20.872  0.00  0.00    +0.393 N 
ATOM      5  H   UNL     1      35.597 -17.926 -20.519  0.00  0.00    -0.084 HD
ATOM      6  H   UNL     1      33.992 -17.616 -20.140  0.00  0.00    -0.084 HD
BRANCH   4   7
ATOM      7  C   UNL     1      34.557 -16.958 -21.960  0.00  0.00    +0.006 C 
BRANCH   7  14
ATOM      8  O   UNL     1      34.403 -15.460 -20.117  0.00  0.00    -0.277 OA
ATOM      9  N   UNL     1      33.847 -14.628 -22.204  0.00  0.00    -0.270 N 
ATOM     10  C   UNL     1      33.623 -13.245 -21.776  0.00  0.00    +0.167 C 
ATOM     11  C   UNL     1      33.613 -12.454 -23.085  0.00  0.00    +0.037 C 
ATOM     12  C   UNL     1      33.059 -13.454 -24.097  0.00  0.00    +0.024 C 
ATOM     13  C   UNL     1      33.673 -14.770 -23.648  0.00  0.00    +0.094 C 
ATOM     14  C   UNL     1      34.268 -15.618 -21.331  0.00  0.00    +0.205 C 
BRANCH  10  16
ATOM     15  N   UNL     1      31.338 -13.023 -20.491  0.00  0.00    -0.194 NA
ATOM     16  C   UNL     1      32.346 -13.121 -21.057  0.00  0.00    +0.093 C 
ENDBRANCH  10  16
ENDBRANCH   7  14
ENDBRANCH   4   7
ENDBRANCH   1   4
BRANCH   1  17
ATOM     17  C   UNL     1      35.061 -20.253 -20.448  0.00  0.00    +0.070 C 
BRANCH  17  19
ATOM     18  O   UNL     1      36.023 -21.774 -18.159  0.00  0.00    -0.270 OA
ATOM     19  N   UNL     1      34.276 -20.865 -19.410  0.00  0.00    -0.303 N 
ATOM     20  C   UNL     1      34.829 -21.573 -18.356  0.00  0.00    +0.245 C 
ATOM     21  H   UNL     1      33.295 -20.777 -19.451  0.00  0.00    +0.150 HD
BRANCH  20  25
ATOM     22  N   UNL     1      31.564 -22.432 -16.777  0.00  0.00    -0.194 N 
ATOM     23  N   UNL     1      33.268 -23.329 -15.331  0.00  0.00    -0.232 NA
ATOM     24  N   UNL     1      30.210 -22.347 -16.869  0.00  0.00    -0.185 NA
ATOM     25  C   UNL     1      33.815 -22.101 -17.425  0.00  0.00    +0.072 C 
ATOM     26  C   UNL     1      32.509 -21.928 -17.667  0.00  0.00    +0.150 C 
ATOM     27  C   UNL     1      34.126 -22.847 -16.178  0.00  0.00    +0.102 C 
ATOM     28  C   UNL     1      31.953 -23.122 -15.627  0.00  0.00    +0.133 C 
ATOM     29  C   UNL     1      30.794 -23.480 -14.979  0.00  0.00    +0.106 C 
ATOM     30  C   UNL     1      29.761 -22.979 -15.784  0.00  0.00    +0.062 C 
ATOM     31  C   UNL     1      28.311 -23.084 -15.550  0.00  0.00    +0.049 C 
ENDBRANCH  20  25
ENDBRANCH  17  19
ENDBRANCH   1  17
TORSDOF 7
ENDMDL
MODEL 9
REMARK VINA RESULT:     -10.5      5.636      8.720
REMARK  Name = 44513473
REMARK  7 active torsions:
REMARK  status: ('A' for Active; 'I' for Inactive)
REMARK    1  A    between atoms: C_1  and  N_4
REMARK    2  A    between atoms: C_1  and  C_17
REMARK    3  A    between atoms: N_4  and  C_7
REMARK    4  A    between atoms: C_7  and  C_14
REMARK    5  A    between atoms: C_10  and  C_16
REMARK    6  A    between atoms: C_17  and  N_19
REMARK    7  A    between atoms: C_20  and  C_25
REMARK                            x       y       z     vdW  Elec       q    Type
REMARK                         _______ _______ _______ _____ _____    ______ ____
ROOT
ATOM      1  C   UNL     1      35.404 -23.431 -13.159  0.00  0.00    -0.027 C 
ATOM      2  C   UNL     1      36.415 -22.803 -12.189  0.00  0.00    -0.020 C 
ATOM      3  C   UNL     1      36.091 -24.514 -14.004  0.00  0.00    -0.020 C 
ENDROOT
BRANCH   1   4
ATOM      4  N   UNL     1      34.923 -22.394 -14.067  0.00  0.00    +0.393 N 
ATOM      5  H   UNL     1      35.121 -21.480 -13.661  0.00  0.00    -0.084 HD
ATOM      6  H   UNL     1      33.920 -22.520 -14.199  0.00  0.00    -0.084 HD
BRANCH   4   7
ATOM      7  C   UNL     1      35.568 -22.484 -15.359  0.00  0.00    +0.006 C 
BRANCH   7  14
ATOM      8  O   UNL     1      33.414 -23.165 -16.111  0.00  0.00    -0.277 OA
ATOM      9  N   UNL     1      34.719 -21.960 -17.595  0.00  0.00    -0.270 N 
ATOM     10  C   UNL     1      33.715 -21.863 -18.656  0.00  0.00    +0.167 C 
ATOM     11  C   UNL     1      34.261 -20.771 -19.578  0.00  0.00    +0.037 C 
ATOM     12  C   UNL     1      35.774 -20.906 -19.429  0.00  0.00    +0.024 C 
ATOM     13  C   UNL     1      35.942 -21.246 -17.956  0.00  0.00    +0.094 C 
ATOM     14  C   UNL     1      34.460 -22.572 -16.379  0.00  0.00    +0.205 C 
BRANCH  10  16
ATOM     15  N   UNL     1      33.463 -24.159 -19.917  0.00  0.00    -0.194 NA
ATOM     16  C   UNL     1      33.574 -23.146 -19.361  0.00  0.00    +0.093 C 
ENDBRANCH  10  16
ENDBRANCH   7  14
ENDBRANCH   4   7
ENDBRANCH   1   4
BRANCH   1  17
ATOM     17  C   UNL     1      34.182 -23.995 -12.410  0.00  0.00    +0.070 C 
BRANCH  17  19
ATOM     18  O   UNL     1      31.785 -22.379 -12.061  0.00  0.00    -0.270 OA
ATOM     19  N   UNL     1      32.983 -24.023 -13.203  0.00  0.00    -0.303 N 
ATOM     20  C   UNL     1      31.889 -23.211 -12.956  0.00  0.00    +0.245 C 
ATOM     21  H   UNL     1      32.938 -24.653 -13.959  0.00  0.00    +0.150 HD
BRANCH  20  25
ATOM     22  N   UNL     1      29.033 -22.623 -15.277  0.00  0.00    -0.194 N 
ATOM     23  N   UNL     1      29.413 -25.000 -15.267  0.00  0.00    -0.232 NA
ATOM     24  N   UNL     1      28.214 -21.698 -15.845  0.00  0.00    -0.185 NA
ATOM     25  C   UNL     1      30.787 -23.430 -13.910  0.00  0.00    +0.072 C 
ATOM     26  C   UNL     1      30.072 -22.398 -14.376  0.00  0.00    +0.150 C 
ATOM     27  C   UNL     1      30.376 -24.761 -14.428  0.00  0.00    +0.102 C 
ATOM     28  C   UNL     1      28.719 -23.913 -15.708  0.00  0.00    +0.133 C 
ATOM     29  C   UNL     1      27.662 -23.784 -16.578  0.00  0.00    +0.106 C 
ATOM     30  C   UNL     1      27.397 -22.408 -16.622  0.00  0.00    +0.062 C 
ATOM     31  C   UNL     1      26.356 -21.721 -17.406  0.00  0.00    +0.049 C 
ENDBRANCH  20  25
ENDBRANCH  17  19
ENDBRANCH   1  17
TORSDOF 7
ENDMDL
