MODEL 1
REMARK VINA RESULT:     -12.5      0.000      0.000
REMARK  Name = 50905713
REMARK  3 active torsions:
REMARK  status: ('A' for Active; 'I' for Inactive)
REMARK    1  A    between atoms: N_3  and  C_13
REMARK    2  A    between atoms: C_4  and  C_19
REMARK    3  A    between atoms: C_19  and  N_21
REMARK                            x       y       z     vdW  Elec       q    Type
REMARK                         _______ _______ _______ _____ _____    ______ ____
ROOT
ATOM      1 CL   UNL     1      32.098 -20.513 -20.429  0.00  0.00    -0.082 Cl
ATOM      2  O   UNL     1      31.228 -21.715 -18.214  0.00  0.00    -0.269 OA
ATOM      3  N   UNL     1      32.377 -22.646 -16.379  0.00  0.00    -0.236 N 
ATOM      4  C   UNL     1      33.626 -22.871 -15.770  0.00  0.00    +0.054 C 
ATOM      5  C   UNL     1      34.768 -22.445 -16.338  0.00  0.00    +0.013 C 
ATOM      6  C   UNL     1      34.756 -21.736 -17.607  0.00  0.00    +0.006 C 
ATOM      7  C   UNL     1      33.543 -21.518 -18.260  0.00  0.00    +0.065 C 
ATOM      8  C   UNL     1      32.280 -21.979 -17.631  0.00  0.00    +0.257 C 
ATOM      9  C   UNL     1      35.947 -21.288 -18.193  0.00  0.00    +0.000 C 
ATOM     10  C   UNL     1      33.518 -20.853 -19.493  0.00  0.00    +0.062 C 
ATOM     11  C   UNL     1      35.921 -20.625 -19.420  0.00  0.00    +0.001 C 
ATOM     12  C   UNL     1      34.708 -20.409 -20.069  0.00  0.00    +0.012 C 
ENDROOT
BRANCH   3  13
ATOM     13  C   UNL     1      31.133 -23.052 -15.773  0.00  0.00    +0.058 C 
ATOM     14  C   UNL     1      30.714 -24.379 -15.864  0.00  0.00    +0.015 C 
ATOM     15  C   UNL     1      30.350 -22.118 -15.095  0.00  0.00    +0.015 C 
ATOM     16  C   UNL     1      29.510 -24.773 -15.278  0.00  0.00    +0.001 C 
ATOM     17  C   UNL     1      29.146 -22.511 -14.510  0.00  0.00    +0.001 C 
ATOM     18  C   UNL     1      28.726 -23.838 -14.601  0.00  0.00    +0.000 C 
ENDBRANCH   3  13
BRANCH   4  19
ATOM     19  C   UNL     1      33.729 -23.702 -14.515  0.00  0.00    +0.107 C 
ATOM     20  C   UNL     1      32.877 -23.130 -13.397  0.00  0.00    +0.027 C 
BRANCH  19  21
ATOM     21  N   UNL     1      35.112 -23.733 -14.114  0.00  0.00    -0.317 N 
ATOM     22  N   UNL     1      38.063 -23.871 -13.290  0.00  0.00    -0.270 NA
ATOM     23  N   UNL     1      35.512 -25.923 -14.963  0.00  0.00    -0.232 NA
ATOM     24  N   UNL     1      39.375 -25.632 -13.676  0.00  0.00    -0.307 N 
ATOM     25  N   UNL     1      37.696 -26.997 -14.783  0.00  0.00    -0.232 NA
ATOM     26  C   UNL     1      35.958 -24.811 -14.337  0.00  0.00    +0.124 C 
ATOM     27  C   UNL     1      37.277 -24.785 -13.930  0.00  0.00    +0.164 C 
ATOM     28  C   UNL     1      38.113 -25.869 -14.160  0.00  0.00    +0.125 C 
ATOM     29  C   UNL     1      39.311 -24.423 -13.160  0.00  0.00    +0.163 C 
ATOM     30  C   UNL     1      36.396 -26.934 -15.145  0.00  0.00    +0.252 C 
ATOM     31  H   UNL     1      35.480 -22.943 -13.655  0.00  0.00    +0.148 HD
ATOM     32  H   UNL     1      37.785 -22.979 -12.979  0.00  0.00    +0.126 HD
ATOM     33  H   UNL     1      40.154 -26.232 -13.707  0.00  0.00    +0.149 HD
ENDBRANCH  19  21
ENDBRANCH   4  19
TORSDOF 3
ENDMDL
MODEL 2
REMARK VINA RESULT:     -11.4      3.343      6.392
REMARK  Name = 50905713
REMARK  3 active torsions:
REMARK  status: ('A' for Active; 'I' for Inactive)
REMARK    1  A    between atoms: N_3  and  C_13
REMARK    2  A    between atoms: C_4  and  C_19
REMARK    3  A    between atoms: C_19  and  N_21
REMARK                            x       y       z     vdW  Elec       q    Type
REMARK                         _______ _______ _______ _____ _____    ______ ____
ROOT
ATOM      1 CL   UNL     1      35.533 -24.267 -10.509  0.00  0.00    -0.082 Cl
ATOM      2  O   UNL     1      33.439 -23.982 -12.134  0.00  0.00    -0.269 OA
ATOM      3  N   UNL     1      33.294 -23.505 -14.437  0.00  0.00    -0.236 N 
ATOM      4  C   UNL     1      33.999 -23.285 -15.635  0.00  0.00    +0.054 C 
ATOM      5  C   UNL     1      35.343 -23.319 -15.672  0.00  0.00    +0.013 C 
ATOM      6  C   UNL     1      36.121 -23.584 -14.472  0.00  0.00    +0.006 C 
ATOM      7  C   UNL     1      35.463 -23.777 -13.258  0.00  0.00    +0.065 C 
ATOM      8  C   UNL     1      33.979 -23.749 -13.216  0.00  0.00    +0.257 C 
ATOM      9  C   UNL     1      37.520 -23.626 -14.516  0.00  0.00    +0.000 C 
ATOM     10  C   UNL     1      36.199 -24.014 -12.089  0.00  0.00    +0.062 C 
ATOM     11  C   UNL     1      38.252 -23.862 -13.353  0.00  0.00    +0.001 C 
ATOM     12  C   UNL     1      37.593 -24.055 -12.141  0.00  0.00    +0.012 C 
ENDROOT
BRANCH   3  13
ATOM     13  C   UNL     1      31.853 -23.518 -14.375  0.00  0.00    +0.058 C 
ATOM     14  C   UNL     1      31.169 -24.731 -14.296  0.00  0.00    +0.015 C 
ATOM     15  C   UNL     1      31.144 -22.317 -14.395  0.00  0.00    +0.015 C 
ATOM     16  C   UNL     1      29.775 -24.744 -14.237  0.00  0.00    +0.001 C 
ATOM     17  C   UNL     1      29.750 -22.330 -14.336  0.00  0.00    +0.001 C 
ATOM     18  C   UNL     1      29.066 -23.542 -14.257  0.00  0.00    +0.000 C 
ENDBRANCH   3  13
BRANCH   4  19
ATOM     19  C   UNL     1      33.268 -22.886 -16.893  0.00  0.00    +0.107 C 
ATOM     20  C   UNL     1      32.839 -24.101 -17.696  0.00  0.00    +0.027 C 
BRANCH  19  21
ATOM     21  N   UNL     1      34.152 -22.064 -17.679  0.00  0.00    -0.317 N 
ATOM     22  N   UNL     1      35.972 -20.291 -19.397  0.00  0.00    -0.270 NA
ATOM     23  N   UNL     1      32.435 -21.255 -19.120  0.00  0.00    -0.232 NA
ATOM     24  N   UNL     1      35.244 -19.058 -21.105  0.00  0.00    -0.307 N 
ATOM     25  N   UNL     1      32.903 -19.689 -20.932  0.00  0.00    -0.232 NA
ATOM     26  C   UNL     1      33.735 -21.284 -18.749  0.00  0.00    +0.124 C 
ATOM     27  C   UNL     1      34.627 -20.515 -19.468  0.00  0.00    +0.164 C 
ATOM     28  C   UNL     1      34.198 -19.738 -20.536  0.00  0.00    +0.125 C 
ATOM     29  C   UNL     1      36.295 -19.413 -20.398  0.00  0.00    +0.163 C 
ATOM     30  C   UNL     1      32.104 -20.471 -20.174  0.00  0.00    +0.252 C 
ATOM     31  H   UNL     1      35.108 -22.054 -17.444  0.00  0.00    +0.148 HD
ATOM     32  H   UNL     1      36.596 -20.688 -18.746  0.00  0.00    +0.126 HD
ATOM     33  H   UNL     1      35.215 -18.443 -21.873  0.00  0.00    +0.149 HD
ENDBRANCH  19  21
ENDBRANCH   4  19
TORSDOF 3
ENDMDL
MODEL 3
REMARK VINA RESULT:      -9.8      3.233      7.187
REMARK  Name = 50905713
REMARK  3 active torsions:
REMARK  status: ('A' for Active; 'I' for Inactive)
REMARK    1  A    between atoms: N_3  and  C_13
REMARK    2  A    between atoms: C_4  and  C_19
REMARK    3  A    between atoms: C_19  and  N_21
REMARK                            x       y       z     vdW  Elec       q    Type
REMARK                         _______ _______ _______ _____ _____    ______ ____
ROOT
ATOM      1 CL   UNL     1      30.018 -24.659 -12.595  0.00  0.00    -0.082 Cl
ATOM      2  O   UNL     1      32.578 -24.346 -13.267  0.00  0.00    -0.269 OA
ATOM      3  N   UNL     1      33.597 -23.391 -15.166  0.00  0.00    -0.236 N 
ATOM      4  C   UNL     1      33.401 -22.715 -16.386  0.00  0.00    +0.054 C 
ATOM      5  C   UNL     1      32.169 -22.395 -16.819  0.00  0.00    +0.013 C 
ATOM      6  C   UNL     1      30.988 -22.739 -16.043  0.00  0.00    +0.006 C 
ATOM      7  C   UNL     1      31.134 -23.436 -14.844  0.00  0.00    +0.065 C 
ATOM      8  C   UNL     1      32.493 -23.782 -14.359  0.00  0.00    +0.257 C 
ATOM      9  C   UNL     1      29.707 -22.398 -16.495  0.00  0.00    +0.000 C 
ATOM     10  C   UNL     1      30.004 -23.791 -14.096  0.00  0.00    +0.062 C 
ATOM     11  C   UNL     1      28.582 -22.751 -15.748  0.00  0.00    +0.001 C 
ATOM     12  C   UNL     1      28.731 -23.447 -14.552  0.00  0.00    +0.012 C 
ENDROOT
BRANCH   3  13
ATOM     13  C   UNL     1      34.907 -23.708 -14.655  0.00  0.00    +0.058 C 
ATOM     14  C   UNL     1      35.514 -24.918 -14.993  0.00  0.00    +0.015 C 
ATOM     15  C   UNL     1      35.568 -22.805 -13.823  0.00  0.00    +0.015 C 
ATOM     16  C   UNL     1      36.781 -25.225 -14.499  0.00  0.00    +0.001 C 
ATOM     17  C   UNL     1      36.836 -23.113 -13.328  0.00  0.00    +0.001 C 
ATOM     18  C   UNL     1      37.443 -24.322 -13.666  0.00  0.00    +0.000 C 
ENDBRANCH   3  13
BRANCH   4  19
ATOM     19  C   UNL     1      34.567 -22.432 -17.301  0.00  0.00    +0.107 C 
ATOM     20  C   UNL     1      35.641 -21.620 -16.601  0.00  0.00    +0.027 C 
BRANCH  19  21
ATOM     21  N   UNL     1      34.070 -21.710 -18.444  0.00  0.00    -0.317 N 
ATOM     22  N   UNL     1      33.080 -20.135 -20.882  0.00  0.00    -0.270 NA
ATOM     23  N   UNL     1      36.070 -20.456 -18.766  0.00  0.00    -0.232 NA
ATOM     24  N   UNL     1      34.311 -18.620 -21.959  0.00  0.00    -0.307 N 
ATOM     25  N   UNL     1      36.292 -18.824 -20.567  0.00  0.00    -0.232 NA
ATOM     26  C   UNL     1      34.807 -20.761 -19.139  0.00  0.00    +0.124 C 
ATOM     27  C   UNL     1      34.278 -20.099 -20.229  0.00  0.00    +0.164 C 
ATOM     28  C   UNL     1      35.025 -19.152 -20.916  0.00  0.00    +0.125 C 
ATOM     29  C   UNL     1      33.146 -19.232 -21.911  0.00  0.00    +0.163 C 
ATOM     30  C   UNL     1      36.726 -19.519 -19.493  0.00  0.00    +0.252 C 
ATOM     31  H   UNL     1      33.153 -21.901 -18.751  0.00  0.00    +0.148 HD
ATOM     32  H   UNL     1      32.309 -20.705 -20.656  0.00  0.00    +0.126 HD
ATOM     33  H   UNL     1      34.602 -17.933 -22.601  0.00  0.00    +0.149 HD
ENDBRANCH  19  21
ENDBRANCH   4  19
TORSDOF 3
ENDMDL
