MODEL 1
REMARK VINA RESULT:     -11.8      0.000      0.000
REMARK  Name = 71481097
REMARK  6 active torsions:
REMARK  status: ('A' for Active; 'I' for Inactive)
REMARK    1  A    between atoms: N_1  and  C_20
REMARK    2  A    between atoms: C_4  and  C_6
REMARK    3  A    between atoms: C_7  and  C_15
REMARK    4  A    between atoms: C_8  and  C_19
REMARK    5  A    between atoms: C_21  and  C_24
REMARK    6  A    between atoms: N_23  and  N_26
REMARK                            x       y       z     vdW  Elec       q    Type
REMARK                         _______ _______ _______ _____ _____    ______ ____
ROOT
ATOM      1  N   UNL     1      34.273 -19.873 -21.334  0.00  0.00    -0.176 N 
ATOM      2  N   UNL     1      34.709 -20.528 -20.248  0.00  0.00    -0.122 NA
ATOM      3  N   UNL     1      32.561 -20.337 -19.890  0.00  0.00    -0.194 NA
ATOM      4  C   UNL     1      33.685 -20.800 -19.394  0.00  0.00    +0.050 C 
ATOM      5  C   UNL     1      32.968 -19.782 -21.069  0.00  0.00    +0.252 C 
ENDROOT
BRANCH   4   6
ATOM      6  C   UNL     1      33.820 -21.491 -18.142  0.00  0.00    +0.063 C 
ATOM      7  C   UNL     1      35.213 -22.341 -16.361  0.00  0.00    +0.072 C 
ATOM      8  C   UNL     1      32.818 -22.652 -16.275  0.00  0.00    +0.072 C 
ATOM      9  C   UNL     1      32.688 -21.982 -17.491  0.00  0.00    +0.014 C 
ATOM     10  C   UNL     1      35.082 -21.670 -17.576  0.00  0.00    +0.014 C 
ATOM     11  C   UNL     1      34.081 -22.832 -15.710  0.00  0.00    +0.008 C 
BRANCH   7  15
ATOM     12  F   UNL     1      36.822 -23.823 -15.393  0.00  0.00    -0.166 F 
ATOM     13  F   UNL     1      37.589 -22.180 -16.584  0.00  0.00    -0.166 F 
ATOM     14  F   UNL     1      36.737 -21.791 -14.621  0.00  0.00    -0.166 F 
ATOM     15  C   UNL     1      36.562 -22.532 -15.754  0.00  0.00    +0.419 C 
ENDBRANCH   7  15
BRANCH   8  19
ATOM     16  F   UNL     1      31.915 -24.081 -14.604  0.00  0.00    -0.166 F 
ATOM     17  F   UNL     1      30.871 -22.207 -14.958  0.00  0.00    -0.166 F 
ATOM     18  F   UNL     1      30.732 -23.813 -16.408  0.00  0.00    -0.166 F 
ATOM     19  C   UNL     1      31.609 -23.176 -15.578  0.00  0.00    +0.419 C 
ENDBRANCH   8  19
ENDBRANCH   4   6
BRANCH   1  20
ATOM     20  C   UNL     1      34.962 -19.411 -22.430  0.00  0.00    +0.092 C 
ATOM     21  C   UNL     1      35.386 -18.147 -22.584  0.00  0.00    +0.077 C 
BRANCH  21  24
ATOM     22  O   UNL     1      35.492 -17.276 -20.364  0.00  0.00    -0.269 OA
ATOM     23  N   UNL     1      34.408 -16.062 -22.020  0.00  0.00    -0.231 N 
ATOM     24  C   UNL     1      35.116 -17.137 -21.523  0.00  0.00    +0.263 C 
ATOM     25  H   UNL     1      34.141 -16.024 -22.966  0.00  0.00    +0.173 HD
BRANCH  23  26
ATOM     26  N   UNL     1      34.087 -15.050 -21.160  0.00  0.00    -0.246 N 
ATOM     27  N   UNL     1      32.802 -13.093 -20.748  0.00  0.00    -0.225 NA
ATOM     28  N   UNL     1      32.521 -12.766 -23.518  0.00  0.00    -0.238 NA
ATOM     29  C   UNL     1      33.351 -13.955 -21.627  0.00  0.00    +0.164 C 
ATOM     30  C   UNL     1      33.213 -13.793 -22.989  0.00  0.00    +0.134 C 
ATOM     31  C   UNL     1      32.111 -12.066 -21.278  0.00  0.00    +0.121 C 
ATOM     32  C   UNL     1      31.973 -11.905 -22.639  0.00  0.00    +0.120 C 
ATOM     33  H   UNL     1      34.371 -15.091 -20.217  0.00  0.00    +0.172 HD
ENDBRANCH  23  26
ENDBRANCH  21  24
ENDBRANCH   1  20
TORSDOF 6
ENDMDL
MODEL 2
REMARK VINA RESULT:     -11.8      0.035      3.124
REMARK  Name = 71481097
REMARK  6 active torsions:
REMARK  status: ('A' for Active; 'I' for Inactive)
REMARK    1  A    between atoms: N_1  and  C_20
REMARK    2  A    between atoms: C_4  and  C_6
REMARK    3  A    between atoms: C_7  and  C_15
REMARK    4  A    between atoms: C_8  and  C_19
REMARK    5  A    between atoms: C_21  and  C_24
REMARK    6  A    between atoms: N_23  and  N_26
REMARK                            x       y       z     vdW  Elec       q    Type
REMARK                         _______ _______ _______ _____ _____    ______ ____
ROOT
ATOM      1  N   UNL     1      34.296 -19.880 -21.320  0.00  0.00    -0.176 N 
ATOM      2  N   UNL     1      34.730 -20.532 -20.231  0.00  0.00    -0.122 NA
ATOM      3  N   UNL     1      32.580 -20.349 -19.881  0.00  0.00    -0.194 NA
ATOM      4  C   UNL     1      33.705 -20.808 -19.380  0.00  0.00    +0.050 C 
ATOM      5  C   UNL     1      32.989 -19.794 -21.059  0.00  0.00    +0.252 C 
ENDROOT
BRANCH   4   6
ATOM      6  C   UNL     1      33.837 -21.497 -18.128  0.00  0.00    +0.063 C 
ATOM      7  C   UNL     1      32.833 -22.656 -16.261  0.00  0.00    +0.072 C 
ATOM      8  C   UNL     1      35.228 -22.347 -16.345  0.00  0.00    +0.072 C 
ATOM      9  C   UNL     1      35.099 -21.677 -17.561  0.00  0.00    +0.014 C 
ATOM     10  C   UNL     1      32.705 -21.987 -17.478  0.00  0.00    +0.014 C 
ATOM     11  C   UNL     1      34.095 -22.837 -15.694  0.00  0.00    +0.008 C 
BRANCH   7  15
ATOM     12  F   UNL     1      30.730 -23.788 -16.404  0.00  0.00    -0.166 F 
ATOM     13  F   UNL     1      31.904 -24.116 -14.609  0.00  0.00    -0.166 F 
ATOM     14  F   UNL     1      30.918 -22.203 -14.927  0.00  0.00    -0.166 F 
ATOM     15  C   UNL     1      31.622 -23.182 -15.566  0.00  0.00    +0.419 C 
ENDBRANCH   7  15
BRANCH   8  19
ATOM     16  F   UNL     1      36.753 -21.806 -14.603  0.00  0.00    -0.166 F 
ATOM     17  F   UNL     1      36.835 -23.835 -15.381  0.00  0.00    -0.166 F 
ATOM     18  F   UNL     1      37.604 -22.190 -16.567  0.00  0.00    -0.166 F 
ATOM     19  C   UNL     1      36.577 -22.542 -15.739  0.00  0.00    +0.419 C 
ENDBRANCH   8  19
ENDBRANCH   4   6
BRANCH   1  20
ATOM     20  C   UNL     1      34.987 -19.416 -22.413  0.00  0.00    +0.092 C 
ATOM     21  C   UNL     1      35.399 -18.149 -22.571  0.00  0.00    +0.077 C 
BRANCH  21  24
ATOM     22  O   UNL     1      35.464 -17.276 -20.350  0.00  0.00    -0.269 OA
ATOM     23  N   UNL     1      34.417 -16.060 -22.029  0.00  0.00    -0.231 N 
ATOM     24  C   UNL     1      35.111 -17.137 -21.517  0.00  0.00    +0.263 C 
ATOM     25  H   UNL     1      34.169 -16.023 -22.980  0.00  0.00    +0.173 HD
BRANCH  23  26
ATOM     26  N   UNL     1      34.083 -15.046 -21.177  0.00  0.00    -0.246 N 
ATOM     27  N   UNL     1      32.799 -13.083 -20.793  0.00  0.00    -0.225 NA
ATOM     28  N   UNL     1      32.576 -12.758 -23.569  0.00  0.00    -0.238 NA
ATOM     29  C   UNL     1      33.362 -13.948 -21.660  0.00  0.00    +0.164 C 
ATOM     30  C   UNL     1      33.253 -13.788 -23.024  0.00  0.00    +0.134 C 
ATOM     31  C   UNL     1      32.123 -12.053 -21.339  0.00  0.00    +0.121 C 
ATOM     32  C   UNL     1      32.013 -11.894 -22.702  0.00  0.00    +0.120 C 
ATOM     33  H   UNL     1      34.348 -15.087 -20.229  0.00  0.00    +0.172 HD
ENDBRANCH  23  26
ENDBRANCH  21  24
ENDBRANCH   1  20
TORSDOF 6
ENDMDL
MODEL 3
REMARK VINA RESULT:     -11.3      5.269      7.827
REMARK  Name = 71481097
REMARK  6 active torsions:
REMARK  status: ('A' for Active; 'I' for Inactive)
REMARK    1  A    between atoms: N_1  and  C_20
REMARK    2  A    between atoms: C_4  and  C_6
REMARK    3  A    between atoms: C_7  and  C_15
REMARK    4  A    between atoms: C_8  and  C_19
REMARK    5  A    between atoms: C_21  and  C_24
REMARK    6  A    between atoms: N_23  and  N_26
REMARK                            x       y       z     vdW  Elec       q    Type
REMARK                         _______ _______ _______ _____ _____    ______ ____
ROOT
ATOM      1  N   UNL     1      30.795 -24.114 -13.787  0.00  0.00    -0.176 N 
ATOM      2  N   UNL     1      32.013 -24.413 -14.264  0.00  0.00    -0.122 NA
ATOM      3  N   UNL     1      32.408 -22.776 -12.871  0.00  0.00    -0.194 NA
ATOM      4  C   UNL     1      32.967 -23.614 -13.714  0.00  0.00    +0.050 C 
ATOM      5  C   UNL     1      31.089 -23.118 -12.949  0.00  0.00    +0.252 C 
ENDROOT
BRANCH   4   6
ATOM      6  C   UNL     1      34.369 -23.681 -14.014  0.00  0.00    +0.063 C 
ATOM      7  C   UNL     1      36.301 -22.829 -15.188  0.00  0.00    +0.072 C 
ATOM      8  C   UNL     1      36.525 -24.727 -13.710  0.00  0.00    +0.072 C 
ATOM      9  C   UNL     1      35.163 -24.663 -13.420  0.00  0.00    +0.014 C 
ATOM     10  C   UNL     1      34.939 -22.764 -14.897  0.00  0.00    +0.014 C 
ATOM     11  C   UNL     1      37.095 -23.811 -14.594  0.00  0.00    +0.008 C 
BRANCH   7  15
ATOM     12  F   UNL     1      36.493 -21.998 -17.423  0.00  0.00    -0.166 F 
ATOM     13  F   UNL     1      36.640 -20.546 -15.818  0.00  0.00    -0.166 F 
ATOM     14  F   UNL     1      38.272 -21.938 -16.174  0.00  0.00    -0.166 F 
ATOM     15  C   UNL     1      36.911 -21.848 -16.132  0.00  0.00    +0.419 C 
ENDBRANCH   7  15
BRANCH   8  19
ATOM     16  F   UNL     1      37.407 -26.934 -13.796  0.00  0.00    -0.166 F 
ATOM     17  F   UNL     1      38.681 -25.403 -12.922  0.00  0.00    -0.166 F 
ATOM     18  F   UNL     1      36.959 -26.133 -11.824  0.00  0.00    -0.166 F 
ATOM     19  C   UNL     1      37.375 -25.776 -13.075  0.00  0.00    +0.419 C 
ENDBRANCH   8  19
ENDBRANCH   4   6
BRANCH   1  20
ATOM     20  C   UNL     1      29.569 -24.666 -14.072  0.00  0.00    +0.092 C 
ATOM     21  C   UNL     1      28.661 -24.120 -14.895  0.00  0.00    +0.077 C 
BRANCH  21  24
ATOM     22  O   UNL     1      28.284 -21.815 -15.391  0.00  0.00    -0.269 OA
ATOM     23  N   UNL     1      30.053 -22.929 -16.402  0.00  0.00    -0.231 N 
ATOM     24  C   UNL     1      28.955 -22.826 -15.572  0.00  0.00    +0.263 C 
ATOM     25  H   UNL     1      30.540 -23.779 -16.494  0.00  0.00    +0.173 HD
BRANCH  23  26
ATOM     26  N   UNL     1      30.445 -21.817 -17.091  0.00  0.00    -0.246 N 
ATOM     27  N   UNL     1      31.908 -20.864 -18.704  0.00  0.00    -0.225 NA
ATOM     28  N   UNL     1      33.698 -22.971 -18.240  0.00  0.00    -0.238 NA
ATOM     29  C   UNL     1      31.644 -21.841 -17.814  0.00  0.00    +0.164 C 
ATOM     30  C   UNL     1      32.524 -22.876 -17.586  0.00  0.00    +0.134 C 
ATOM     31  C   UNL     1      33.082 -20.959 -19.357  0.00  0.00    +0.121 C 
ATOM     32  C   UNL     1      33.961 -21.995 -19.130  0.00  0.00    +0.120 C 
ATOM     33  H   UNL     1      29.889 -21.005 -17.080  0.00  0.00    +0.172 HD
ENDBRANCH  23  26
ENDBRANCH  21  24
ENDBRANCH   1  20
TORSDOF 6
ENDMDL
MODEL 4
REMARK VINA RESULT:     -11.0      5.278      7.348
REMARK  Name = 71481097
REMARK  6 active torsions:
REMARK  status: ('A' for Active; 'I' for Inactive)
REMARK    1  A    between atoms: N_1  and  C_20
REMARK    2  A    between atoms: C_4  and  C_6
REMARK    3  A    between atoms: C_7  and  C_15
REMARK    4  A    between atoms: C_8  and  C_19
REMARK    5  A    between atoms: C_21  and  C_24
REMARK    6  A    between atoms: N_23  and  N_26
REMARK                            x       y       z     vdW  Elec       q    Type
REMARK                         _______ _______ _______ _____ _____    ______ ____
ROOT
ATOM      1  N   UNL     1      35.435 -21.184 -18.156  0.00  0.00    -0.176 N 
ATOM      2  N   UNL     1      35.499 -22.151 -17.228  0.00  0.00    -0.122 NA
ATOM      3  N   UNL     1      37.141 -20.818 -16.678  0.00  0.00    -0.194 NA
ATOM      4  C   UNL     1      36.516 -21.926 -16.353  0.00  0.00    +0.050 C 
ATOM      5  C   UNL     1      36.449 -20.403 -17.779  0.00  0.00    +0.252 C 
ENDROOT
BRANCH   4   6
ATOM      6  C   UNL     1      36.850 -22.775 -15.244  0.00  0.00    +0.063 C 
ATOM      7  C   UNL     1      38.398 -24.266 -14.142  0.00  0.00    +0.072 C 
ATOM      8  C   UNL     1      36.273 -23.755 -13.112  0.00  0.00    +0.072 C 
ATOM      9  C   UNL     1      35.949 -22.932 -14.190  0.00  0.00    +0.014 C 
ATOM     10  C   UNL     1      38.074 -23.442 -15.219  0.00  0.00    +0.014 C 
ATOM     11  C   UNL     1      37.498 -24.423 -13.088  0.00  0.00    +0.008 C 
BRANCH   7  15
ATOM     12  F   UNL     1      40.763 -24.173 -13.792  0.00  0.00    -0.166 F 
ATOM     13  F   UNL     1      39.755 -26.003 -13.213  0.00  0.00    -0.166 F 
ATOM     14  F   UNL     1      40.028 -25.536 -15.319  0.00  0.00    -0.166 F 
ATOM     15  C   UNL     1      39.709 -24.979 -14.114  0.00  0.00    +0.419 C 
ENDBRANCH   7  15
BRANCH   8  19
ATOM     16  F   UNL     1      34.066 -24.288 -12.406  0.00  0.00    -0.166 F 
ATOM     17  F   UNL     1      35.687 -24.876 -11.082  0.00  0.00    -0.166 F 
ATOM     18  F   UNL     1      35.131 -22.787 -11.248  0.00  0.00    -0.166 F 
ATOM     19  C   UNL     1      35.312 -23.922 -11.985  0.00  0.00    +0.419 C 
ENDBRANCH   8  19
ENDBRANCH   4   6
BRANCH   1  20
ATOM     20  C   UNL     1      34.572 -21.023 -19.214  0.00  0.00    +0.092 C 
ATOM     21  C   UNL     1      33.418 -21.691 -19.362  0.00  0.00    +0.077 C 
BRANCH  21  24
ATOM     22  O   UNL     1      33.186 -23.893 -18.469  0.00  0.00    -0.269 OA
ATOM     23  N   UNL     1      32.392 -22.077 -17.259  0.00  0.00    -0.231 N 
ATOM     24  C   UNL     1      32.998 -22.688 -18.337  0.00  0.00    +0.263 C 
ATOM     25  H   UNL     1      32.277 -21.100 -17.229  0.00  0.00    +0.173 HD
BRANCH  23  26
ATOM     26  N   UNL     1      31.954 -22.867 -16.234  0.00  0.00    -0.246 N 
ATOM     27  N   UNL     1      30.128 -23.968 -15.183  0.00  0.00    -0.225 NA
ATOM     28  N   UNL     1      28.390 -22.174 -16.458  0.00  0.00    -0.238 NA
ATOM     29  C   UNL     1      30.579 -22.997 -16.003  0.00  0.00    +0.164 C 
ATOM     30  C   UNL     1      29.725 -22.116 -16.629  0.00  0.00    +0.134 C 
ATOM     31  C   UNL     1      28.793 -24.025 -15.012  0.00  0.00    +0.121 C 
ATOM     32  C   UNL     1      27.939 -23.145 -15.639  0.00  0.00    +0.120 C 
ATOM     33  H   UNL     1      32.601 -23.341 -15.663  0.00  0.00    +0.172 HD
ENDBRANCH  23  26
ENDBRANCH  21  24
ENDBRANCH   1  20
TORSDOF 6
ENDMDL
MODEL 5
REMARK VINA RESULT:     -11.0      5.277      7.801
REMARK  Name = 71481097
REMARK  6 active torsions:
REMARK  status: ('A' for Active; 'I' for Inactive)
REMARK    1  A    between atoms: N_1  and  C_20
REMARK    2  A    between atoms: C_4  and  C_6
REMARK    3  A    between atoms: C_7  and  C_15
REMARK    4  A    between atoms: C_8  and  C_19
REMARK    5  A    between atoms: C_21  and  C_24
REMARK    6  A    between atoms: N_23  and  N_26
REMARK                            x       y       z     vdW  Elec       q    Type
REMARK                         _______ _______ _______ _____ _____    ______ ____
ROOT
ATOM      1  N   UNL     1      35.443 -21.156 -18.261  0.00  0.00    -0.176 N 
ATOM      2  N   UNL     1      35.567 -22.106 -17.322  0.00  0.00    -0.122 NA
ATOM      3  N   UNL     1      37.122 -20.666 -16.787  0.00  0.00    -0.194 NA
ATOM      4  C   UNL     1      36.568 -21.808 -16.449  0.00  0.00    +0.050 C 
ATOM      5  C   UNL     1      36.405 -20.308 -17.893  0.00  0.00    +0.252 C 
ENDROOT
BRANCH   4   6
ATOM      6  C   UNL     1      36.954 -22.620 -15.330  0.00  0.00    +0.063 C 
ATOM      7  C   UNL     1      36.512 -23.474 -13.114  0.00  0.00    +0.072 C 
ATOM      8  C   UNL     1      38.519 -24.136 -14.286  0.00  0.00    +0.072 C 
ATOM      9  C   UNL     1      38.144 -23.346 -15.373  0.00  0.00    +0.014 C 
ATOM     10  C   UNL     1      36.138 -22.685 -14.201  0.00  0.00    +0.014 C 
ATOM     11  C   UNL     1      37.703 -24.200 -13.156  0.00  0.00    +0.008 C 
BRANCH   7  15
ATOM     12  F   UNL     1      35.595 -24.786 -11.335  0.00  0.00    -0.166 F 
ATOM     13  F   UNL     1      36.027 -22.705 -10.902  0.00  0.00    -0.166 F 
ATOM     14  F   UNL     1      34.342 -23.219 -12.177  0.00  0.00    -0.166 F 
ATOM     15  C   UNL     1      35.640 -23.546 -11.906  0.00  0.00    +0.419 C 
ENDBRANCH   7  15
BRANCH   8  19
ATOM     16  F   UNL     1      40.894 -24.125 -14.179  0.00  0.00    -0.166 F 
ATOM     17  F   UNL     1      39.885 -25.867 -13.357  0.00  0.00    -0.166 F 
ATOM     18  F   UNL     1      39.980 -25.585 -15.506  0.00  0.00    -0.166 F 
ATOM     19  C   UNL     1      39.791 -24.914 -14.332  0.00  0.00    +0.419 C 
ENDBRANCH   8  19
ENDBRANCH   4   6
BRANCH   1  20
ATOM     20  C   UNL     1      34.572 -21.063 -19.320  0.00  0.00    +0.092 C 
ATOM     21  C   UNL     1      33.430 -21.758 -19.429  0.00  0.00    +0.077 C 
BRANCH  21  24
ATOM     22  O   UNL     1      33.193 -23.923 -18.450  0.00  0.00    -0.269 OA
ATOM     23  N   UNL     1      32.481 -22.050 -17.275  0.00  0.00    -0.231 N 
ATOM     24  C   UNL     1      33.033 -22.710 -18.354  0.00  0.00    +0.263 C 
ATOM     25  H   UNL     1      32.386 -21.071 -17.274  0.00  0.00    +0.173 HD
BRANCH  23  26
ATOM     26  N   UNL     1      32.070 -22.796 -16.206  0.00  0.00    -0.246 N 
ATOM     27  N   UNL     1      30.283 -23.896 -15.091  0.00  0.00    -0.225 NA
ATOM     28  N   UNL     1      28.485 -22.237 -16.462  0.00  0.00    -0.238 NA
ATOM     29  C   UNL     1      30.701 -22.959 -15.965  0.00  0.00    +0.164 C 
ATOM     30  C   UNL     1      29.817 -22.144 -16.638  0.00  0.00    +0.134 C 
ATOM     31  C   UNL     1      28.950 -23.989 -14.916  0.00  0.00    +0.121 C 
ATOM     32  C   UNL     1      28.067 -23.175 -15.589  0.00  0.00    +0.120 C 
ATOM     33  H   UNL     1      32.732 -23.215 -15.610  0.00  0.00    +0.172 HD
ENDBRANCH  23  26
ENDBRANCH  21  24
ENDBRANCH   1  20
TORSDOF 6
ENDMDL
MODEL 6
REMARK VINA RESULT:     -10.7      5.519      9.365
REMARK  Name = 71481097
REMARK  6 active torsions:
REMARK  status: ('A' for Active; 'I' for Inactive)
REMARK    1  A    between atoms: N_1  and  C_20
REMARK    2  A    between atoms: C_4  and  C_6
REMARK    3  A    between atoms: C_7  and  C_15
REMARK    4  A    between atoms: C_8  and  C_19
REMARK    5  A    between atoms: C_21  and  C_24
REMARK    6  A    between atoms: N_23  and  N_26
REMARK                            x       y       z     vdW  Elec       q    Type
REMARK                         _______ _______ _______ _____ _____    ______ ____
ROOT
ATOM      1  N   UNL     1      30.838 -23.670 -15.687  0.00  0.00    -0.176 N 
ATOM      2  N   UNL     1      32.123 -23.393 -15.954  0.00  0.00    -0.122 NA
ATOM      3  N   UNL     1      31.033 -22.072 -17.312  0.00  0.00    -0.194 NA
ATOM      4  C   UNL     1      32.231 -22.442 -16.921  0.00  0.00    +0.050 C 
ATOM      5  C   UNL     1      30.219 -22.845 -16.535  0.00  0.00    +0.252 C 
ENDROOT
BRANCH   4   6
ATOM      6  C   UNL     1      33.469 -21.925 -17.432  0.00  0.00    +0.063 C 
ATOM      7  C   UNL     1      34.721 -20.866 -19.207  0.00  0.00    +0.072 C 
ATOM      8  C   UNL     1      35.825 -21.473 -17.145  0.00  0.00    +0.072 C 
ATOM      9  C   UNL     1      34.622 -21.976 -16.649  0.00  0.00    +0.014 C 
ATOM     10  C   UNL     1      33.519 -21.369 -18.711  0.00  0.00    +0.014 C 
ATOM     11  C   UNL     1      35.875 -20.918 -18.424  0.00  0.00    +0.008 C 
BRANCH   7  15
ATOM     12  F   UNL     1      35.228 -21.134 -21.529  0.00  0.00    -0.166 F 
ATOM     13  F   UNL     1      33.561 -19.840 -21.029  0.00  0.00    -0.166 F 
ATOM     14  F   UNL     1      35.598 -19.184 -20.640  0.00  0.00    -0.166 F 
ATOM     15  C   UNL     1      34.774 -20.271 -20.573  0.00  0.00    +0.419 C 
ENDBRANCH   7  15
BRANCH   8  19
ATOM     16  F   UNL     1      36.788 -21.485 -14.971  0.00  0.00    -0.166 F 
ATOM     17  F   UNL     1      37.799 -22.659 -16.496  0.00  0.00    -0.166 F 
ATOM     18  F   UNL     1      37.922 -20.495 -16.540  0.00  0.00    -0.166 F 
ATOM     19  C   UNL     1      37.058 -21.527 -16.308  0.00  0.00    +0.419 C 
ENDBRANCH   8  19
ENDBRANCH   4   6
BRANCH   1  20
ATOM     20  C   UNL     1      30.287 -24.556 -14.793  0.00  0.00    +0.092 C 
ATOM     21  C   UNL     1      30.733 -24.750 -13.542  0.00  0.00    +0.077 C 
BRANCH  21  24
ATOM     22  O   UNL     1      31.788 -22.895 -12.472  0.00  0.00    -0.269 OA
ATOM     23  N   UNL     1      33.089 -24.631 -13.300  0.00  0.00    -0.231 N 
ATOM     24  C   UNL     1      31.903 -23.976 -13.041  0.00  0.00    +0.263 C 
ATOM     25  H   UNL     1      33.098 -25.499 -13.763  0.00  0.00    +0.173 HD
BRANCH  23  26
ATOM     26  N   UNL     1      34.252 -24.041 -12.894  0.00  0.00    -0.246 N 
ATOM     27  N   UNL     1      36.587 -23.754 -13.235  0.00  0.00    -0.225 NA
ATOM     28  N   UNL     1      36.621 -26.188 -14.627  0.00  0.00    -0.238 NA
ATOM     29  C   UNL     1      35.472 -24.491 -13.414  0.00  0.00    +0.164 C 
ATOM     30  C   UNL     1      35.489 -25.686 -14.097  0.00  0.00    +0.134 C 
ATOM     31  C   UNL     1      37.719 -24.257 -13.765  0.00  0.00    +0.121 C 
ATOM     32  C   UNL     1      37.736 -25.452 -14.449  0.00  0.00    +0.120 C 
ATOM     33  H   UNL     1      34.233 -23.303 -12.241  0.00  0.00    +0.172 HD
ENDBRANCH  23  26
ENDBRANCH  21  24
ENDBRANCH   1  20
TORSDOF 6
ENDMDL
MODEL 7
REMARK VINA RESULT:     -10.6      5.536      9.178
REMARK  Name = 71481097
REMARK  6 active torsions:
REMARK  status: ('A' for Active; 'I' for Inactive)
REMARK    1  A    between atoms: N_1  and  C_20
REMARK    2  A    between atoms: C_4  and  C_6
REMARK    3  A    between atoms: C_7  and  C_15
REMARK    4  A    between atoms: C_8  and  C_19
REMARK    5  A    between atoms: C_21  and  C_24
REMARK    6  A    between atoms: N_23  and  N_26
REMARK                            x       y       z     vdW  Elec       q    Type
REMARK                         _______ _______ _______ _____ _____    ______ ____
ROOT
ATOM      1  N   UNL     1      30.887 -23.671 -15.657  0.00  0.00    -0.176 N 
ATOM      2  N   UNL     1      32.173 -23.389 -15.915  0.00  0.00    -0.122 NA
ATOM      3  N   UNL     1      31.089 -22.103 -17.311  0.00  0.00    -0.194 NA
ATOM      4  C   UNL     1      32.285 -22.456 -16.899  0.00  0.00    +0.050 C 
ATOM      5  C   UNL     1      30.273 -22.867 -16.527  0.00  0.00    +0.252 C 
ENDROOT
BRANCH   4   6
ATOM      6  C   UNL     1      33.525 -21.939 -17.405  0.00  0.00    +0.063 C 
ATOM      7  C   UNL     1      35.879 -21.483 -17.108  0.00  0.00    +0.072 C 
ATOM      8  C   UNL     1      34.786 -20.890 -19.179  0.00  0.00    +0.072 C 
ATOM      9  C   UNL     1      33.581 -21.391 -18.687  0.00  0.00    +0.014 C 
ATOM     10  C   UNL     1      34.675 -21.985 -16.616  0.00  0.00    +0.014 C 
ATOM     11  C   UNL     1      35.935 -20.935 -18.390  0.00  0.00    +0.008 C 
BRANCH   7  15
ATOM     12  F   UNL     1      37.864 -22.653 -16.465  0.00  0.00    -0.166 F 
ATOM     13  F   UNL     1      37.961 -20.486 -16.478  0.00  0.00    -0.166 F 
ATOM     14  F   UNL     1      36.830 -21.512 -14.929  0.00  0.00    -0.166 F 
ATOM     15  C   UNL     1      37.109 -21.533 -16.265  0.00  0.00    +0.419 C 
ENDBRANCH   7  15
BRANCH   8  19
ATOM     16  F   UNL     1      35.233 -21.214 -21.492  0.00  0.00    -0.166 F 
ATOM     17  F   UNL     1      33.650 -19.811 -20.988  0.00  0.00    -0.166 F 
ATOM     18  F   UNL     1      35.724 -19.265 -20.662  0.00  0.00    -0.166 F 
ATOM     19  C   UNL     1      34.846 -20.305 -20.550  0.00  0.00    +0.419 C 
ENDBRANCH   8  19
ENDBRANCH   4   6
BRANCH   1  20
ATOM     20  C   UNL     1      30.333 -24.544 -14.752  0.00  0.00    +0.092 C 
ATOM     21  C   UNL     1      30.787 -24.737 -13.505  0.00  0.00    +0.077 C 
BRANCH  21  24
ATOM     22  O   UNL     1      31.876 -22.894 -12.447  0.00  0.00    -0.269 OA
ATOM     23  N   UNL     1      33.148 -24.642 -13.295  0.00  0.00    -0.231 N 
ATOM     24  C   UNL     1      31.972 -23.976 -13.019  0.00  0.00    +0.263 C 
ATOM     25  H   UNL     1      33.142 -25.509 -13.760  0.00  0.00    +0.173 HD
BRANCH  23  26
ATOM     26  N   UNL     1      34.323 -24.064 -12.906  0.00  0.00    -0.246 N 
ATOM     27  N   UNL     1      36.659 -23.817 -13.266  0.00  0.00    -0.225 NA
ATOM     28  N   UNL     1      36.647 -26.268 -14.629  0.00  0.00    -0.238 NA
ATOM     29  C   UNL     1      35.532 -24.539 -13.428  0.00  0.00    +0.164 C 
ATOM     30  C   UNL     1      35.526 -25.743 -14.097  0.00  0.00    +0.134 C 
ATOM     31  C   UNL     1      37.780 -24.343 -13.798  0.00  0.00    +0.121 C 
ATOM     32  C   UNL     1      37.774 -25.547 -14.468  0.00  0.00    +0.120 C 
ATOM     33  H   UNL     1      34.319 -23.319 -12.261  0.00  0.00    +0.172 HD
ENDBRANCH  23  26
ENDBRANCH  21  24
ENDBRANCH   1  20
TORSDOF 6
ENDMDL
MODEL 8
REMARK VINA RESULT:     -10.5      2.596      3.588
REMARK  Name = 71481097
REMARK  6 active torsions:
REMARK  status: ('A' for Active; 'I' for Inactive)
REMARK    1  A    between atoms: N_1  and  C_20
REMARK    2  A    between atoms: C_4  and  C_6
REMARK    3  A    between atoms: C_7  and  C_15
REMARK    4  A    between atoms: C_8  and  C_19
REMARK    5  A    between atoms: C_21  and  C_24
REMARK    6  A    between atoms: N_23  and  N_26
REMARK                            x       y       z     vdW  Elec       q    Type
REMARK                         _______ _______ _______ _____ _____    ______ ____
ROOT
ATOM      1  N   UNL     1      34.659 -21.226 -19.080  0.00  0.00    -0.176 N 
ATOM      2  N   UNL     1      34.182 -21.533 -17.864  0.00  0.00    -0.122 NA
ATOM      3  N   UNL     1      32.547 -22.097 -19.200  0.00  0.00    -0.194 NA
ATOM      4  C   UNL     1      32.926 -22.050 -17.944  0.00  0.00    +0.050 C 
ATOM      5  C   UNL     1      33.632 -21.587 -19.853  0.00  0.00    +0.252 C 
ENDROOT
BRANCH   4   6
ATOM      6  C   UNL     1      32.140 -22.478 -16.821  0.00  0.00    +0.063 C 
ATOM      7  C   UNL     1      32.000 -23.452 -14.615  0.00  0.00    +0.072 C 
ATOM      8  C   UNL     1      29.989 -22.750 -15.755  0.00  0.00    +0.072 C 
ATOM      9  C   UNL     1      30.753 -22.335 -16.846  0.00  0.00    +0.014 C 
ATOM     10  C   UNL     1      32.763 -23.036 -15.705  0.00  0.00    +0.014 C 
ATOM     11  C   UNL     1      30.613 -23.309 -14.639  0.00  0.00    +0.008 C 
BRANCH   7  15
ATOM     12  F   UNL     1      33.818 -24.721 -13.714  0.00  0.00    -0.166 F 
ATOM     13  F   UNL     1      33.024 -23.126 -12.477  0.00  0.00    -0.166 F 
ATOM     14  F   UNL     1      31.872 -24.947 -12.770  0.00  0.00    -0.166 F 
ATOM     15  C   UNL     1      32.667 -24.048 -13.420  0.00  0.00    +0.419 C 
ENDBRANCH   7  15
BRANCH   8  19
ATOM     16  F   UNL     1      27.855 -23.719 -15.358  0.00  0.00    -0.166 F 
ATOM     17  F   UNL     1      28.047 -21.586 -14.983  0.00  0.00    -0.166 F 
ATOM     18  F   UNL     1      28.005 -22.326 -17.021  0.00  0.00    -0.166 F 
ATOM     19  C   UNL     1      28.506 -22.597 -15.780  0.00  0.00    +0.419 C 
ENDBRANCH   8  19
ENDBRANCH   4   6
BRANCH   1  20
ATOM     20  C   UNL     1      35.867 -20.688 -19.451  0.00  0.00    +0.092 C 
ATOM     21  C   UNL     1      36.021 -19.733 -20.381  0.00  0.00    +0.077 C 
BRANCH  21  24
ATOM     22  O   UNL     1      33.811 -18.836 -20.500  0.00  0.00    -0.269 OA
ATOM     23  N   UNL     1      35.034 -19.130 -22.452  0.00  0.00    -0.231 N 
ATOM     24  C   UNL     1      34.830 -19.185 -21.089  0.00  0.00    +0.263 C 
ATOM     25  H   UNL     1      35.883 -19.432 -22.849  0.00  0.00    +0.173 HD
BRANCH  23  26
ATOM     26  N   UNL     1      34.026 -18.646 -23.236  0.00  0.00    -0.246 N 
ATOM     27  N   UNL     1      33.165 -16.837 -24.515  0.00  0.00    -0.225 NA
ATOM     28  N   UNL     1      34.808 -15.099 -23.051  0.00  0.00    -0.238 NA
ATOM     29  C   UNL     1      33.984 -17.280 -23.539  0.00  0.00    +0.164 C 
ATOM     30  C   UNL     1      34.790 -16.426 -22.820  0.00  0.00    +0.134 C 
ATOM     31  C   UNL     1      33.183 -15.510 -24.745  0.00  0.00    +0.121 C 
ATOM     32  C   UNL     1      33.990 -14.656 -24.026  0.00  0.00    +0.120 C 
ATOM     33  H   UNL     1      33.333 -19.254 -23.584  0.00  0.00    +0.172 HD
ENDBRANCH  23  26
ENDBRANCH  21  24
ENDBRANCH   1  20
TORSDOF 6
ENDMDL
MODEL 9
REMARK VINA RESULT:     -10.5      4.923      7.724
REMARK  Name = 71481097
REMARK  6 active torsions:
REMARK  status: ('A' for Active; 'I' for Inactive)
REMARK    1  A    between atoms: N_1  and  C_20
REMARK    2  A    between atoms: C_4  and  C_6
REMARK    3  A    between atoms: C_7  and  C_15
REMARK    4  A    between atoms: C_8  and  C_19
REMARK    5  A    between atoms: C_21  and  C_24
REMARK    6  A    between atoms: N_23  and  N_26
REMARK                            x       y       z     vdW  Elec       q    Type
REMARK                         _______ _______ _______ _____ _____    ______ ____
ROOT
ATOM      1  N   UNL     1      34.073 -21.622 -19.069  0.00  0.00    -0.176 N 
ATOM      2  N   UNL     1      33.567 -22.213 -17.976  0.00  0.00    -0.122 NA
ATOM      3  N   UNL     1      31.883 -21.051 -18.743  0.00  0.00    -0.194 NA
ATOM      4  C   UNL     1      32.264 -21.869 -17.789  0.00  0.00    +0.050 C 
ATOM      5  C   UNL     1      33.015 -20.931 -19.496  0.00  0.00    +0.252 C 
ENDROOT
BRANCH   4   6
ATOM      6  C   UNL     1      31.437 -22.333 -16.712  0.00  0.00    +0.063 C 
ATOM      7  C   UNL     1      31.216 -23.368 -14.540  0.00  0.00    +0.072 C 
ATOM      8  C   UNL     1      29.247 -22.650 -15.742  0.00  0.00    +0.072 C 
ATOM      9  C   UNL     1      30.050 -22.200 -16.789  0.00  0.00    +0.014 C 
ATOM     10  C   UNL     1      32.019 -22.917 -15.586  0.00  0.00    +0.014 C 
ATOM     11  C   UNL     1      29.829 -23.235 -14.617  0.00  0.00    +0.008 C 
BRANCH   7  15
ATOM     12  F   UNL     1      31.052 -24.937 -12.740  0.00  0.00    -0.166 F 
ATOM     13  F   UNL     1      33.020 -24.624 -13.597  0.00  0.00    -0.166 F 
ATOM     14  F   UNL     1      32.118 -23.080 -12.359  0.00  0.00    -0.166 F 
ATOM     15  C   UNL     1      31.838 -23.992 -13.336  0.00  0.00    +0.419 C 
ENDBRANCH   7  15
BRANCH   8  19
ATOM     16  F   UNL     1      27.112 -23.692 -15.649  0.00  0.00    -0.166 F 
ATOM     17  F   UNL     1      27.244 -21.661 -14.885  0.00  0.00    -0.166 F 
ATOM     18  F   UNL     1      27.327 -22.020 -17.022  0.00  0.00    -0.166 F 
ATOM     19  C   UNL     1      27.765 -22.507 -15.823  0.00  0.00    +0.419 C 
ENDBRANCH   8  19
ENDBRANCH   4   6
BRANCH   1  20
ATOM     20  C   UNL     1      35.333 -21.693 -19.615  0.00  0.00    +0.092 C 
ATOM     21  C   UNL     1      36.468 -21.453 -18.942  0.00  0.00    +0.077 C 
BRANCH  21  24
ATOM     22  O   UNL     1      36.569 -19.929 -17.107  0.00  0.00    -0.269 OA
ATOM     23  N   UNL     1      36.170 -22.181 -16.704  0.00  0.00    -0.231 N 
ATOM     24  C   UNL     1      36.414 -21.080 -17.500  0.00  0.00    +0.263 C 
ATOM     25  H   UNL     1      36.057 -23.075 -17.097  0.00  0.00    +0.173 HD
BRANCH  23  26
ATOM     26  N   UNL     1      36.091 -21.993 -15.353  0.00  0.00    -0.246 N 
ATOM     27  N   UNL     1      36.877 -22.589 -13.191  0.00  0.00    -0.225 NA
ATOM     28  N   UNL     1      37.768 -25.026 -14.252  0.00  0.00    -0.238 NA
ATOM     29  C   UNL     1      36.718 -22.902 -14.493  0.00  0.00    +0.164 C 
ATOM     30  C   UNL     1      37.156 -24.100 -15.014  0.00  0.00    +0.134 C 
ATOM     31  C   UNL     1      37.489 -23.517 -12.430  0.00  0.00    +0.121 C 
ATOM     32  C   UNL     1      37.927 -24.714 -12.951  0.00  0.00    +0.120 C 
ATOM     33  H   UNL     1      35.595 -21.224 -14.988  0.00  0.00    +0.172 HD
ENDBRANCH  23  26
ENDBRANCH  21  24
ENDBRANCH   1  20
TORSDOF 6
ENDMDL
