MODEL 1
REMARK VINA RESULT:     -11.5      0.000      0.000
REMARK  Name = 22489160
REMARK  9 active torsions:
REMARK  status: ('A' for Active; 'I' for Inactive)
REMARK    1  A    between atoms: C_1  and  C_22
REMARK    2  A    between atoms: C_2  and  C_8
REMARK    3  A    between atoms: C_7  and  C_13
REMARK    4  A    between atoms: C_13  and  C_15
REMARK    5  A    between atoms: C_15  and  N_16
REMARK    6  A    between atoms: N_16  and  S_18
REMARK    7  A    between atoms: C_22  and  C_24
REMARK    8  A    between atoms: C_24  and  N_25
REMARK    9  A    between atoms: N_25  and  S_27
REMARK                            x       y       z     vdW  Elec       q    Type
REMARK                         _______ _______ _______ _____ _____    ______ ____
ROOT
ATOM      1  C   UNL     1      34.688 -19.276 -21.398  0.00  0.00    -0.021 C 
ATOM      2  C   UNL     1      34.548 -20.871 -19.115  0.00  0.00    -0.000 C 
ATOM      3  C   UNL     1      33.453 -19.748 -20.952  0.00  0.00    -0.004 C 
ATOM      4  C   UNL     1      35.851 -19.600 -20.703  0.00  0.00    -0.004 C 
ATOM      5  C   UNL     1      33.383 -20.547 -19.810  0.00  0.00    -0.000 C 
ATOM      6  C   UNL     1      35.782 -20.399 -19.560  0.00  0.00    -0.000 C 
ENDROOT
BRANCH   2   8
ATOM      7  C   UNL     1      34.338 -23.300 -15.649  0.00  0.00    -0.021 C 
ATOM      8  C   UNL     1      34.476 -21.700 -17.930  0.00  0.00    -0.000 C 
ATOM      9  C   UNL     1      35.495 -22.568 -15.919  0.00  0.00    -0.004 C 
ATOM     10  C   UNL     1      33.251 -23.232 -16.521  0.00  0.00    -0.004 C 
ATOM     11  C   UNL     1      35.564 -21.768 -17.060  0.00  0.00    -0.000 C 
ATOM     12  C   UNL     1      33.320 -22.431 -17.661  0.00  0.00    -0.000 C 
BRANCH   7  13
ATOM     13  C   UNL     1      34.264 -24.156 -14.431  0.00  0.00    +0.040 C 
ATOM     14  C   UNL     1      35.375 -25.228 -14.409  0.00  0.00    +0.006 C 
BRANCH  13  15
ATOM     15  C   UNL     1      34.324 -23.361 -13.104  0.00  0.00    +0.095 C 
BRANCH  15  16
ATOM     16  N   UNL     1      34.286 -24.299 -11.957  0.00  0.00    -0.183 NA
ATOM     17  H   UNL     1      33.432 -24.101 -11.436  0.00  0.00    +0.148 HD
BRANCH  16  18
ATOM     18  S   UNL     1      35.569 -24.281 -10.836  0.00  0.00    +0.043 S 
ATOM     19  O   UNL     1      36.469 -25.388 -11.096  0.00  0.00    -0.157 OA
ATOM     20  O   UNL     1      35.013 -24.073  -9.513  0.00  0.00    -0.157 OA
ATOM     21  C   UNL     1      36.398 -22.780 -11.307  0.00  0.00    +0.196 C 
ENDBRANCH  16  18
ENDBRANCH  15  16
ENDBRANCH  13  15
ENDBRANCH   7  13
ENDBRANCH   2   8
BRANCH   1  22
ATOM     22  C   UNL     1      34.764 -18.407 -22.643  0.00  0.00    +0.040 C 
ATOM     23  C   UNL     1      33.855 -18.953 -23.748  0.00  0.00    +0.006 C 
BRANCH  22  24
ATOM     24  C   UNL     1      34.423 -16.935 -22.360  0.00  0.00    +0.095 C 
BRANCH  24  25
ATOM     25  N   UNL     1      34.872 -16.080 -23.486  0.00  0.00    -0.183 NA
ATOM     26  H   UNL     1      35.447 -15.338 -23.086  0.00  0.00    +0.148 HD
BRANCH  25  27
ATOM     27  S   UNL     1      33.700 -15.331 -24.469  0.00  0.00    +0.043 S 
ATOM     28  O   UNL     1      32.684 -16.292 -24.849  0.00  0.00    -0.157 OA
ATOM     29  O   UNL     1      34.387 -14.542 -25.473  0.00  0.00    -0.157 OA
ATOM     30  C   UNL     1      32.974 -14.197 -23.308  0.00  0.00    +0.196 C 
ENDBRANCH  25  27
ENDBRANCH  24  25
ENDBRANCH  22  24
ENDBRANCH   1  22
TORSDOF 9
ENDMDL
MODEL 2
REMARK VINA RESULT:     -11.5      0.105     11.437
REMARK  Name = 22489160
REMARK  9 active torsions:
REMARK  status: ('A' for Active; 'I' for Inactive)
REMARK    1  A    between atoms: C_1  and  C_22
REMARK    2  A    between atoms: C_2  and  C_8
REMARK    3  A    between atoms: C_7  and  C_13
REMARK    4  A    between atoms: C_13  and  C_15
REMARK    5  A    between atoms: C_15  and  N_16
REMARK    6  A    between atoms: N_16  and  S_18
REMARK    7  A    between atoms: C_22  and  C_24
REMARK    8  A    between atoms: C_24  and  N_25
REMARK    9  A    between atoms: N_25  and  S_27
REMARK                            x       y       z     vdW  Elec       q    Type
REMARK                         _______ _______ _______ _____ _____    ______ ____
ROOT
ATOM      1  C   UNL     1      34.407 -23.297 -15.663  0.00  0.00    -0.021 C 
ATOM      2  C   UNL     1      34.574 -21.678 -17.928  0.00  0.00    -0.000 C 
ATOM      3  C   UNL     1      35.582 -22.595 -15.932  0.00  0.00    -0.004 C 
ATOM      4  C   UNL     1      33.317 -23.190 -16.525  0.00  0.00    -0.004 C 
ATOM      5  C   UNL     1      35.666 -21.785 -17.066  0.00  0.00    -0.000 C 
ATOM      6  C   UNL     1      33.400 -22.380 -17.658  0.00  0.00    -0.000 C 
ENDROOT
BRANCH   2   8
ATOM      7  C   UNL     1      34.828 -19.218 -21.368  0.00  0.00    -0.021 C 
ATOM      8  C   UNL     1      34.661 -20.838 -19.103  0.00  0.00    -0.000 C 
ATOM      9  C   UNL     1      35.981 -19.529 -20.647  0.00  0.00    -0.004 C 
ATOM     10  C   UNL     1      33.593 -19.717 -20.957  0.00  0.00    -0.004 C 
ATOM     11  C   UNL     1      35.898 -20.340 -19.514  0.00  0.00    -0.000 C 
ATOM     12  C   UNL     1      33.509 -20.527 -19.824  0.00  0.00    -0.000 C 
BRANCH   7  13
ATOM     13  C   UNL     1      34.917 -18.352 -22.578  0.00  0.00    +0.040 C 
ATOM     14  C   UNL     1      34.098 -18.920 -23.757  0.00  0.00    +0.006 C 
BRANCH  13  15
ATOM     15  C   UNL     1      34.475 -16.889 -22.334  0.00  0.00    +0.095 C 
BRANCH  15  16
ATOM     16  N   UNL     1      34.908 -16.039 -23.469  0.00  0.00    -0.183 NA
ATOM     17  H   UNL     1      35.486 -15.294 -23.082  0.00  0.00    +0.148 HD
BRANCH  16  18
ATOM     18  S   UNL     1      33.722 -15.296 -24.440  0.00  0.00    +0.043 S 
ATOM     19  O   UNL     1      32.684 -16.252 -24.773  0.00  0.00    -0.157 OA
ATOM     20  O   UNL     1      34.395 -14.541 -25.480  0.00  0.00    -0.157 OA
ATOM     21  C   UNL     1      33.039 -14.125 -23.290  0.00  0.00    +0.196 C 
ENDBRANCH  16  18
ENDBRANCH  15  16
ENDBRANCH  13  15
ENDBRANCH   7  13
ENDBRANCH   2   8
BRANCH   1  22
ATOM     22  C   UNL     1      34.316 -24.180 -14.429  0.00  0.00    +0.040 C 
ATOM     23  C   UNL     1      35.430 -25.233 -14.426  0.00  0.00    +0.006 C 
BRANCH  22  24
ATOM     24  C   UNL     1      34.348 -23.376 -13.120  0.00  0.00    +0.095 C 
BRANCH  24  25
ATOM     25  N   UNL     1      34.285 -24.291 -11.955  0.00  0.00    -0.183 NA
ATOM     26  H   UNL     1      33.447 -24.044 -11.427  0.00  0.00    +0.148 HD
BRANCH  25  27
ATOM     27  S   UNL     1      35.583 -24.312 -10.853  0.00  0.00    +0.043 S 
ATOM     28  O   UNL     1      36.452 -25.438 -11.134  0.00  0.00    -0.157 OA
ATOM     29  O   UNL     1      35.052 -24.100  -9.521  0.00  0.00    -0.157 OA
ATOM     30  C   UNL     1      36.440 -22.828 -11.326  0.00  0.00    +0.196 C 
ENDBRANCH  25  27
ENDBRANCH  24  25
ENDBRANCH  22  24
ENDBRANCH   1  22
TORSDOF 9
ENDMDL
MODEL 3
REMARK VINA RESULT:     -11.4      5.544     13.193
REMARK  Name = 22489160
REMARK  9 active torsions:
REMARK  status: ('A' for Active; 'I' for Inactive)
REMARK    1  A    between atoms: C_1  and  C_22
REMARK    2  A    between atoms: C_2  and  C_8
REMARK    3  A    between atoms: C_7  and  C_13
REMARK    4  A    between atoms: C_13  and  C_15
REMARK    5  A    between atoms: C_15  and  N_16
REMARK    6  A    between atoms: N_16  and  S_18
REMARK    7  A    between atoms: C_22  and  C_24
REMARK    8  A    between atoms: C_24  and  N_25
REMARK    9  A    between atoms: N_25  and  S_27
REMARK                            x       y       z     vdW  Elec       q    Type
REMARK                         _______ _______ _______ _____ _____    ______ ____
ROOT
ATOM      1  C   UNL     1      34.746 -16.947 -22.184  0.00  0.00    -0.021 C 
ATOM      2  C   UNL     1      33.590 -14.410 -22.225  0.00  0.00    -0.000 C 
ATOM      3  C   UNL     1      34.524 -16.263 -20.989  0.00  0.00    -0.004 C 
ATOM      4  C   UNL     1      34.390 -16.363 -23.399  0.00  0.00    -0.004 C 
ATOM      5  C   UNL     1      33.946 -14.994 -21.009  0.00  0.00    -0.000 C 
ATOM      6  C   UNL     1      33.812 -15.094 -23.420  0.00  0.00    -0.000 C 
ENDROOT
BRANCH   2   8
ATOM      7  C   UNL     1      31.838 -10.552 -22.286  0.00  0.00    -0.021 C 
ATOM      8  C   UNL     1      32.991 -13.093 -22.246  0.00  0.00    -0.000 C 
ATOM      9  C   UNL     1      32.741 -10.924 -23.283  0.00  0.00    -0.004 C 
ATOM     10  C   UNL     1      31.513 -11.451 -21.269  0.00  0.00    -0.004 C 
ATOM     11  C   UNL     1      33.317 -12.195 -23.263  0.00  0.00    -0.000 C 
ATOM     12  C   UNL     1      32.089 -12.721 -21.250  0.00  0.00    -0.000 C 
BRANCH   7  13
ATOM     13  C   UNL     1      31.222  -9.195 -22.306  0.00  0.00    +0.040 C 
ATOM     14  C   UNL     1      31.161  -8.567 -20.897  0.00  0.00    +0.006 C 
BRANCH  13  15
ATOM     15  C   UNL     1      31.932  -8.201 -23.256  0.00  0.00    +0.095 C 
BRANCH  15  16
ATOM     16  N   UNL     1      32.741  -7.243 -22.465  0.00  0.00    -0.183 NA
ATOM     17  H   UNL     1      32.471  -7.358 -21.488  0.00  0.00    +0.148 HD
BRANCH  16  18
ATOM     18  S   UNL     1      32.630  -5.581 -22.820  0.00  0.00    +0.043 S 
ATOM     19  O   UNL     1      33.812  -5.148 -23.540  0.00  0.00    -0.157 OA
ATOM     20  O   UNL     1      32.197  -4.888 -21.622  0.00  0.00    -0.157 OA
ATOM     21  C   UNL     1      31.265  -5.577 -23.959  0.00  0.00    +0.196 C 
ENDBRANCH  16  18
ENDBRANCH  15  16
ENDBRANCH  13  15
ENDBRANCH   7  13
ENDBRANCH   2   8
BRANCH   1  22
ATOM     22  C   UNL     1      35.377 -18.330 -22.163  0.00  0.00    +0.040 C 
ATOM     23  C   UNL     1      36.805 -18.271 -21.610  0.00  0.00    +0.006 C 
BRANCH  22  24
ATOM     24  C   UNL     1      34.546 -19.349 -21.367  0.00  0.00    +0.095 C 
BRANCH  24  25
ATOM     25  N   UNL     1      35.296 -19.797 -20.168  0.00  0.00    -0.183 NA
ATOM     26  H   UNL     1      36.255 -19.975 -20.466  0.00  0.00    +0.148 HD
BRANCH  25  27
ATOM     27  S   UNL     1      34.764 -21.184 -19.335  0.00  0.00    +0.043 S 
ATOM     28  O   UNL     1      35.278 -21.174 -17.979  0.00  0.00    -0.157 OA
ATOM     29  O   UNL     1      34.962 -22.334 -20.194  0.00  0.00    -0.157 OA
ATOM     30  C   UNL     1      33.015 -20.871 -19.259  0.00  0.00    +0.196 C 
ENDBRANCH  25  27
ENDBRANCH  24  25
ENDBRANCH  22  24
ENDBRANCH   1  22
TORSDOF 9
ENDMDL
MODEL 4
REMARK VINA RESULT:     -11.4      1.879      2.125
REMARK  Name = 22489160
REMARK  9 active torsions:
REMARK  status: ('A' for Active; 'I' for Inactive)
REMARK    1  A    between atoms: C_1  and  C_22
REMARK    2  A    between atoms: C_2  and  C_8
REMARK    3  A    between atoms: C_7  and  C_13
REMARK    4  A    between atoms: C_13  and  C_15
REMARK    5  A    between atoms: C_15  and  N_16
REMARK    6  A    between atoms: N_16  and  S_18
REMARK    7  A    between atoms: C_22  and  C_24
REMARK    8  A    between atoms: C_24  and  N_25
REMARK    9  A    between atoms: N_25  and  S_27
REMARK                            x       y       z     vdW  Elec       q    Type
REMARK                         _______ _______ _______ _____ _____    ______ ____
ROOT
ATOM      1  C   UNL     1      34.873 -18.948 -21.688  0.00  0.00    -0.021 C 
ATOM      2  C   UNL     1      34.990 -20.487 -19.365  0.00  0.00    -0.000 C 
ATOM      3  C   UNL     1      33.724 -19.578 -21.211  0.00  0.00    -0.004 C 
ATOM      4  C   UNL     1      36.080 -19.086 -21.004  0.00  0.00    -0.004 C 
ATOM      5  C   UNL     1      33.783 -20.349 -20.049  0.00  0.00    -0.000 C 
ATOM      6  C   UNL     1      36.139 -19.857 -19.842  0.00  0.00    -0.000 C 
ENDROOT
BRANCH   2   8
ATOM      7  C   UNL     1      35.170 -22.830 -15.840  0.00  0.00    -0.021 C 
ATOM      8  C   UNL     1      35.052 -21.287 -18.160  0.00  0.00    -0.000 C 
ATOM      9  C   UNL     1      36.280 -22.085 -16.239  0.00  0.00    -0.004 C 
ATOM     10  C   UNL     1      34.002 -22.804 -16.601  0.00  0.00    -0.004 C 
ATOM     11  C   UNL     1      36.221 -21.312 -17.399  0.00  0.00    -0.000 C 
ATOM     12  C   UNL     1      33.943 -22.032 -17.762  0.00  0.00    -0.000 C 
BRANCH   7  13
ATOM     13  C   UNL     1      35.234 -23.656 -14.600  0.00  0.00    +0.040 C 
ATOM     14  C   UNL     1      33.970 -23.490 -13.729  0.00  0.00    +0.006 C 
BRANCH  13  15
ATOM     15  C   UNL     1      35.452 -25.165 -14.865  0.00  0.00    +0.095 C 
BRANCH  15  16
ATOM     16  N   UNL     1      36.871 -25.413 -15.213  0.00  0.00    -0.183 NA
ATOM     17  H   UNL     1      36.919 -26.341 -15.631  0.00  0.00    +0.148 HD
BRANCH  16  18
ATOM     18  S   UNL     1      38.044 -25.360 -13.979  0.00  0.00    +0.043 S 
ATOM     19  O   UNL     1      38.453 -23.989 -13.742  0.00  0.00    -0.157 OA
ATOM     20  O   UNL     1      39.027 -26.392 -14.242  0.00  0.00    -0.157 OA
ATOM     21  C   UNL     1      37.078 -25.890 -12.583  0.00  0.00    +0.196 C 
ENDBRANCH  16  18
ENDBRANCH  15  16
ENDBRANCH  13  15
ENDBRANCH   7  13
ENDBRANCH   2   8
BRANCH   1  22
ATOM     22  C   UNL     1      34.810 -18.109 -22.954  0.00  0.00    +0.040 C 
ATOM     23  C   UNL     1      33.786 -18.682 -23.939  0.00  0.00    +0.006 C 
BRANCH  22  24
ATOM     24  C   UNL     1      34.498 -16.631 -22.672  0.00  0.00    +0.095 C 
BRANCH  24  25
ATOM     25  N   UNL     1      34.779 -15.809 -23.874  0.00  0.00    -0.183 NA
ATOM     26  H   UNL     1      35.413 -15.064 -23.584  0.00  0.00    +0.148 HD
BRANCH  25  27
ATOM     27  S   UNL     1      33.479 -15.071 -24.689  0.00  0.00    +0.043 S 
ATOM     28  O   UNL     1      32.466 -16.059 -25.003  0.00  0.00    -0.157 OA
ATOM     29  O   UNL     1      34.021 -14.211 -25.723  0.00  0.00    -0.157 OA
ATOM     30  C   UNL     1      32.840 -14.020 -23.405  0.00  0.00    +0.196 C 
ENDBRANCH  25  27
ENDBRANCH  24  25
ENDBRANCH  22  24
ENDBRANCH   1  22
TORSDOF 9
ENDMDL
MODEL 5
REMARK VINA RESULT:     -11.3      5.607      9.396
REMARK  Name = 22489160
REMARK  9 active torsions:
REMARK  status: ('A' for Active; 'I' for Inactive)
REMARK    1  A    between atoms: C_1  and  C_22
REMARK    2  A    between atoms: C_2  and  C_8
REMARK    3  A    between atoms: C_7  and  C_13
REMARK    4  A    between atoms: C_13  and  C_15
REMARK    5  A    between atoms: C_15  and  N_16
REMARK    6  A    between atoms: N_16  and  S_18
REMARK    7  A    between atoms: C_22  and  C_24
REMARK    8  A    between atoms: C_24  and  N_25
REMARK    9  A    between atoms: N_25  and  S_27
REMARK                            x       y       z     vdW  Elec       q    Type
REMARK                         _______ _______ _______ _____ _____    ______ ____
ROOT
ATOM      1  C   UNL     1      31.811 -10.559 -22.234  0.00  0.00    -0.021 C 
ATOM      2  C   UNL     1      32.982 -13.090 -22.211  0.00  0.00    -0.000 C 
ATOM      3  C   UNL     1      32.688 -10.930 -23.253  0.00  0.00    -0.004 C 
ATOM      4  C   UNL     1      31.518 -11.453 -21.205  0.00  0.00    -0.004 C 
ATOM      5  C   UNL     1      33.275 -12.196 -23.241  0.00  0.00    -0.000 C 
ATOM      6  C   UNL     1      32.105 -12.719 -21.193  0.00  0.00    -0.000 C 
ENDROOT
BRANCH   2   8
ATOM      7  C   UNL     1      34.763 -16.935 -22.173  0.00  0.00    -0.021 C 
ATOM      8  C   UNL     1      33.591 -14.403 -22.198  0.00  0.00    -0.000 C 
ATOM      9  C   UNL     1      34.426 -16.334 -23.386  0.00  0.00    -0.004 C 
ATOM     10  C   UNL     1      34.513 -16.269 -20.973  0.00  0.00    -0.004 C 
ATOM     11  C   UNL     1      33.840 -15.068 -23.399  0.00  0.00    -0.000 C 
ATOM     12  C   UNL     1      33.928 -15.003 -20.986  0.00  0.00    -0.000 C 
BRANCH   7  13
ATOM     13  C   UNL     1      35.388 -18.287 -22.159  0.00  0.00    +0.040 C 
ATOM     14  C   UNL     1      36.802 -18.265 -21.540  0.00  0.00    +0.006 C 
BRANCH  13  15
ATOM     15  C   UNL     1      34.548 -19.357 -21.421  0.00  0.00    +0.095 C 
BRANCH  15  16
ATOM     16  N   UNL     1      35.252 -19.786 -20.189  0.00  0.00    -0.183 NA
ATOM     17  H   UNL     1      36.226 -19.948 -20.443  0.00  0.00    +0.148 HD
BRANCH  16  18
ATOM     18  S   UNL     1      34.711 -21.179 -19.373  0.00  0.00    +0.043 S 
ATOM     19  O   UNL     1      34.983 -22.359 -20.171  0.00  0.00    -0.157 OA
ATOM     20  O   UNL     1      33.378 -20.919 -18.865  0.00  0.00    -0.157 OA
ATOM     21  C   UNL     1      35.817 -21.195 -17.980  0.00  0.00    +0.196 C 
ENDBRANCH  16  18
ENDBRANCH  15  16
ENDBRANCH  13  15
ENDBRANCH   7  13
ENDBRANCH   2   8
BRANCH   1  22
ATOM     22  C   UNL     1      31.172  -9.180 -22.246  0.00  0.00    +0.040 C 
ATOM     23  C   UNL     1      31.186  -8.559 -20.845  0.00  0.00    +0.006 C 
BRANCH  22  24
ATOM     24  C   UNL     1      31.838  -8.227 -23.251  0.00  0.00    +0.095 C 
BRANCH  24  25
ATOM     25  N   UNL     1      30.841  -7.269 -23.786  0.00  0.00    -0.183 NA
ATOM     26  H   UNL     1      30.906  -7.307 -24.804  0.00  0.00    +0.148 HD
BRANCH  25  27
ATOM     27  S   UNL     1      30.951  -5.629 -23.339  0.00  0.00    +0.043 S 
ATOM     28  O   UNL     1      29.998  -5.337 -22.287  0.00  0.00    -0.157 OA
ATOM     29  O   UNL     1      30.989  -4.830 -24.549  0.00  0.00    -0.157 OA
ATOM     30  C   UNL     1      32.580  -5.591 -22.627  0.00  0.00    +0.196 C 
ENDBRANCH  25  27
ENDBRANCH  24  25
ENDBRANCH  22  24
ENDBRANCH   1  22
TORSDOF 9
ENDMDL
MODEL 6
REMARK VINA RESULT:     -11.3      1.886     11.196
REMARK  Name = 22489160
REMARK  9 active torsions:
REMARK  status: ('A' for Active; 'I' for Inactive)
REMARK    1  A    between atoms: C_1  and  C_22
REMARK    2  A    between atoms: C_2  and  C_8
REMARK    3  A    between atoms: C_7  and  C_13
REMARK    4  A    between atoms: C_13  and  C_15
REMARK    5  A    between atoms: C_15  and  N_16
REMARK    6  A    between atoms: N_16  and  S_18
REMARK    7  A    between atoms: C_22  and  C_24
REMARK    8  A    between atoms: C_24  and  N_25
REMARK    9  A    between atoms: N_25  and  S_27
REMARK                            x       y       z     vdW  Elec       q    Type
REMARK                         _______ _______ _______ _____ _____    ______ ____
ROOT
ATOM      1  C   UNL     1      34.948 -23.048 -15.642  0.00  0.00    -0.021 C 
ATOM      2  C   UNL     1      34.891 -21.498 -17.960  0.00  0.00    -0.000 C 
ATOM      3  C   UNL     1      36.082 -22.335 -16.032  0.00  0.00    -0.004 C 
ATOM      4  C   UNL     1      33.787 -22.986 -16.411  0.00  0.00    -0.004 C 
ATOM      5  C   UNL     1      36.054 -21.560 -17.192  0.00  0.00    -0.000 C 
ATOM      6  C   UNL     1      33.758 -22.211 -17.571  0.00  0.00    -0.000 C 
ENDROOT
BRANCH   2   8
ATOM      7  C   UNL     1      34.806 -19.144 -21.482  0.00  0.00    -0.021 C 
ATOM      8  C   UNL     1      34.863 -20.695 -19.164  0.00  0.00    -0.000 C 
ATOM      9  C   UNL     1      36.007 -19.331 -20.797  0.00  0.00    -0.004 C 
ATOM     10  C   UNL     1      33.634 -19.732 -21.008  0.00  0.00    -0.004 C 
ATOM     11  C   UNL     1      36.036 -20.106 -19.638  0.00  0.00    -0.000 C 
ATOM     12  C   UNL     1      33.662 -20.508 -19.848  0.00  0.00    -0.000 C 
BRANCH   7  13
ATOM     13  C   UNL     1      34.775 -18.315 -22.721  0.00  0.00    +0.040 C 
ATOM     14  C   UNL     1      33.759 -18.853 -23.751  0.00  0.00    +0.006 C 
BRANCH  13  15
ATOM     15  C   UNL     1      34.470 -16.820 -22.465  0.00  0.00    +0.095 C 
BRANCH  15  16
ATOM     16  N   UNL     1      34.858 -16.019 -23.651  0.00  0.00    -0.183 NA
ATOM     17  H   UNL     1      35.497 -15.294 -23.326  0.00  0.00    +0.148 HD
BRANCH  16  18
ATOM     18  S   UNL     1      33.641 -15.244 -24.556  0.00  0.00    +0.043 S 
ATOM     19  O   UNL     1      32.614 -16.198 -24.924  0.00  0.00    -0.157 OA
ATOM     20  O   UNL     1      34.281 -14.417 -25.562  0.00  0.00    -0.157 OA
ATOM     21  C   UNL     1      32.960 -14.154 -23.327  0.00  0.00    +0.196 C 
ENDBRANCH  16  18
ENDBRANCH  15  16
ENDBRANCH  13  15
ENDBRANCH   7  13
ENDBRANCH   2   8
BRANCH   1  22
ATOM     22  C   UNL     1      34.978 -23.893 -14.379  0.00  0.00    +0.040 C 
ATOM     23  C   UNL     1      33.609 -23.898 -13.691  0.00  0.00    +0.006 C 
BRANCH  22  24
ATOM     24  C   UNL     1      35.439 -25.336 -14.642  0.00  0.00    +0.095 C 
BRANCH  24  25
ATOM     25  N   UNL     1      36.822 -25.342 -15.176  0.00  0.00    -0.183 NA
ATOM     26  H   UNL     1      36.919 -26.184 -15.744  0.00  0.00    +0.148 HD
BRANCH  25  27
ATOM     27  S   UNL     1      38.128 -25.324 -14.083  0.00  0.00    +0.043 S 
ATOM     28  O   UNL     1      38.649 -23.977 -13.957  0.00  0.00    -0.157 OA
ATOM     29  O   UNL     1      39.006 -26.431 -14.405  0.00  0.00    -0.157 OA
ATOM     30  C   UNL     1      37.293 -25.731 -12.567  0.00  0.00    +0.196 C 
ENDBRANCH  25  27
ENDBRANCH  24  25
ENDBRANCH  22  24
ENDBRANCH   1  22
TORSDOF 9
ENDMDL
MODEL 7
REMARK VINA RESULT:     -11.0      2.255      2.574
REMARK  Name = 22489160
REMARK  9 active torsions:
REMARK  status: ('A' for Active; 'I' for Inactive)
REMARK    1  A    between atoms: C_1  and  C_22
REMARK    2  A    between atoms: C_2  and  C_8
REMARK    3  A    between atoms: C_7  and  C_13
REMARK    4  A    between atoms: C_13  and  C_15
REMARK    5  A    between atoms: C_15  and  N_16
REMARK    6  A    between atoms: N_16  and  S_18
REMARK    7  A    between atoms: C_22  and  C_24
REMARK    8  A    between atoms: C_24  and  N_25
REMARK    9  A    between atoms: N_25  and  S_27
REMARK                            x       y       z     vdW  Elec       q    Type
REMARK                         _______ _______ _______ _____ _____    ______ ____
ROOT
ATOM      1  C   UNL     1      34.816 -19.306 -21.332  0.00  0.00    -0.021 C 
ATOM      2  C   UNL     1      34.626 -20.884 -19.041  0.00  0.00    -0.000 C 
ATOM      3  C   UNL     1      33.570 -19.764 -20.902  0.00  0.00    -0.004 C 
ATOM      4  C   UNL     1      35.966 -19.637 -20.617  0.00  0.00    -0.004 C 
ATOM      5  C   UNL     1      33.475 -20.554 -19.756  0.00  0.00    -0.000 C 
ATOM      6  C   UNL     1      35.872 -20.427 -19.471  0.00  0.00    -0.000 C 
ENDROOT
BRANCH   2   8
ATOM      7  C   UNL     1      34.340 -23.287 -15.563  0.00  0.00    -0.021 C 
ATOM      8  C   UNL     1      34.528 -21.704 -17.852  0.00  0.00    -0.000 C 
ATOM      9  C   UNL     1      35.524 -22.604 -15.843  0.00  0.00    -0.004 C 
ATOM     10  C   UNL     1      33.251 -23.179 -16.428  0.00  0.00    -0.004 C 
ATOM     11  C   UNL     1      35.618 -21.812 -16.988  0.00  0.00    -0.000 C 
ATOM     12  C   UNL     1      33.346 -22.387 -17.572  0.00  0.00    -0.000 C 
BRANCH   7  13
ATOM     13  C   UNL     1      34.240 -24.134 -14.340  0.00  0.00    +0.040 C 
ATOM     14  C   UNL     1      35.547 -24.121 -13.519  0.00  0.00    +0.006 C 
BRANCH  13  15
ATOM     15  C   UNL     1      33.070 -23.744 -13.405  0.00  0.00    +0.095 C 
BRANCH  15  16
ATOM     16  N   UNL     1      32.046 -24.816 -13.410  0.00  0.00    -0.183 NA
ATOM     17  H   UNL     1      32.197 -25.370 -14.253  0.00  0.00    +0.148 HD
BRANCH  16  18
ATOM     18  S   UNL     1      30.399 -24.383 -13.386  0.00  0.00    +0.043 S 
ATOM     19  O   UNL     1      29.964 -24.164 -12.021  0.00  0.00    -0.157 OA
ATOM     20  O   UNL     1      29.677 -25.290 -14.258  0.00  0.00    -0.157 OA
ATOM     21  C   UNL     1      30.462 -22.803 -14.200  0.00  0.00    +0.196 C 
ENDBRANCH  16  18
ENDBRANCH  15  16
ENDBRANCH  13  15
ENDBRANCH   7  13
ENDBRANCH   2   8
BRANCH   1  22
ATOM     22  C   UNL     1      34.920 -18.447 -22.582  0.00  0.00    +0.040 C 
ATOM     23  C   UNL     1      34.110 -19.054 -23.733  0.00  0.00    +0.006 C 
BRANCH  22  24
ATOM     24  C   UNL     1      34.482 -16.993 -22.340  0.00  0.00    +0.095 C 
BRANCH  24  25
ATOM     25  N   UNL     1      34.933 -16.130 -23.458  0.00  0.00    -0.183 NA
ATOM     26  H   UNL     1      35.502 -15.388 -23.050  0.00  0.00    +0.148 HD
BRANCH  25  27
ATOM     27  S   UNL     1      33.763 -15.379 -24.443  0.00  0.00    +0.043 S 
ATOM     28  O   UNL     1      32.744 -16.339 -24.820  0.00  0.00    -0.157 OA
ATOM     29  O   UNL     1      34.451 -14.595 -25.449  0.00  0.00    -0.157 OA
ATOM     30  C   UNL     1      33.040 -14.240 -23.284  0.00  0.00    +0.196 C 
ENDBRANCH  25  27
ENDBRANCH  24  25
ENDBRANCH  22  24
ENDBRANCH   1  22
TORSDOF 9
ENDMDL
MODEL 8
REMARK VINA RESULT:     -11.0      2.818      3.697
REMARK  Name = 22489160
REMARK  9 active torsions:
REMARK  status: ('A' for Active; 'I' for Inactive)
REMARK    1  A    between atoms: C_1  and  C_22
REMARK    2  A    between atoms: C_2  and  C_8
REMARK    3  A    between atoms: C_7  and  C_13
REMARK    4  A    between atoms: C_13  and  C_15
REMARK    5  A    between atoms: C_15  and  N_16
REMARK    6  A    between atoms: N_16  and  S_18
REMARK    7  A    between atoms: C_22  and  C_24
REMARK    8  A    between atoms: C_24  and  N_25
REMARK    9  A    between atoms: N_25  and  S_27
REMARK                            x       y       z     vdW  Elec       q    Type
REMARK                         _______ _______ _______ _____ _____    ______ ____
ROOT
ATOM      1  C   UNL     1      34.326 -17.174 -23.110  0.00  0.00    -0.021 C 
ATOM      2  C   UNL     1      34.150 -19.093 -21.095  0.00  0.00    -0.000 C 
ATOM      3  C   UNL     1      33.645 -18.368 -23.343  0.00  0.00    -0.004 C 
ATOM      4  C   UNL     1      34.918 -16.938 -21.870  0.00  0.00    -0.004 C 
ATOM      5  C   UNL     1      33.558 -19.329 -22.335  0.00  0.00    -0.000 C 
ATOM      6  C   UNL     1      34.831 -17.899 -20.862  0.00  0.00    -0.000 C 
ENDROOT
BRANCH   2   8
ATOM      7  C   UNL     1      33.887 -22.013 -18.035  0.00  0.00    -0.021 C 
ATOM      8  C   UNL     1      34.060 -20.090 -20.049  0.00  0.00    -0.000 C 
ATOM      9  C   UNL     1      35.136 -21.548 -18.450  0.00  0.00    -0.004 C 
ATOM     10  C   UNL     1      32.726 -21.517 -18.628  0.00  0.00    -0.004 C 
ATOM     11  C   UNL     1      35.222 -20.586 -19.457  0.00  0.00    -0.000 C 
ATOM     12  C   UNL     1      32.813 -20.554 -19.635  0.00  0.00    -0.000 C 
BRANCH   7  13
ATOM     13  C   UNL     1      33.794 -23.041 -16.960  0.00  0.00    +0.040 C 
ATOM     14  C   UNL     1      34.835 -22.807 -15.845  0.00  0.00    +0.006 C 
BRANCH  13  15
ATOM     15  C   UNL     1      32.393 -23.141 -16.310  0.00  0.00    +0.095 C 
BRANCH  15  16
ATOM     16  N   UNL     1      32.517 -23.042 -14.836  0.00  0.00    -0.183 NA
ATOM     17  H   UNL     1      33.056 -23.850 -14.526  0.00  0.00    +0.148 HD
BRANCH  16  18
ATOM     18  S   UNL     1      31.100 -22.994 -13.891  0.00  0.00    +0.043 S 
ATOM     19  O   UNL     1      30.086 -22.202 -14.559  0.00  0.00    -0.157 OA
ATOM     20  O   UNL     1      31.478 -22.712 -12.520  0.00  0.00    -0.157 OA
ATOM     21  C   UNL     1      30.598 -24.698 -13.965  0.00  0.00    +0.196 C 
ENDBRANCH  16  18
ENDBRANCH  15  16
ENDBRANCH  13  15
ENDBRANCH   7  13
ENDBRANCH   2   8
BRANCH   1  22
ATOM     22  C   UNL     1      34.423 -16.127 -24.208  0.00  0.00    +0.040 C 
ATOM     23  C   UNL     1      33.262 -16.266 -25.200  0.00  0.00    +0.006 C 
BRANCH  22  24
ATOM     24  C   UNL     1      34.476 -14.693 -23.658  0.00  0.00    +0.095 C 
BRANCH  24  25
ATOM     25  N   UNL     1      33.105 -14.146 -23.520  0.00  0.00    -0.183 NA
ATOM     26  H   UNL     1      32.773 -13.932 -24.460  0.00  0.00    +0.148 HD
BRANCH  25  27
ATOM     27  S   UNL     1      32.866 -12.750 -22.574  0.00  0.00    +0.043 S 
ATOM     28  O   UNL     1      31.454 -12.575 -22.296  0.00  0.00    -0.157 OA
ATOM     29  O   UNL     1      33.647 -11.673 -23.150  0.00  0.00    -0.157 OA
ATOM     30  C   UNL     1      33.665 -13.236 -21.062  0.00  0.00    +0.196 C 
ENDBRANCH  25  27
ENDBRANCH  24  25
ENDBRANCH  22  24
ENDBRANCH   1  22
TORSDOF 9
ENDMDL
MODEL 9
REMARK VINA RESULT:     -11.0      2.096     10.993
REMARK  Name = 22489160
REMARK  9 active torsions:
REMARK  status: ('A' for Active; 'I' for Inactive)
REMARK    1  A    between atoms: C_1  and  C_22
REMARK    2  A    between atoms: C_2  and  C_8
REMARK    3  A    between atoms: C_7  and  C_13
REMARK    4  A    between atoms: C_13  and  C_15
REMARK    5  A    between atoms: C_15  and  N_16
REMARK    6  A    between atoms: N_16  and  S_18
REMARK    7  A    between atoms: C_22  and  C_24
REMARK    8  A    between atoms: C_24  and  N_25
REMARK    9  A    between atoms: N_25  and  S_27
REMARK                            x       y       z     vdW  Elec       q    Type
REMARK                         _______ _______ _______ _____ _____    ______ ____
ROOT
ATOM      1  C   UNL     1      34.459 -23.294 -15.641  0.00  0.00    -0.021 C 
ATOM      2  C   UNL     1      34.581 -21.693 -17.921  0.00  0.00    -0.000 C 
ATOM      3  C   UNL     1      35.617 -22.570 -15.923  0.00  0.00    -0.004 C 
ATOM      4  C   UNL     1      33.362 -23.218 -16.498  0.00  0.00    -0.004 C 
ATOM      5  C   UNL     1      35.679 -21.769 -17.064  0.00  0.00    -0.000 C 
ATOM      6  C   UNL     1      33.423 -22.417 -17.639  0.00  0.00    -0.000 C 
ENDROOT
BRANCH   2   8
ATOM      7  C   UNL     1      34.768 -19.265 -21.389  0.00  0.00    -0.021 C 
ATOM      8  C   UNL     1      34.644 -20.863 -19.105  0.00  0.00    -0.000 C 
ATOM      9  C   UNL     1      33.539 -19.756 -20.946  0.00  0.00    -0.004 C 
ATOM     10  C   UNL     1      35.934 -19.573 -20.689  0.00  0.00    -0.004 C 
ATOM     11  C   UNL     1      33.477 -20.555 -19.804  0.00  0.00    -0.000 C 
ATOM     12  C   UNL     1      35.872 -20.372 -19.547  0.00  0.00    -0.000 C 
BRANCH   7  13
ATOM     13  C   UNL     1      34.834 -18.412 -22.609  0.00  0.00    +0.040 C 
ATOM     14  C   UNL     1      33.927 -18.946 -23.738  0.00  0.00    +0.006 C 
BRANCH  13  15
ATOM     15  C   UNL     1      34.476 -16.927 -22.354  0.00  0.00    +0.095 C 
BRANCH  15  16
ATOM     16  N   UNL     1      34.912 -16.103 -23.507  0.00  0.00    -0.183 NA
ATOM     17  H   UNL     1      35.510 -15.364 -23.137  0.00  0.00    +0.148 HD
BRANCH  16  18
ATOM     18  S   UNL     1      33.730 -15.350 -24.475  0.00  0.00    +0.043 S 
ATOM     19  O   UNL     1      32.717 -16.314 -24.858  0.00  0.00    -0.157 OA
ATOM     20  O   UNL     1      34.406 -14.548 -25.476  0.00  0.00    -0.157 OA
ATOM     21  C   UNL     1      33.003 -14.232 -23.299  0.00  0.00    +0.196 C 
ENDBRANCH  16  18
ENDBRANCH  15  16
ENDBRANCH  13  15
ENDBRANCH   7  13
ENDBRANCH   2   8
BRANCH   1  22
ATOM     22  C   UNL     1      34.392 -24.168 -14.399  0.00  0.00    +0.040 C 
ATOM     23  C   UNL     1      35.798 -24.518 -13.900  0.00  0.00    +0.006 C 
BRANCH  22  24
ATOM     24  C   UNL     1      33.577 -23.526 -13.266  0.00  0.00    +0.095 C 
BRANCH  24  25
ATOM     25  N   UNL     1      32.362 -24.331 -12.989  0.00  0.00    -0.183 NA
ATOM     26  H   UNL     1      32.422 -25.169 -13.568  0.00  0.00    +0.148 HD
BRANCH  25  27
ATOM     27  S   UNL     1      30.832 -23.636 -13.269  0.00  0.00    +0.043 S 
ATOM     28  O   UNL     1      30.975 -22.423 -14.049  0.00  0.00    -0.157 OA
ATOM     29  O   UNL     1      30.099 -23.633 -12.019  0.00  0.00    -0.157 OA
ATOM     30  C   UNL     1      30.096 -24.874 -14.313  0.00  0.00    +0.196 C 
ENDBRANCH  25  27
ENDBRANCH  24  25
ENDBRANCH  22  24
ENDBRANCH   1  22
TORSDOF 9
ENDMDL
