MODEL 1
REMARK VINA RESULT:     -11.1      0.000      0.000
REMARK  Name = 31508
REMARK  2 active torsions:
REMARK  status: ('A' for Active; 'I' for Inactive)
REMARK    1  A    between atoms: N_2  and  C_19
REMARK    2  A    between atoms: C_6  and  C_13
REMARK                            x       y       z     vdW  Elec       q    Type
REMARK                         _______ _______ _______ _____ _____    ______ ____
ROOT
ATOM      1  O   UNL     1      37.579 -23.198 -14.201  0.00  0.00    -0.193 OA
ATOM      2  N   UNL     1      35.357 -23.665 -13.809  0.00  0.00    -0.208 N 
ATOM      3  N   UNL     1      36.120 -22.561 -15.802  0.00  0.00    -0.321 NA
ATOM      4  C   UNL     1      34.006 -23.569 -14.251  0.00  0.00    +0.065 C 
ATOM      5  C   UNL     1      33.741 -22.957 -15.478  0.00  0.00    +0.045 C 
ATOM      6  C   UNL     1      34.906 -22.472 -16.245  0.00  0.00    +0.147 C 
ATOM      7  C   UNL     1      32.928 -24.052 -13.492  0.00  0.00    +0.011 C 
ATOM      8  C   UNL     1      36.408 -23.142 -14.585  0.00  0.00    +0.272 C 
ATOM      9  C   UNL     1      32.424 -22.805 -15.931  0.00  0.00    +0.004 C 
ATOM     10  C   UNL     1      31.616 -23.914 -13.951  0.00  0.00    -0.021 C 
ATOM     11  C   UNL     1      31.365 -23.287 -15.166  0.00  0.00    -0.004 C 
ATOM     12  C   UNL     1      30.482 -24.434 -13.132  0.00  0.00    +0.031 C 
ENDROOT
BRANCH   6  13
ATOM     13  C   UNL     1      34.730 -21.857 -17.574  0.00  0.00    +0.031 C 
ATOM     14  C   UNL     1      33.476 -21.861 -18.176  0.00  0.00    +0.003 C 
ATOM     15  C   UNL     1      35.820 -21.277 -18.214  0.00  0.00    +0.003 C 
ATOM     16  C   UNL     1      33.310 -21.278 -19.432  0.00  0.00    +0.000 C 
ATOM     17  C   UNL     1      35.655 -20.695 -19.470  0.00  0.00    +0.000 C 
ATOM     18  C   UNL     1      34.399 -20.694 -20.079  0.00  0.00    +0.000 C 
ENDBRANCH   6  13
BRANCH   2  19
ATOM     19  C   UNL     1      35.647 -24.301 -12.526  0.00  0.00    +0.090 C 
ATOM     20  C   UNL     1      36.158 -23.271 -11.528  0.00  0.00    +0.023 C 
ATOM     21  C   UNL     1      36.644 -25.438 -12.706  0.00  0.00    +0.023 C 
ENDBRANCH   2  19
TORSDOF 2
ENDMDL
MODEL 2
REMARK VINA RESULT:     -10.9      2.211      5.828
REMARK  Name = 31508
REMARK  2 active torsions:
REMARK  status: ('A' for Active; 'I' for Inactive)
REMARK    1  A    between atoms: N_2  and  C_19
REMARK    2  A    between atoms: C_6  and  C_13
REMARK                            x       y       z     vdW  Elec       q    Type
REMARK                         _______ _______ _______ _____ _____    ______ ____
ROOT
ATOM      1  O   UNL     1      30.827 -24.410 -12.706  0.00  0.00    -0.193 OA
ATOM      2  N   UNL     1      31.495 -23.591 -14.754  0.00  0.00    -0.208 N 
ATOM      3  N   UNL     1      33.040 -24.052 -12.972  0.00  0.00    -0.321 NA
ATOM      4  C   UNL     1      32.559 -23.132 -15.582  0.00  0.00    +0.065 C 
ATOM      5  C   UNL     1      33.861 -23.141 -15.074  0.00  0.00    +0.045 C 
ATOM      6  C   UNL     1      34.035 -23.659 -13.702  0.00  0.00    +0.147 C 
ATOM      7  C   UNL     1      32.349 -22.655 -16.886  0.00  0.00    +0.011 C 
ATOM      8  C   UNL     1      31.743 -24.033 -13.441  0.00  0.00    +0.272 C 
ATOM      9  C   UNL     1      34.930 -22.660 -15.840  0.00  0.00    +0.004 C 
ATOM     10  C   UNL     1      33.417 -22.190 -17.655  0.00  0.00    -0.021 C 
ATOM     11  C   UNL     1      34.705 -22.188 -17.131  0.00  0.00    -0.004 C 
ATOM     12  C   UNL     1      33.175 -21.687 -19.039  0.00  0.00    +0.031 C 
ENDROOT
BRANCH   6  13
ATOM     13  C   UNL     1      35.378 -23.755 -13.098  0.00  0.00    +0.031 C 
ATOM     14  C   UNL     1      35.812 -22.766 -12.220  0.00  0.00    +0.003 C 
ATOM     15  C   UNL     1      36.197 -24.833 -13.411  0.00  0.00    +0.003 C 
ATOM     16  C   UNL     1      37.081 -22.859 -11.649  0.00  0.00    +0.000 C 
ATOM     17  C   UNL     1      37.467 -24.925 -12.840  0.00  0.00    +0.000 C 
ATOM     18  C   UNL     1      37.908 -23.938 -11.958  0.00  0.00    +0.000 C 
ENDBRANCH   6  13
BRANCH   2  19
ATOM     19  C   UNL     1      30.130 -23.583 -15.273  0.00  0.00    +0.090 C 
ATOM     20  C   UNL     1      29.333 -22.443 -14.653  0.00  0.00    +0.023 C 
ATOM     21  C   UNL     1      29.457 -24.927 -15.024  0.00  0.00    +0.023 C 
ENDBRANCH   2  19
TORSDOF 2
ENDMDL
MODEL 3
REMARK VINA RESULT:     -10.9      1.718      4.915
REMARK  Name = 31508
REMARK  2 active torsions:
REMARK  status: ('A' for Active; 'I' for Inactive)
REMARK    1  A    between atoms: N_2  and  C_19
REMARK    2  A    between atoms: C_6  and  C_13
REMARK                            x       y       z     vdW  Elec       q    Type
REMARK                         _______ _______ _______ _____ _____    ______ ____
ROOT
ATOM      1  O   UNL     1      34.552 -24.348 -11.284  0.00  0.00    -0.193 OA
ATOM      2  N   UNL     1      35.190 -23.389 -13.280  0.00  0.00    -0.208 N 
ATOM      3  N   UNL     1      32.919 -24.012 -12.807  0.00  0.00    -0.321 NA
ATOM      4  C   UNL     1      34.816 -22.945 -14.581  0.00  0.00    +0.065 C 
ATOM      5  C   UNL     1      33.479 -23.051 -14.971  0.00  0.00    +0.045 C 
ATOM      6  C   UNL     1      32.538 -23.603 -13.975  0.00  0.00    +0.147 C 
ATOM      7  C   UNL     1      35.744 -22.419 -15.494  0.00  0.00    +0.011 C 
ATOM      8  C   UNL     1      34.235 -23.939 -12.404  0.00  0.00    +0.272 C 
ATOM      9  C   UNL     1      33.077 -22.665 -16.255  0.00  0.00    +0.004 C 
ATOM     10  C   UNL     1      35.340 -22.019 -16.769  0.00  0.00    -0.021 C 
ATOM     11  C   UNL     1      34.009 -22.147 -17.151  0.00  0.00    -0.004 C 
ATOM     12  C   UNL     1      36.339 -21.462 -17.727  0.00  0.00    +0.031 C 
ENDROOT
BRANCH   6  13
ATOM     13  C   UNL     1      31.098 -23.707 -14.277  0.00  0.00    +0.031 C 
ATOM     14  C   UNL     1      30.393 -22.577 -14.679  0.00  0.00    +0.003 C 
ATOM     15  C   UNL     1      30.457 -24.935 -14.157  0.00  0.00    +0.003 C 
ATOM     16  C   UNL     1      29.032 -22.677 -14.965  0.00  0.00    +0.000 C 
ATOM     17  C   UNL     1      29.096 -25.035 -14.443  0.00  0.00    +0.000 C 
ATOM     18  C   UNL     1      28.383 -23.906 -14.848  0.00  0.00    +0.000 C 
ENDBRANCH   6  13
BRANCH   2  19
ATOM     19  C   UNL     1      36.586 -23.285 -12.862  0.00  0.00    +0.090 C 
ATOM     20  C   UNL     1      37.208 -24.670 -12.742  0.00  0.00    +0.023 C 
ATOM     21  C   UNL     1      36.695 -22.515 -11.552  0.00  0.00    +0.023 C 
ENDBRANCH   2  19
TORSDOF 2
ENDMDL
MODEL 4
REMARK VINA RESULT:     -10.8      2.553      4.225
REMARK  Name = 31508
REMARK  2 active torsions:
REMARK  status: ('A' for Active; 'I' for Inactive)
REMARK    1  A    between atoms: N_2  and  C_19
REMARK    2  A    between atoms: C_6  and  C_13
REMARK                            x       y       z     vdW  Elec       q    Type
REMARK                         _______ _______ _______ _____ _____    ______ ____
ROOT
ATOM      1  O   UNL     1      29.481 -22.789 -16.609  0.00  0.00    -0.193 OA
ATOM      2  N   UNL     1      31.384 -23.293 -15.412  0.00  0.00    -0.208 N 
ATOM      3  N   UNL     1      31.441 -22.132 -17.514  0.00  0.00    -0.321 NA
ATOM      4  C   UNL     1      32.806 -23.257 -15.333  0.00  0.00    +0.065 C 
ATOM      5  C   UNL     1      33.524 -22.651 -16.367  0.00  0.00    +0.045 C 
ATOM      6  C   UNL     1      32.734 -22.064 -17.468  0.00  0.00    +0.147 C 
ATOM      7  C   UNL     1      33.516 -23.821 -14.261  0.00  0.00    +0.011 C 
ATOM      8  C   UNL     1      30.710 -22.742 -16.518  0.00  0.00    +0.272 C 
ATOM      9  C   UNL     1      34.924 -22.630 -16.348  0.00  0.00    +0.004 C 
ATOM     10  C   UNL     1      34.912 -23.786 -14.235  0.00  0.00    -0.021 C 
ATOM     11  C   UNL     1      35.614 -23.196 -15.279  0.00  0.00    -0.004 C 
ATOM     12  C   UNL     1      35.651 -24.391 -13.088  0.00  0.00    +0.031 C 
ENDROOT
BRANCH   6  13
ATOM     13  C   UNL     1      33.400 -21.359 -18.580  0.00  0.00    +0.031 C 
ATOM     14  C   UNL     1      32.646 -20.592 -19.462  0.00  0.00    +0.003 C 
ATOM     15  C   UNL     1      34.778 -21.467 -18.735  0.00  0.00    +0.003 C 
ATOM     16  C   UNL     1      33.277 -19.925 -20.512  0.00  0.00    +0.000 C 
ATOM     17  C   UNL     1      35.409 -20.800 -19.785  0.00  0.00    +0.000 C 
ATOM     18  C   UNL     1      34.658 -20.028 -20.674  0.00  0.00    +0.000 C 
ENDBRANCH   6  13
BRANCH   2  19
ATOM     19  C   UNL     1      30.623 -23.926 -14.337  0.00  0.00    +0.090 C 
ATOM     20  C   UNL     1      29.635 -24.933 -14.910  0.00  0.00    +0.023 C 
ATOM     21  C   UNL     1      29.913 -22.874 -13.495  0.00  0.00    +0.023 C 
ENDBRANCH   2  19
TORSDOF 2
ENDMDL
MODEL 5
REMARK VINA RESULT:     -10.5      1.693      4.875
REMARK  Name = 31508
REMARK  2 active torsions:
REMARK  status: ('A' for Active; 'I' for Inactive)
REMARK    1  A    between atoms: N_2  and  C_19
REMARK    2  A    between atoms: C_6  and  C_13
REMARK                            x       y       z     vdW  Elec       q    Type
REMARK                         _______ _______ _______ _____ _____    ______ ____
ROOT
ATOM      1  O   UNL     1      34.555 -24.107 -12.432  0.00  0.00    -0.193 OA
ATOM      2  N   UNL     1      34.999 -23.140 -14.476  0.00  0.00    -0.208 N 
ATOM      3  N   UNL     1      32.785 -23.775 -13.793  0.00  0.00    -0.321 NA
ATOM      4  C   UNL     1      34.503 -22.695 -15.734  0.00  0.00    +0.065 C 
ATOM      5  C   UNL     1      33.135 -22.806 -15.997  0.00  0.00    +0.045 C 
ATOM      6  C   UNL     1      32.294 -23.364 -14.919  0.00  0.00    +0.147 C 
ATOM      7  C   UNL     1      35.338 -22.161 -16.729  0.00  0.00    +0.011 C 
ATOM      8  C   UNL     1      34.133 -23.696 -13.516  0.00  0.00    +0.272 C 
ATOM      9  C   UNL     1      32.612 -22.418 -17.237  0.00  0.00    +0.004 C 
ATOM     10  C   UNL     1      34.814 -21.760 -17.959  0.00  0.00    -0.021 C 
ATOM     11  C   UNL     1      33.454 -21.893 -18.215  0.00  0.00    -0.004 C 
ATOM     12  C   UNL     1      35.717 -21.196 -19.005  0.00  0.00    +0.031 C 
ENDROOT
BRANCH   6  13
ATOM     13  C   UNL     1      30.833 -23.474 -15.084  0.00  0.00    +0.031 C 
ATOM     14  C   UNL     1      30.159 -24.573 -14.559  0.00  0.00    +0.003 C 
ATOM     15  C   UNL     1      30.140 -22.478 -15.764  0.00  0.00    +0.003 C 
ATOM     16  C   UNL     1      28.777 -24.676 -14.715  0.00  0.00    +0.000 C 
ATOM     17  C   UNL     1      28.758 -22.581 -15.920  0.00  0.00    +0.000 C 
ATOM     18  C   UNL     1      28.076 -23.680 -15.394  0.00  0.00    +0.000 C 
ENDBRANCH   6  13
BRANCH   2  19
ATOM     19  C   UNL     1      36.428 -23.030 -14.190  0.00  0.00    +0.090 C 
ATOM     20  C   UNL     1      37.106 -24.384 -14.355  0.00  0.00    +0.023 C 
ATOM     21  C   UNL     1      36.651 -22.466 -12.793  0.00  0.00    +0.023 C 
ENDBRANCH   2  19
TORSDOF 2
ENDMDL
MODEL 6
REMARK VINA RESULT:      -9.3      2.036      5.031
REMARK  Name = 31508
REMARK  2 active torsions:
REMARK  status: ('A' for Active; 'I' for Inactive)
REMARK    1  A    between atoms: N_2  and  C_19
REMARK    2  A    between atoms: C_6  and  C_13
REMARK                            x       y       z     vdW  Elec       q    Type
REMARK                         _______ _______ _______ _____ _____    ______ ____
ROOT
ATOM      1  O   UNL     1      34.509 -22.016 -18.228  0.00  0.00    -0.193 OA
ATOM      2  N   UNL     1      35.349 -22.386 -16.114  0.00  0.00    -0.208 N 
ATOM      3  N   UNL     1      33.033 -22.706 -16.665  0.00  0.00    -0.321 NA
ATOM      4  C   UNL     1      35.096 -22.747 -14.760  0.00  0.00    +0.065 C 
ATOM      5  C   UNL     1      33.793 -23.081 -14.384  0.00  0.00    +0.045 C 
ATOM      6  C   UNL     1      32.767 -23.057 -15.447  0.00  0.00    +0.147 C 
ATOM      7  C   UNL     1      36.104 -22.766 -13.783  0.00  0.00    +0.011 C 
ATOM      8  C   UNL     1      34.305 -22.351 -17.058  0.00  0.00    +0.272 C 
ATOM      9  C   UNL     1      33.493 -23.403 -13.054  0.00  0.00    +0.004 C 
ATOM     10  C   UNL     1      35.808 -23.101 -12.460  0.00  0.00    -0.021 C 
ATOM     11  C   UNL     1      34.504 -23.414 -12.096  0.00  0.00    -0.004 C 
ATOM     12  C   UNL     1      36.892 -23.115 -11.434  0.00  0.00    +0.031 C 
ENDROOT
BRANCH   6  13
ATOM     13  C   UNL     1      31.373 -23.443 -15.157  0.00  0.00    +0.031 C 
ATOM     14  C   UNL     1      31.116 -24.548 -14.352  0.00  0.00    +0.003 C 
ATOM     15  C   UNL     1      30.328 -22.697 -15.691  0.00  0.00    +0.003 C 
ATOM     16  C   UNL     1      29.798 -24.912 -14.078  0.00  0.00    +0.000 C 
ATOM     17  C   UNL     1      29.010 -23.061 -15.417  0.00  0.00    +0.000 C 
ATOM     18  C   UNL     1      28.744 -24.168 -14.609  0.00  0.00    +0.000 C 
ENDBRANCH   6  13
BRANCH   2  19
ATOM     19  C   UNL     1      36.708 -22.032 -16.519  0.00  0.00    +0.090 C 
ATOM     20  C   UNL     1      37.725 -22.791 -15.677  0.00  0.00    +0.023 C 
ATOM     21  C   UNL     1      36.920 -20.527 -16.418  0.00  0.00    +0.023 C 
ENDBRANCH   2  19
TORSDOF 2
ENDMDL
MODEL 7
REMARK VINA RESULT:      -9.3      1.507      5.326
REMARK  Name = 31508
REMARK  2 active torsions:
REMARK  status: ('A' for Active; 'I' for Inactive)
REMARK    1  A    between atoms: N_2  and  C_19
REMARK    2  A    between atoms: C_6  and  C_13
REMARK                            x       y       z     vdW  Elec       q    Type
REMARK                         _______ _______ _______ _____ _____    ______ ____
ROOT
ATOM      1  O   UNL     1      36.335 -21.575 -18.199  0.00  0.00    -0.193 OA
ATOM      2  N   UNL     1      34.237 -22.105 -17.409  0.00  0.00    -0.208 N 
ATOM      3  N   UNL     1      36.233 -22.426 -16.111  0.00  0.00    -0.321 NA
ATOM      4  C   UNL     1      33.444 -22.643 -16.355  0.00  0.00    +0.065 C 
ATOM      5  C   UNL     1      34.077 -23.070 -15.185  0.00  0.00    +0.045 C 
ATOM      6  C   UNL     1      35.543 -22.903 -15.124  0.00  0.00    +0.147 C 
ATOM      7  C   UNL     1      32.049 -22.776 -16.452  0.00  0.00    +0.011 C 
ATOM      8  C   UNL     1      35.636 -22.016 -17.284  0.00  0.00    +0.272 C 
ATOM      9  C   UNL     1      33.339 -23.643 -14.141  0.00  0.00    +0.004 C 
ATOM     10  C   UNL     1      31.312 -23.333 -15.405  0.00  0.00    -0.021 C 
ATOM     11  C   UNL     1      31.957 -23.770 -14.254  0.00  0.00    -0.004 C 
ATOM     12  C   UNL     1      29.831 -23.466 -15.526  0.00  0.00    +0.031 C 
ENDROOT
BRANCH   6  13
ATOM     13  C   UNL     1      36.295 -23.279 -13.911  0.00  0.00    +0.031 C 
ATOM     14  C   UNL     1      36.254 -22.454 -12.792  0.00  0.00    +0.003 C 
ATOM     15  C   UNL     1      37.036 -24.455 -13.898  0.00  0.00    +0.003 C 
ATOM     16  C   UNL     1      36.964 -22.810 -11.645  0.00  0.00    +0.000 C 
ATOM     17  C   UNL     1      37.745 -24.811 -12.751  0.00  0.00    +0.000 C 
ATOM     18  C   UNL     1      37.709 -23.989 -11.624  0.00  0.00    +0.000 C 
ENDBRANCH   6  13
BRANCH   2  19
ATOM     19  C   UNL     1      33.586 -21.657 -18.638  0.00  0.00    +0.090 C 
ATOM     20  C   UNL     1      33.329 -22.840 -19.562  0.00  0.00    +0.023 C 
ATOM     21  C   UNL     1      34.424 -20.589 -19.327  0.00  0.00    +0.023 C 
ENDBRANCH   2  19
TORSDOF 2
ENDMDL
MODEL 8
REMARK VINA RESULT:      -9.2      2.772      6.214
REMARK  Name = 31508
REMARK  2 active torsions:
REMARK  status: ('A' for Active; 'I' for Inactive)
REMARK    1  A    between atoms: N_2  and  C_19
REMARK    2  A    between atoms: C_6  and  C_13
REMARK                            x       y       z     vdW  Elec       q    Type
REMARK                         _______ _______ _______ _____ _____    ______ ____
ROOT
ATOM      1  O   UNL     1      31.907 -21.197 -19.735  0.00  0.00    -0.193 OA
ATOM      2  N   UNL     1      33.861 -21.558 -18.567  0.00  0.00    -0.208 N 
ATOM      3  N   UNL     1      31.696 -22.094 -17.674  0.00  0.00    -0.321 NA
ATOM      4  C   UNL     1      34.486 -21.995 -17.364  0.00  0.00    +0.065 C 
ATOM      5  C   UNL     1      33.686 -22.476 -16.325  0.00  0.00    +0.045 C 
ATOM      6  C   UNL     1      32.230 -22.517 -16.572  0.00  0.00    +0.147 C 
ATOM      7  C   UNL     1      35.876 -21.946 -17.176  0.00  0.00    +0.011 C 
ATOM      8  C   UNL     1      32.461 -21.595 -18.707  0.00  0.00    +0.272 C 
ATOM      9  C   UNL     1      34.256 -22.877 -15.111  0.00  0.00    +0.004 C 
ATOM     10  C   UNL     1      36.447 -22.360 -15.970  0.00  0.00    -0.021 C 
ATOM     11  C   UNL     1      35.637 -22.820 -14.938  0.00  0.00    -0.004 C 
ATOM     12  C   UNL     1      37.927 -22.301 -15.787  0.00  0.00    +0.031 C 
ENDROOT
BRANCH   6  13
ATOM     13  C   UNL     1      31.308 -23.056 -15.553  0.00  0.00    +0.031 C 
ATOM     14  C   UNL     1      30.445 -24.095 -15.885  0.00  0.00    +0.003 C 
ATOM     15  C   UNL     1      31.312 -22.520 -14.270  0.00  0.00    +0.003 C 
ATOM     16  C   UNL     1      29.575 -24.605 -14.921  0.00  0.00    +0.000 C 
ATOM     17  C   UNL     1      30.442 -23.029 -13.306  0.00  0.00    +0.000 C 
ATOM     18  C   UNL     1      29.574 -24.073 -13.632  0.00  0.00    +0.000 C 
ENDBRANCH   6  13
BRANCH   2  19
ATOM     19  C   UNL     1      34.688 -21.051 -19.660  0.00  0.00    +0.090 C 
ATOM     20  C   UNL     1      36.070 -20.670 -19.146  0.00  0.00    +0.023 C 
ATOM     21  C   UNL     1      34.007 -19.870 -20.341  0.00  0.00    +0.023 C 
ENDBRANCH   2  19
TORSDOF 2
ENDMDL
MODEL 9
REMARK VINA RESULT:      -8.9     15.976     19.394
REMARK  Name = 31508
REMARK  2 active torsions:
REMARK  status: ('A' for Active; 'I' for Inactive)
REMARK    1  A    between atoms: N_2  and  C_19
REMARK    2  A    between atoms: C_6  and  C_13
REMARK                            x       y       z     vdW  Elec       q    Type
REMARK                         _______ _______ _______ _____ _____    ______ ____
ROOT
ATOM      1  O   UNL     1      29.642  -3.669 -21.750  0.00  0.00    -0.193 OA
ATOM      2  N   UNL     1      31.336  -4.198 -23.220  0.00  0.00    -0.208 N 
ATOM      3  N   UNL     1      30.516  -5.743 -21.573  0.00  0.00    -0.321 NA
ATOM      4  C   UNL     1      32.295  -5.153 -23.664  0.00  0.00    +0.065 C 
ATOM      5  C   UNL     1      32.343  -6.401 -23.039  0.00  0.00    +0.045 C 
ATOM      6  C   UNL     1      31.362  -6.644 -21.963  0.00  0.00    +0.147 C 
ATOM      7  C   UNL     1      33.205  -4.883 -24.699  0.00  0.00    +0.011 C 
ATOM      8  C   UNL     1      30.460  -4.497 -22.159  0.00  0.00    +0.272 C 
ATOM      9  C   UNL     1      33.297  -7.354 -23.418  0.00  0.00    +0.004 C 
ATOM     10  C   UNL     1      34.146  -5.838 -25.087  0.00  0.00    -0.021 C 
ATOM     11  C   UNL     1      34.196  -7.070 -24.444  0.00  0.00    -0.004 C 
ATOM     12  C   UNL     1      35.107  -5.534 -26.188  0.00  0.00    +0.031 C 
ENDROOT
BRANCH   6  13
ATOM     13  C   UNL     1      31.302  -7.949 -21.277  0.00  0.00    +0.031 C 
ATOM     14  C   UNL     1      30.945  -9.088 -21.992  0.00  0.00    +0.003 C 
ATOM     15  C   UNL     1      31.605  -8.028 -19.922  0.00  0.00    +0.003 C 
ATOM     16  C   UNL     1      30.890 -10.322 -21.343  0.00  0.00    +0.000 C 
ATOM     17  C   UNL     1      31.551  -9.262 -19.274  0.00  0.00    +0.000 C 
ATOM     18  C   UNL     1      31.194 -10.409 -19.984  0.00  0.00    +0.000 C 
ENDBRANCH   6  13
BRANCH   2  19
ATOM     19  C   UNL     1      31.278  -2.888 -23.865  0.00  0.00    +0.090 C 
ATOM     20  C   UNL     1      31.196  -1.786 -22.818  0.00  0.00    +0.023 C 
ATOM     21  C   UNL     1      30.102  -2.821 -24.831  0.00  0.00    +0.023 C 
ENDBRANCH   2  19
TORSDOF 2
ENDMDL
