MODEL 1
REMARK VINA RESULT:     -13.4      0.000      0.000
REMARK  Name = 24832041
REMARK  6 active torsions:
REMARK  status: ('A' for Active; 'I' for Inactive)
REMARK    1  A    between atoms: C_1  and  C_18
REMARK    2  A    between atoms: C_4  and  C_7
REMARK    3  A    between atoms: C_10  and  C_15
REMARK    4  A    between atoms: C_18  and  N_19
REMARK    5  A    between atoms: C_18  and  C_23
REMARK    6  A    between atoms: C_23  and  C_26
REMARK                            x       y       z     vdW  Elec       q    Type
REMARK                         _______ _______ _______ _____ _____    ______ ____
ROOT
ATOM      1  C   UNL     1      34.289 -19.489 -21.209  0.00  0.00    -0.042 C 
ATOM      2  C   UNL     1      35.537 -19.768 -20.652  0.00  0.00    -0.006 C 
ATOM      3  C   UNL     1      33.131 -19.976 -20.602  0.00  0.00    -0.006 C 
ATOM      4  C   UNL     1      34.470 -21.020 -18.882  0.00  0.00    -0.000 C 
ATOM      5  C   UNL     1      35.628 -20.533 -19.489  0.00  0.00    -0.000 C 
ATOM      6  C   UNL     1      33.221 -20.741 -19.439  0.00  0.00    -0.000 C 
ENDROOT
BRANCH   4   7
ATOM      7  C   UNL     1      34.564 -21.812 -17.676  0.00  0.00    +0.000 C 
ATOM      8  C   UNL     1      35.764 -21.862 -16.967  0.00  0.00    +0.005 C 
ATOM      9  C   UNL     1      33.455 -22.526 -17.223  0.00  0.00    +0.000 C 
ATOM     10  C   UNL     1      35.855 -22.627 -15.803  0.00  0.00    +0.053 C 
ATOM     11  C   UNL     1      33.547 -23.291 -16.059  0.00  0.00    +0.000 C 
ATOM     12  C   UNL     1      34.746 -23.341 -15.350  0.00  0.00    +0.005 C 
BRANCH  10  15
ATOM     13  O   UNL     1      37.152 -22.401 -13.850  0.00  0.00    -0.270 OA
ATOM     14  N   UNL     1      38.251 -23.066 -15.750  0.00  0.00    -0.325 N 
ATOM     15  C   UNL     1      37.105 -22.678 -15.062  0.00  0.00    +0.243 C 
ATOM     16  H   UNL     1      39.116 -23.112 -15.281  0.00  0.00    +0.145 HD
ATOM     17  H   UNL     1      38.198 -23.296 -16.706  0.00  0.00    +0.145 HD
ENDBRANCH  10  15
ENDBRANCH   4   7
BRANCH   1  18
ATOM     18  C   UNL     1      34.191 -18.671 -22.451  0.00  0.00    -0.038 C 
BRANCH  18  19
ATOM     19  N   UNL     1      34.426 -19.479 -23.667  0.00  0.00    +0.384 N 
ATOM     20  H   UNL     1      33.611 -19.418 -24.279  0.00  0.00    -0.089 HD
ATOM     21  H   UNL     1      34.580 -20.453 -23.404  0.00  0.00    -0.089 HD
ATOM     22  H   UNL     1      35.246 -19.126 -24.158  0.00  0.00    -0.089 HD
ENDBRANCH  18  19
BRANCH  18  23
ATOM     23  C   UNL     1      35.158 -17.452 -22.491  0.00  0.00    +0.011 C 
BRANCH  23  26
ATOM     24  F   UNL     1      34.470 -15.545 -20.508  0.00  0.00    -0.205 F 
ATOM     25  F   UNL     1      33.117 -14.359 -25.673  0.00  0.00    -0.204 F 
ATOM     26  C   UNL     1      34.449 -16.153 -22.802  0.00  0.00    +0.006 C 
ATOM     27  C   UNL     1      34.142 -15.261 -21.776  0.00  0.00    +0.136 C 
ATOM     28  C   UNL     1      34.104 -15.849 -24.119  0.00  0.00    +0.028 C 
ATOM     29  C   UNL     1      33.449 -14.652 -24.410  0.00  0.00    +0.140 C 
ATOM     30  C   UNL     1      33.487 -14.063 -22.066  0.00  0.00    +0.032 C 
ATOM     31  C   UNL     1      33.142 -13.758 -23.383  0.00  0.00    +0.032 C 
ENDBRANCH  23  26
ENDBRANCH  18  23
ENDBRANCH   1  18
TORSDOF 6
ENDMDL
MODEL 2
REMARK VINA RESULT:     -13.3      4.551      9.643
REMARK  Name = 24832041
REMARK  6 active torsions:
REMARK  status: ('A' for Active; 'I' for Inactive)
REMARK    1  A    between atoms: C_1  and  C_18
REMARK    2  A    between atoms: C_4  and  C_7
REMARK    3  A    between atoms: C_10  and  C_15
REMARK    4  A    between atoms: C_18  and  N_19
REMARK    5  A    between atoms: C_18  and  C_23
REMARK    6  A    between atoms: C_23  and  C_26
REMARK                            x       y       z     vdW  Elec       q    Type
REMARK                         _______ _______ _______ _____ _____    ______ ____
ROOT
ATOM      1  C   UNL     1      34.778 -16.623 -21.637  0.00  0.00    -0.042 C 
ATOM      2  C   UNL     1      34.294 -15.869 -20.569  0.00  0.00    -0.006 C 
ATOM      3  C   UNL     1      34.718 -16.113 -22.934  0.00  0.00    -0.006 C 
ATOM      4  C   UNL     1      33.691 -14.094 -22.093  0.00  0.00    -0.000 C 
ATOM      5  C   UNL     1      33.751 -14.605 -20.796  0.00  0.00    -0.000 C 
ATOM      6  C   UNL     1      34.175 -14.849 -23.162  0.00  0.00    -0.000 C 
ENDROOT
BRANCH   4   7
ATOM      7  C   UNL     1      33.128 -12.783 -22.328  0.00  0.00    +0.000 C 
ATOM      8  C   UNL     1      32.294 -12.201 -21.374  0.00  0.00    +0.005 C 
ATOM      9  C   UNL     1      33.419 -12.101 -23.509  0.00  0.00    +0.000 C 
ATOM     10  C   UNL     1      31.750 -10.936 -21.600  0.00  0.00    +0.053 C 
ATOM     11  C   UNL     1      32.875 -10.836 -23.736  0.00  0.00    +0.000 C 
ATOM     12  C   UNL     1      32.041 -10.253 -22.782  0.00  0.00    +0.005 C 
BRANCH  10  15
ATOM     13  O   UNL     1      29.702 -10.036 -20.866  0.00  0.00    -0.270 OA
ATOM     14  N   UNL     1      31.412 -10.095 -19.339  0.00  0.00    -0.325 N 
ATOM     15  C   UNL     1      30.882 -10.327 -20.605  0.00  0.00    +0.243 C 
ATOM     16  H   UNL     1      30.854  -9.683 -18.640  0.00  0.00    +0.145 HD
ATOM     17  H   UNL     1      32.344 -10.342 -19.142  0.00  0.00    +0.145 HD
ENDBRANCH  10  15
ENDBRANCH   4   7
BRANCH   1  18
ATOM     18  C   UNL     1      35.360 -17.974 -21.395  0.00  0.00    -0.038 C 
BRANCH  18  19
ATOM     19  N   UNL     1      36.550 -18.224 -22.236  0.00  0.00    +0.384 N 
ATOM     20  H   UNL     1      36.916 -19.157 -22.041  0.00  0.00    -0.089 HD
ATOM     21  H   UNL     1      37.266 -17.528 -22.027  0.00  0.00    -0.089 HD
ATOM     22  H   UNL     1      36.292 -18.161 -23.220  0.00  0.00    -0.089 HD
ENDBRANCH  18  19
BRANCH  18  23
ATOM     23  C   UNL     1      34.362 -19.149 -21.614  0.00  0.00    +0.011 C 
BRANCH  23  26
ATOM     24  F   UNL     1      31.912 -20.165 -20.612  0.00  0.00    -0.205 F 
ATOM     25  F   UNL     1      36.482 -21.692 -18.023  0.00  0.00    -0.204 F 
ATOM     26  C   UNL     1      34.276 -20.073 -20.421  0.00  0.00    +0.006 C 
ATOM     27  C   UNL     1      33.036 -20.536 -19.983  0.00  0.00    +0.136 C 
ATOM     28  C   UNL     1      35.441 -20.464 -19.760  0.00  0.00    +0.028 C 
ATOM     29  C   UNL     1      35.365 -21.317 -18.659  0.00  0.00    +0.140 C 
ATOM     30  C   UNL     1      32.960 -21.389 -18.881  0.00  0.00    +0.032 C 
ATOM     31  C   UNL     1      34.123 -21.780 -18.220  0.00  0.00    +0.032 C 
ENDBRANCH  23  26
ENDBRANCH  18  23
ENDBRANCH   1  18
TORSDOF 6
ENDMDL
MODEL 3
REMARK VINA RESULT:     -13.3      0.706      1.944
REMARK  Name = 24832041
REMARK  6 active torsions:
REMARK  status: ('A' for Active; 'I' for Inactive)
REMARK    1  A    between atoms: C_1  and  C_18
REMARK    2  A    between atoms: C_4  and  C_7
REMARK    3  A    between atoms: C_10  and  C_15
REMARK    4  A    between atoms: C_18  and  N_19
REMARK    5  A    between atoms: C_18  and  C_23
REMARK    6  A    between atoms: C_23  and  C_26
REMARK                            x       y       z     vdW  Elec       q    Type
REMARK                         _______ _______ _______ _____ _____    ______ ____
ROOT
ATOM      1  C   UNL     1      34.278 -19.456 -21.231  0.00  0.00    -0.042 C 
ATOM      2  C   UNL     1      33.113 -19.913 -20.614  0.00  0.00    -0.006 C 
ATOM      3  C   UNL     1      35.524 -19.772 -20.688  0.00  0.00    -0.006 C 
ATOM      4  C   UNL     1      34.439 -21.001 -18.912  0.00  0.00    -0.000 C 
ATOM      5  C   UNL     1      33.193 -20.685 -19.455  0.00  0.00    -0.000 C 
ATOM      6  C   UNL     1      35.604 -20.544 -19.530  0.00  0.00    -0.000 C 
ENDROOT
BRANCH   4   7
ATOM      7  C   UNL     1      34.522 -21.802 -17.712  0.00  0.00    +0.000 C 
ATOM      8  C   UNL     1      35.714 -21.852 -16.987  0.00  0.00    +0.005 C 
ATOM      9  C   UNL     1      33.412 -22.525 -17.278  0.00  0.00    +0.000 C 
ATOM     10  C   UNL     1      35.794 -22.625 -15.829  0.00  0.00    +0.053 C 
ATOM     11  C   UNL     1      33.493 -23.299 -16.119  0.00  0.00    +0.000 C 
ATOM     12  C   UNL     1      34.683 -23.348 -15.395  0.00  0.00    +0.005 C 
BRANCH  10  15
ATOM     13  O   UNL     1      37.059 -22.444 -13.850  0.00  0.00    -0.270 OA
ATOM     14  N   UNL     1      38.199 -23.010 -15.758  0.00  0.00    -0.325 N 
ATOM     15  C   UNL     1      37.035 -22.675 -15.072  0.00  0.00    +0.243 C 
ATOM     16  H   UNL     1      39.058 -23.053 -15.278  0.00  0.00    +0.145 HD
ATOM     17  H   UNL     1      38.164 -23.204 -16.722  0.00  0.00    +0.145 HD
ENDBRANCH  10  15
ENDBRANCH   4   7
BRANCH   1  18
ATOM     18  C   UNL     1      34.193 -18.632 -22.470  0.00  0.00    -0.038 C 
BRANCH  18  19
ATOM     19  N   UNL     1      34.388 -19.443 -23.690  0.00  0.00    +0.384 N 
ATOM     20  H   UNL     1      33.499 -19.537 -24.182  0.00  0.00    -0.089 HD
ATOM     21  H   UNL     1      34.732 -20.369 -23.432  0.00  0.00    -0.089 HD
ATOM     22  H   UNL     1      35.065 -18.986 -24.299  0.00  0.00    -0.089 HD
ENDBRANCH  18  19
BRANCH  18  23
ATOM     23  C   UNL     1      35.198 -17.444 -22.518  0.00  0.00    +0.011 C 
BRANCH  23  26
ATOM     24  F   UNL     1      34.341 -16.216 -24.926  0.00  0.00    -0.205 F 
ATOM     25  F   UNL     1      33.411 -13.489 -20.277  0.00  0.00    -0.204 F 
ATOM     26  C   UNL     1      34.511 -16.098 -22.561  0.00  0.00    +0.006 C 
ATOM     27  C   UNL     1      34.116 -15.554 -23.783  0.00  0.00    +0.136 C 
ATOM     28  C   UNL     1      34.273 -15.402 -21.377  0.00  0.00    +0.028 C 
ATOM     29  C   UNL     1      33.639 -14.159 -21.414  0.00  0.00    +0.140 C 
ATOM     30  C   UNL     1      33.483 -14.311 -23.820  0.00  0.00    +0.032 C 
ATOM     31  C   UNL     1      33.244 -13.614 -22.636  0.00  0.00    +0.032 C 
ENDBRANCH  23  26
ENDBRANCH  18  23
ENDBRANCH   1  18
TORSDOF 6
ENDMDL
MODEL 4
REMARK VINA RESULT:     -12.7      1.484      1.915
REMARK  Name = 24832041
REMARK  6 active torsions:
REMARK  status: ('A' for Active; 'I' for Inactive)
REMARK    1  A    between atoms: C_1  and  C_18
REMARK    2  A    between atoms: C_4  and  C_7
REMARK    3  A    between atoms: C_10  and  C_15
REMARK    4  A    between atoms: C_18  and  N_19
REMARK    5  A    between atoms: C_18  and  C_23
REMARK    6  A    between atoms: C_23  and  C_26
REMARK                            x       y       z     vdW  Elec       q    Type
REMARK                         _______ _______ _______ _____ _____    ______ ____
ROOT
ATOM      1  C   UNL     1      34.544 -19.423 -21.140  0.00  0.00    -0.042 C 
ATOM      2  C   UNL     1      35.838 -19.445 -20.621  0.00  0.00    -0.006 C 
ATOM      3  C   UNL     1      33.519 -20.109 -20.488  0.00  0.00    -0.006 C 
ATOM      4  C   UNL     1      35.083 -20.838 -18.796  0.00  0.00    -0.000 C 
ATOM      5  C   UNL     1      36.108 -20.151 -19.449  0.00  0.00    -0.000 C 
ATOM      6  C   UNL     1      33.789 -20.816 -19.316  0.00  0.00    -0.000 C 
ENDROOT
BRANCH   4   7
ATOM      7  C   UNL     1      35.363 -21.569 -17.581  0.00  0.00    +0.000 C 
ATOM      8  C   UNL     1      34.330 -22.218 -16.904  0.00  0.00    +0.005 C 
ATOM      9  C   UNL     1      36.665 -21.627 -17.086  0.00  0.00    +0.000 C 
ATOM     10  C   UNL     1      34.599 -22.924 -15.731  0.00  0.00    +0.053 C 
ATOM     11  C   UNL     1      36.935 -22.333 -15.913  0.00  0.00    +0.000 C 
ATOM     12  C   UNL     1      35.902 -22.982 -15.236  0.00  0.00    +0.005 C 
BRANCH  10  15
ATOM     13  O   UNL     1      32.330 -23.360 -15.276  0.00  0.00    -0.270 OA
ATOM     14  N   UNL     1      33.874 -24.549 -14.068  0.00  0.00    -0.325 N 
ATOM     15  C   UNL     1      33.524 -23.602 -15.026  0.00  0.00    +0.243 C 
ATOM     16  H   UNL     1      33.172 -25.028 -13.570  0.00  0.00    +0.145 HD
ATOM     17  H   UNL     1      34.822 -24.741 -13.888  0.00  0.00    +0.145 HD
ENDBRANCH  10  15
ENDBRANCH   4   7
BRANCH   1  18
ATOM     18  C   UNL     1      34.254 -18.667 -22.392  0.00  0.00    -0.038 C 
BRANCH  18  19
ATOM     19  N   UNL     1      34.285 -19.539 -23.586  0.00  0.00    +0.384 N 
ATOM     20  H   UNL     1      33.427 -19.411 -24.124  0.00  0.00    -0.089 HD
ATOM     21  H   UNL     1      34.360 -20.514 -23.293  0.00  0.00    -0.089 HD
ATOM     22  H   UNL     1      35.088 -19.296 -24.166  0.00  0.00    -0.089 HD
ENDBRANCH  18  19
BRANCH  18  23
ATOM     23  C   UNL     1      35.211 -17.467 -22.650  0.00  0.00    +0.011 C 
BRANCH  23  26
ATOM     24  F   UNL     1      34.534 -15.634 -20.594  0.00  0.00    -0.205 F 
ATOM     25  F   UNL     1      33.039 -14.320 -25.688  0.00  0.00    -0.204 F 
ATOM     26  C   UNL     1      34.471 -16.173 -22.905  0.00  0.00    +0.006 C 
ATOM     27  C   UNL     1      34.171 -15.318 -21.845  0.00  0.00    +0.136 C 
ATOM     28  C   UNL     1      34.089 -15.837 -24.203  0.00  0.00    +0.028 C 
ATOM     29  C   UNL     1      33.406 -14.644 -24.442  0.00  0.00    +0.140 C 
ATOM     30  C   UNL     1      33.488 -14.125 -22.084  0.00  0.00    +0.032 C 
ATOM     31  C   UNL     1      33.106 -13.788 -23.382  0.00  0.00    +0.032 C 
ENDBRANCH  23  26
ENDBRANCH  18  23
ENDBRANCH   1  18
TORSDOF 6
ENDMDL
MODEL 5
REMARK VINA RESULT:     -12.6      2.439      3.063
REMARK  Name = 24832041
REMARK  6 active torsions:
REMARK  status: ('A' for Active; 'I' for Inactive)
REMARK    1  A    between atoms: C_1  and  C_18
REMARK    2  A    between atoms: C_4  and  C_7
REMARK    3  A    between atoms: C_10  and  C_15
REMARK    4  A    between atoms: C_18  and  N_19
REMARK    5  A    between atoms: C_18  and  C_23
REMARK    6  A    between atoms: C_23  and  C_26
REMARK                            x       y       z     vdW  Elec       q    Type
REMARK                         _______ _______ _______ _____ _____    ______ ____
ROOT
ATOM      1  C   UNL     1      33.901 -19.597 -21.117  0.00  0.00    -0.042 C 
ATOM      2  C   UNL     1      32.605 -19.823 -20.654  0.00  0.00    -0.006 C 
ATOM      3  C   UNL     1      34.989 -20.145 -20.437  0.00  0.00    -0.006 C 
ATOM      4  C   UNL     1      33.484 -21.143 -18.831  0.00  0.00    -0.000 C 
ATOM      5  C   UNL     1      32.396 -20.595 -19.512  0.00  0.00    -0.000 C 
ATOM      6  C   UNL     1      34.781 -20.917 -19.294  0.00  0.00    -0.000 C 
ENDROOT
BRANCH   4   7
ATOM      7  C   UNL     1      33.267 -21.944 -17.647  0.00  0.00    +0.000 C 
ATOM      8  C   UNL     1      31.968 -22.258 -17.246  0.00  0.00    +0.005 C 
ATOM      9  C   UNL     1      34.356 -22.403 -16.907  0.00  0.00    +0.000 C 
ATOM     10  C   UNL     1      31.759 -23.031 -16.103  0.00  0.00    +0.053 C 
ATOM     11  C   UNL     1      34.146 -23.176 -15.764  0.00  0.00    +0.000 C 
ATOM     12  C   UNL     1      32.848 -23.490 -15.362  0.00  0.00    +0.005 C 
BRANCH  10  15
ATOM     13  O   UNL     1      30.177 -24.321 -14.928  0.00  0.00    -0.270 OA
ATOM     14  N   UNL     1      29.370 -22.553 -16.147  0.00  0.00    -0.325 N 
ATOM     15  C   UNL     1      30.406 -23.361 -15.685  0.00  0.00    +0.243 C 
ATOM     16  H   UNL     1      28.441 -22.746 -15.885  0.00  0.00    +0.145 HD
ATOM     17  H   UNL     1      29.567 -21.788 -16.735  0.00  0.00    +0.145 HD
ENDBRANCH  10  15
ENDBRANCH   4   7
BRANCH   1  18
ATOM     18  C   UNL     1      34.124 -18.773 -22.339  0.00  0.00    -0.038 C 
BRANCH  18  19
ATOM     19  N   UNL     1      34.654 -19.577 -23.461  0.00  0.00    +0.384 N 
ATOM     20  H   UNL     1      33.929 -19.692 -24.169  0.00  0.00    -0.089 HD
ATOM     21  H   UNL     1      34.942 -20.494 -23.116  0.00  0.00    -0.089 HD
ATOM     22  H   UNL     1      35.457 -19.101 -23.872  0.00  0.00    -0.089 HD
ENDBRANCH  18  19
BRANCH  18  23
ATOM     23  C   UNL     1      35.076 -17.560 -22.126  0.00  0.00    +0.011 C 
BRANCH  23  26
ATOM     24  F   UNL     1      34.433 -15.515 -20.269  0.00  0.00    -0.205 F 
ATOM     25  F   UNL     1      33.300 -14.542 -25.530  0.00  0.00    -0.204 F 
ATOM     26  C   UNL     1      34.448 -16.245 -22.528  0.00  0.00    +0.006 C 
ATOM     27  C   UNL     1      34.159 -15.284 -21.560  0.00  0.00    +0.136 C 
ATOM     28  C   UNL     1      34.159 -15.995 -23.869  0.00  0.00    +0.028 C 
ATOM     29  C   UNL     1      33.579 -14.783 -24.243  0.00  0.00    +0.140 C 
ATOM     30  C   UNL     1      33.578 -14.071 -21.934  0.00  0.00    +0.032 C 
ATOM     31  C   UNL     1      33.289 -13.820 -23.275  0.00  0.00    +0.032 C 
ENDBRANCH  23  26
ENDBRANCH  18  23
ENDBRANCH   1  18
TORSDOF 6
ENDMDL
MODEL 6
REMARK VINA RESULT:     -12.5      4.069      9.353
REMARK  Name = 24832041
REMARK  6 active torsions:
REMARK  status: ('A' for Active; 'I' for Inactive)
REMARK    1  A    between atoms: C_1  and  C_18
REMARK    2  A    between atoms: C_4  and  C_7
REMARK    3  A    between atoms: C_10  and  C_15
REMARK    4  A    between atoms: C_18  and  N_19
REMARK    5  A    between atoms: C_18  and  C_23
REMARK    6  A    between atoms: C_23  and  C_26
REMARK                            x       y       z     vdW  Elec       q    Type
REMARK                         _______ _______ _______ _____ _____    ______ ____
ROOT
ATOM      1  C   UNL     1      34.177 -21.745 -18.288  0.00  0.00    -0.042 C 
ATOM      2  C   UNL     1      35.402 -21.267 -18.751  0.00  0.00    -0.006 C 
ATOM      3  C   UNL     1      32.989 -21.293 -18.863  0.00  0.00    -0.006 C 
ATOM      4  C   UNL     1      34.253 -19.883 -20.365  0.00  0.00    -0.000 C 
ATOM      5  C   UNL     1      35.441 -20.336 -19.790  0.00  0.00    -0.000 C 
ATOM      6  C   UNL     1      33.027 -20.362 -19.901  0.00  0.00    -0.000 C 
ENDROOT
BRANCH   4   7
ATOM      7  C   UNL     1      34.293 -18.920 -21.442  0.00  0.00    +0.000 C 
ATOM      8  C   UNL     1      34.259 -17.554 -21.157  0.00  0.00    +0.005 C 
ATOM      9  C   UNL     1      34.365 -19.354 -22.765  0.00  0.00    +0.000 C 
ATOM     10  C   UNL     1      34.297 -16.624 -22.196  0.00  0.00    +0.053 C 
ATOM     11  C   UNL     1      34.403 -18.424 -23.804  0.00  0.00    +0.000 C 
ATOM     12  C   UNL     1      34.369 -17.059 -23.520  0.00  0.00    +0.005 C 
BRANCH  10  15
ATOM     13  O   UNL     1      34.243 -14.781 -20.730  0.00  0.00    -0.270 OA
ATOM     14  N   UNL     1      34.275 -14.315 -22.975  0.00  0.00    -0.325 N 
ATOM     15  C   UNL     1      34.264 -15.200 -21.901  0.00  0.00    +0.243 C 
ATOM     16  H   UNL     1      34.252 -13.344 -22.814  0.00  0.00    +0.145 HD
ATOM     17  H   UNL     1      34.305 -14.660 -23.897  0.00  0.00    +0.145 HD
ENDBRANCH  10  15
ENDBRANCH   4   7
BRANCH   1  18
ATOM     18  C   UNL     1      34.135 -22.740 -17.179  0.00  0.00    -0.038 C 
BRANCH  18  19
ATOM     19  N   UNL     1      32.758 -23.197 -16.895  0.00  0.00    +0.384 N 
ATOM     20  H   UNL     1      32.426 -22.766 -16.032  0.00  0.00    -0.089 HD
ATOM     21  H   UNL     1      32.751 -24.213 -16.792  0.00  0.00    -0.089 HD
ATOM     22  H   UNL     1      32.145 -22.930 -17.665  0.00  0.00    -0.089 HD
ENDBRANCH  18  19
BRANCH  18  23
ATOM     23  C   UNL     1      34.758 -22.237 -15.844  0.00  0.00    +0.011 C 
BRANCH  23  26
ATOM     24  F   UNL     1      37.469 -21.436 -16.077  0.00  0.00    -0.205 F 
ATOM     25  F   UNL     1      36.504 -26.326 -13.823  0.00  0.00    -0.204 F 
ATOM     26  C   UNL     1      35.916 -23.091 -15.379  0.00  0.00    +0.006 C 
ATOM     27  C   UNL     1      37.225 -22.633 -15.525  0.00  0.00    +0.136 C 
ATOM     28  C   UNL     1      35.671 -24.337 -14.804  0.00  0.00    +0.028 C 
ATOM     29  C   UNL     1      36.737 -25.128 -14.375  0.00  0.00    +0.140 C 
ATOM     30  C   UNL     1      38.291 -23.424 -15.095  0.00  0.00    +0.032 C 
ATOM     31  C   UNL     1      38.048 -24.671 -14.520  0.00  0.00    +0.032 C 
ENDBRANCH  23  26
ENDBRANCH  18  23
ENDBRANCH   1  18
TORSDOF 6
ENDMDL
MODEL 7
REMARK VINA RESULT:     -12.2      4.414      9.416
REMARK  Name = 24832041
REMARK  6 active torsions:
REMARK  status: ('A' for Active; 'I' for Inactive)
REMARK    1  A    between atoms: C_1  and  C_18
REMARK    2  A    between atoms: C_4  and  C_7
REMARK    3  A    between atoms: C_10  and  C_15
REMARK    4  A    between atoms: C_18  and  N_19
REMARK    5  A    between atoms: C_18  and  C_23
REMARK    6  A    between atoms: C_23  and  C_26
REMARK                            x       y       z     vdW  Elec       q    Type
REMARK                         _______ _______ _______ _____ _____    ______ ____
ROOT
ATOM      1  C   UNL     1      33.474 -22.123 -17.923  0.00  0.00    -0.042 C 
ATOM      2  C   UNL     1      32.545 -21.435 -18.703  0.00  0.00    -0.006 C 
ATOM      3  C   UNL     1      34.839 -21.920 -18.123  0.00  0.00    -0.006 C 
ATOM      4  C   UNL     1      34.346 -20.340 -19.884  0.00  0.00    -0.000 C 
ATOM      5  C   UNL     1      32.980 -20.544 -19.683  0.00  0.00    -0.000 C 
ATOM      6  C   UNL     1      35.275 -21.029 -19.103  0.00  0.00    -0.000 C 
ENDROOT
BRANCH   4   7
ATOM      7  C   UNL     1      34.798 -19.416 -20.899  0.00  0.00    +0.000 C 
ATOM      8  C   UNL     1      33.952 -19.071 -21.954  0.00  0.00    +0.005 C 
ATOM      9  C   UNL     1      36.078 -18.869 -20.825  0.00  0.00    +0.000 C 
ATOM     10  C   UNL     1      34.387 -18.179 -22.935  0.00  0.00    +0.053 C 
ATOM     11  C   UNL     1      36.513 -17.977 -21.806  0.00  0.00    +0.000 C 
ATOM     12  C   UNL     1      35.669 -17.632 -22.860  0.00  0.00    +0.005 C 
BRANCH  10  15
ATOM     13  O   UNL     1      32.667 -18.618 -24.482  0.00  0.00    -0.270 OA
ATOM     14  N   UNL     1      33.619 -16.533 -24.558  0.00  0.00    -0.325 N 
ATOM     15  C   UNL     1      33.506 -17.817 -24.033  0.00  0.00    +0.243 C 
ATOM     16  H   UNL     1      33.040 -16.253 -25.303  0.00  0.00    +0.145 HD
ATOM     17  H   UNL     1      34.279 -15.905 -24.185  0.00  0.00    +0.145 HD
ENDBRANCH  10  15
ENDBRANCH   4   7
BRANCH   1  18
ATOM     18  C   UNL     1      33.009 -23.076 -16.874  0.00  0.00    -0.038 C 
BRANCH  18  19
ATOM     19  N   UNL     1      31.533 -23.154 -16.811  0.00  0.00    +0.384 N 
ATOM     20  H   UNL     1      31.196 -23.801 -17.524  0.00  0.00    -0.089 HD
ATOM     21  H   UNL     1      31.136 -22.228 -16.977  0.00  0.00    -0.089 HD
ATOM     22  H   UNL     1      31.249 -23.485 -15.890  0.00  0.00    -0.089 HD
ENDBRANCH  18  19
BRANCH  18  23
ATOM     23  C   UNL     1      33.534 -22.758 -15.444  0.00  0.00    +0.011 C 
BRANCH  23  26
ATOM     24  F   UNL     1      35.991 -21.361 -15.210  0.00  0.00    -0.205 F 
ATOM     25  F   UNL     1      36.137 -26.782 -14.502  0.00  0.00    -0.204 F 
ATOM     26  C   UNL     1      34.848 -23.440 -15.138  0.00  0.00    +0.006 C 
ATOM     27  C   UNL     1      36.019 -22.690 -15.037  0.00  0.00    +0.136 C 
ATOM     28  C   UNL     1      34.887 -24.823 -14.957  0.00  0.00    +0.028 C 
ATOM     29  C   UNL     1      36.098 -25.455 -14.675  0.00  0.00    +0.140 C 
ATOM     30  C   UNL     1      37.230 -23.322 -14.756  0.00  0.00    +0.032 C 
ATOM     31  C   UNL     1      37.270 -24.704 -14.574  0.00  0.00    +0.032 C 
ENDBRANCH  23  26
ENDBRANCH  18  23
ENDBRANCH   1  18
TORSDOF 6
ENDMDL
MODEL 8
REMARK VINA RESULT:     -12.0      3.701      6.245
REMARK  Name = 24832041
REMARK  6 active torsions:
REMARK  status: ('A' for Active; 'I' for Inactive)
REMARK    1  A    between atoms: C_1  and  C_18
REMARK    2  A    between atoms: C_4  and  C_7
REMARK    3  A    between atoms: C_10  and  C_15
REMARK    4  A    between atoms: C_18  and  N_19
REMARK    5  A    between atoms: C_18  and  C_23
REMARK    6  A    between atoms: C_23  and  C_26
REMARK                            x       y       z     vdW  Elec       q    Type
REMARK                         _______ _______ _______ _____ _____    ______ ____
ROOT
ATOM      1  C   UNL     1      33.293 -14.165 -23.421  0.00  0.00    -0.042 C 
ATOM      2  C   UNL     1      33.594 -14.155 -22.060  0.00  0.00    -0.006 C 
ATOM      3  C   UNL     1      33.500 -15.322 -24.173  0.00  0.00    -0.006 C 
ATOM      4  C   UNL     1      34.312 -16.458 -22.200  0.00  0.00    -0.000 C 
ATOM      5  C   UNL     1      34.103 -15.301 -21.449  0.00  0.00    -0.000 C 
ATOM      6  C   UNL     1      34.010 -16.467 -23.563  0.00  0.00    -0.000 C 
ENDROOT
BRANCH   4   7
ATOM      7  C   UNL     1      34.839 -17.646 -21.567  0.00  0.00    +0.000 C 
ATOM      8  C   UNL     1      33.970 -18.579 -21.001  0.00  0.00    +0.005 C 
ATOM      9  C   UNL     1      36.216 -17.859 -21.521  0.00  0.00    +0.000 C 
ATOM     10  C   UNL     1      34.478 -19.725 -20.390  0.00  0.00    +0.053 C 
ATOM     11  C   UNL     1      36.725 -19.005 -20.910  0.00  0.00    +0.000 C 
ATOM     12  C   UNL     1      35.857 -19.938 -20.344  0.00  0.00    +0.005 C 
BRANCH  10  15
ATOM     13  O   UNL     1      34.000 -21.719 -19.232  0.00  0.00    -0.270 OA
ATOM     14  N   UNL     1      32.207 -20.446 -19.883  0.00  0.00    -0.325 N 
ATOM     15  C   UNL     1      33.573 -20.700 -19.802  0.00  0.00    +0.243 C 
ATOM     16  H   UNL     1      31.564 -21.084 -19.497  0.00  0.00    +0.145 HD
ATOM     17  H   UNL     1      31.883 -19.629 -20.326  0.00  0.00    +0.145 HD
ENDBRANCH  10  15
ENDBRANCH   4   7
BRANCH   1  18
ATOM     18  C   UNL     1      32.747 -12.941 -24.074  0.00  0.00    -0.038 C 
BRANCH  18  19
ATOM     19  N   UNL     1      32.667 -13.085 -25.544  0.00  0.00    +0.384 N 
ATOM     20  H   UNL     1      32.413 -12.189 -25.961  0.00  0.00    -0.089 HD
ATOM     21  H   UNL     1      31.960 -13.783 -25.779  0.00  0.00    -0.089 HD
ATOM     22  H   UNL     1      33.572 -13.383 -25.906  0.00  0.00    -0.089 HD
ENDBRANCH  18  19
BRANCH  18  23
ATOM     23  C   UNL     1      33.543 -11.640 -23.762  0.00  0.00    +0.011 C 
BRANCH  23  26
ATOM     24  F   UNL     1      34.161  -8.872 -23.771  0.00  0.00    -0.205 F 
ATOM     25  F   UNL     1      29.727 -10.421 -20.968  0.00  0.00    -0.204 F 
ATOM     26  C   UNL     1      32.713 -10.605 -23.039  0.00  0.00    +0.006 C 
ATOM     27  C   UNL     1      33.076  -9.259 -23.087  0.00  0.00    +0.136 C 
ATOM     28  C   UNL     1      31.582 -10.998 -22.324  0.00  0.00    +0.028 C 
ATOM     29  C   UNL     1      30.813 -10.045 -21.655  0.00  0.00    +0.140 C 
ATOM     30  C   UNL     1      32.307  -8.306 -22.418  0.00  0.00    +0.032 C 
ATOM     31  C   UNL     1      31.176  -8.698 -21.703  0.00  0.00    +0.032 C 
ENDBRANCH  23  26
ENDBRANCH  18  23
ENDBRANCH   1  18
TORSDOF 6
ENDMDL
MODEL 9
REMARK VINA RESULT:     -11.8      2.401      3.905
REMARK  Name = 24832041
REMARK  6 active torsions:
REMARK  status: ('A' for Active; 'I' for Inactive)
REMARK    1  A    between atoms: C_1  and  C_18
REMARK    2  A    between atoms: C_4  and  C_7
REMARK    3  A    between atoms: C_10  and  C_15
REMARK    4  A    between atoms: C_18  and  N_19
REMARK    5  A    between atoms: C_18  and  C_23
REMARK    6  A    between atoms: C_23  and  C_26
REMARK                            x       y       z     vdW  Elec       q    Type
REMARK                         _______ _______ _______ _____ _____    ______ ____
ROOT
ATOM      1  C   UNL     1      34.530 -21.447 -18.141  0.00  0.00    -0.042 C 
ATOM      2  C   UNL     1      35.889 -21.225 -17.924  0.00  0.00    -0.006 C 
ATOM      3  C   UNL     1      33.800 -22.233 -17.248  0.00  0.00    -0.006 C 
ATOM      4  C   UNL     1      35.791 -22.574 -15.921  0.00  0.00    -0.000 C 
ATOM      5  C   UNL     1      36.520 -21.788 -16.814  0.00  0.00    -0.000 C 
ATOM      6  C   UNL     1      34.430 -22.796 -16.139  0.00  0.00    -0.000 C 
ENDROOT
BRANCH   4   7
ATOM      7  C   UNL     1      36.444 -23.157 -14.771  0.00  0.00    +0.000 C 
ATOM      8  C   UNL     1      37.736 -23.671 -14.889  0.00  0.00    +0.005 C 
ATOM      9  C   UNL     1      35.784 -23.207 -13.544  0.00  0.00    +0.000 C 
ATOM     10  C   UNL     1      38.367 -24.234 -13.780  0.00  0.00    +0.053 C 
ATOM     11  C   UNL     1      36.414 -23.770 -12.435  0.00  0.00    +0.000 C 
ATOM     12  C   UNL     1      37.706 -24.283 -12.552  0.00  0.00    +0.005 C 
BRANCH  10  15
ATOM     13  O   UNL     1      40.680 -24.034 -14.178  0.00  0.00    -0.270 OA
ATOM     14  N   UNL     1      39.894 -26.129 -13.678  0.00  0.00    -0.325 N 
ATOM     15  C   UNL     1      39.714 -24.767 -13.901  0.00  0.00    +0.243 C 
ATOM     16  H   UNL     1      40.792 -26.526 -13.752  0.00  0.00    +0.145 HD
ATOM     17  H   UNL     1      39.124 -26.696 -13.446  0.00  0.00    +0.145 HD
ENDBRANCH  10  15
ENDBRANCH   4   7
BRANCH   1  18
ATOM     18  C   UNL     1      33.855 -20.845 -19.326  0.00  0.00    -0.038 C 
BRANCH  18  19
ATOM     19  N   UNL     1      32.524 -21.442 -19.570  0.00  0.00    +0.384 N 
ATOM     20  H   UNL     1      32.016 -21.514 -18.687  0.00  0.00    -0.089 HD
ATOM     21  H   UNL     1      32.638 -22.373 -19.973  0.00  0.00    -0.089 HD
ATOM     22  H   UNL     1      31.999 -20.854 -20.216  0.00  0.00    -0.089 HD
ENDBRANCH  18  19
BRANCH  18  23
ATOM     23  C   UNL     1      34.673 -20.941 -20.646  0.00  0.00    +0.011 C 
BRANCH  23  26
ATOM     24  F   UNL     1      36.607 -18.977 -19.978  0.00  0.00    -0.205 F 
ATOM     25  F   UNL     1      33.178 -17.799 -24.073  0.00  0.00    -0.204 F 
ATOM     26  C   UNL     1      34.787 -19.615 -21.363  0.00  0.00    +0.006 C 
ATOM     27  C   UNL     1      35.764 -18.695 -20.981  0.00  0.00    +0.136 C 
ATOM     28  C   UNL     1      33.914 -19.313 -22.407  0.00  0.00    +0.028 C 
ATOM     29  C   UNL     1      34.016 -18.090 -23.070  0.00  0.00    +0.140 C 
ATOM     30  C   UNL     1      35.866 -17.472 -21.644  0.00  0.00    +0.032 C 
ATOM     31  C   UNL     1      34.993 -17.169 -22.689  0.00  0.00    +0.032 C 
ENDBRANCH  23  26
ENDBRANCH  18  23
ENDBRANCH   1  18
TORSDOF 6
ENDMDL
