MODEL 1
REMARK VINA RESULT:     -13.2      0.000      0.000
REMARK  Name = 24941254
REMARK  6 active torsions:
REMARK  status: ('A' for Active; 'I' for Inactive)
REMARK    1  A    between atoms: C_1  and  S_21
REMARK    2  A    between atoms: C_4  and  C_9
REMARK    3  A    between atoms: N_8  and  C_11
REMARK    4  A    between atoms: C_12  and  C_18
REMARK    5  A    between atoms: C_18  and  O_19
REMARK    6  A    between atoms: S_21  and  N_24
REMARK                            x       y       z     vdW  Elec       q    Type
REMARK                         _______ _______ _______ _____ _____    ______ ____
ROOT
ATOM      1  C   UNL     1      32.056 -11.220 -21.807  0.00  0.00    +0.122 C 
ATOM      2  C   UNL     1      32.490 -12.454 -21.321  0.00  0.00    +0.024 C 
ATOM      3  C   UNL     1      32.447 -10.795 -23.077  0.00  0.00    +0.020 C 
ATOM      4  C   UNL     1      33.315 -13.261 -22.105  0.00  0.00    +0.055 C 
ATOM      5  C   UNL     1      33.272 -11.602 -23.860  0.00  0.00    +0.002 C 
ATOM      6  C   UNL     1      33.705 -12.836 -23.373  0.00  0.00    +0.005 C 
ENDROOT
BRANCH   4   9
ATOM      7  O   UNL     1      33.855 -14.716 -20.372  0.00  0.00    -0.270 OA
ATOM      8  N   UNL     1      34.048 -15.522 -22.566  0.00  0.00    -0.280 N 
ATOM      9  C   UNL     1      33.767 -14.547 -21.598  0.00  0.00    +0.250 C 
ATOM     10  H   UNL     1      33.932 -15.241 -23.502  0.00  0.00    +0.155 HD
BRANCH   8  11
ATOM     11  C   UNL     1      34.477 -16.858 -22.374  0.00  0.00    +0.057 C 
ATOM     12  C   UNL     1      34.168 -17.852 -23.303  0.00  0.00    +0.089 C 
ATOM     13  C   UNL     1      35.218 -17.173 -21.235  0.00  0.00    +0.015 C 
ATOM     14  C   UNL     1      34.601 -19.162 -23.092  0.00  0.00    +0.008 C 
ATOM     15  C   UNL     1      35.649 -18.483 -21.024  0.00  0.00    +0.001 C 
ATOM     16  C   UNL     1      35.341 -19.476 -21.953  0.00  0.00    +0.000 C 
BRANCH  12  18
ATOM     17  O   UNL     1      32.404 -18.183 -24.884  0.00  0.00    -0.245 OA
ATOM     18  C   UNL     1      33.396 -17.557 -24.504  0.00  0.00    +0.339 C 
BRANCH  18  19
ATOM     19  O   UNL     1      33.891 -16.490 -25.187  0.00  0.00    -0.477 OA
ATOM     20  H   UNL     1      34.454 -16.626 -25.923  0.00  0.00    +0.295 HD
ENDBRANCH  18  19
ENDBRANCH  12  18
ENDBRANCH   8  11
ENDBRANCH   4   9
BRANCH   1  21
ATOM     21  S   UNL     1      31.014 -10.196 -20.816  0.00  0.00    +0.064 S 
ATOM     22  O   UNL     1      29.645 -10.428 -21.228  0.00  0.00    -0.153 OA
ATOM     23  O   UNL     1      31.413 -10.361 -19.434  0.00  0.00    -0.153 OA
BRANCH  21  24
ATOM     24  N   UNL     1      31.509  -8.650 -21.358  0.00  0.00    -0.151 NA
ATOM     25  C   UNL     1      31.837  -7.663 -20.294  0.00  0.00    +0.101 C 
ATOM     26  C   UNL     1      30.668  -8.049 -22.437  0.00  0.00    +0.122 C 
ATOM     27  C   UNL     1      32.697  -6.558 -20.900  0.00  0.00    +0.045 C 
ATOM     28  C   UNL     1      31.126  -6.680 -22.881  0.00  0.00    -0.008 C 
ATOM     29  C   UNL     1      32.068  -5.955 -22.130  0.00  0.00    -0.023 C 
ATOM     30  C   UNL     1      30.574  -6.107 -24.034  0.00  0.00    -0.003 C 
ATOM     31  C   UNL     1      32.468  -4.684 -22.565  0.00  0.00    -0.004 C 
ATOM     32  C   UNL     1      30.970  -4.837 -24.452  0.00  0.00    -0.000 C 
ATOM     33  C   UNL     1      31.918  -4.127 -23.719  0.00  0.00    -0.000 C 
ENDBRANCH  21  24
ENDBRANCH   1  21
TORSDOF 6
ENDMDL
MODEL 2
REMARK VINA RESULT:     -13.0      5.613      9.325
REMARK  Name = 24941254
REMARK  6 active torsions:
REMARK  status: ('A' for Active; 'I' for Inactive)
REMARK    1  A    between atoms: C_1  and  S_21
REMARK    2  A    between atoms: C_4  and  C_9
REMARK    3  A    between atoms: N_8  and  C_11
REMARK    4  A    between atoms: C_12  and  C_18
REMARK    5  A    between atoms: C_18  and  O_19
REMARK    6  A    between atoms: S_21  and  N_24
REMARK                            x       y       z     vdW  Elec       q    Type
REMARK                         _______ _______ _______ _____ _____    ______ ____
ROOT
ATOM      1  C   UNL     1      34.266 -19.541 -20.614  0.00  0.00    +0.122 C 
ATOM      2  C   UNL     1      34.502 -20.535 -19.664  0.00  0.00    +0.024 C 
ATOM      3  C   UNL     1      32.966 -19.293 -21.055  0.00  0.00    +0.020 C 
ATOM      4  C   UNL     1      33.438 -21.281 -19.157  0.00  0.00    +0.055 C 
ATOM      5  C   UNL     1      31.902 -20.039 -20.547  0.00  0.00    +0.002 C 
ATOM      6  C   UNL     1      32.139 -21.034 -19.598  0.00  0.00    +0.005 C 
ENDROOT
BRANCH   4   9
ATOM      7  O   UNL     1      33.388 -23.493 -18.436  0.00  0.00    -0.270 OA
ATOM      8  N   UNL     1      34.273 -21.892 -16.967  0.00  0.00    -0.280 N 
ATOM      9  C   UNL     1      33.684 -22.318 -18.166  0.00  0.00    +0.250 C 
ATOM     10  H   UNL     1      34.450 -20.926 -16.898  0.00  0.00    +0.155 HD
BRANCH   8  11
ATOM     11  C   UNL     1      34.648 -22.668 -15.844  0.00  0.00    +0.057 C 
ATOM     12  C   UNL     1      35.972 -22.703 -15.405  0.00  0.00    +0.089 C 
ATOM     13  C   UNL     1      33.671 -23.406 -15.175  0.00  0.00    +0.015 C 
ATOM     14  C   UNL     1      36.317 -23.476 -14.295  0.00  0.00    +0.008 C 
ATOM     15  C   UNL     1      34.018 -24.179 -14.067  0.00  0.00    +0.001 C 
ATOM     16  C   UNL     1      35.340 -24.214 -13.627  0.00  0.00    +0.000 C 
BRANCH  12  18
ATOM     17  O   UNL     1      36.855 -20.867 -16.657  0.00  0.00    -0.245 OA
ATOM     18  C   UNL     1      37.017 -21.945 -16.080  0.00  0.00    +0.339 C 
BRANCH  18  19
ATOM     19  O   UNL     1      38.228 -22.560 -16.011  0.00  0.00    -0.477 OA
ATOM     20  H   UNL     1      38.505 -23.129 -16.702  0.00  0.00    +0.295 HD
ENDBRANCH  18  19
ENDBRANCH  12  18
ENDBRANCH   8  11
ENDBRANCH   4   9
BRANCH   1  21
ATOM     21  S   UNL     1      35.611 -18.597 -21.259  0.00  0.00    +0.064 S 
ATOM     22  O   UNL     1      36.461 -18.222 -20.148  0.00  0.00    -0.153 OA
ATOM     23  O   UNL     1      36.148 -19.309 -22.399  0.00  0.00    -0.153 OA
BRANCH  21  24
ATOM     24  N   UNL     1      34.769 -17.214 -21.813  0.00  0.00    -0.151 NA
ATOM     25  C   UNL     1      35.215 -16.663 -23.120  0.00  0.00    +0.101 C 
ATOM     26  C   UNL     1      34.562 -16.139 -20.795  0.00  0.00    +0.122 C 
ATOM     27  C   UNL     1      34.102 -15.787 -23.688  0.00  0.00    +0.045 C 
ATOM     28  C   UNL     1      33.828 -14.929 -21.323  0.00  0.00    -0.008 C 
ATOM     29  C   UNL     1      33.638 -14.744 -22.704  0.00  0.00    -0.023 C 
ATOM     30  C   UNL     1      33.366 -13.957 -20.426  0.00  0.00    -0.003 C 
ATOM     31  C   UNL     1      32.958 -13.607 -23.161  0.00  0.00    -0.004 C 
ATOM     32  C   UNL     1      32.701 -12.823 -20.893  0.00  0.00    -0.000 C 
ATOM     33  C   UNL     1      32.496 -12.650 -22.259  0.00  0.00    -0.000 C 
ENDBRANCH  21  24
ENDBRANCH   1  21
TORSDOF 6
ENDMDL
MODEL 3
REMARK VINA RESULT:     -12.5      5.423     12.204
REMARK  Name = 24941254
REMARK  6 active torsions:
REMARK  status: ('A' for Active; 'I' for Inactive)
REMARK    1  A    between atoms: C_1  and  S_21
REMARK    2  A    between atoms: C_4  and  C_9
REMARK    3  A    between atoms: N_8  and  C_11
REMARK    4  A    between atoms: C_12  and  C_18
REMARK    5  A    between atoms: C_18  and  O_19
REMARK    6  A    between atoms: S_21  and  N_24
REMARK                            x       y       z     vdW  Elec       q    Type
REMARK                         _______ _______ _______ _____ _____    ______ ____
ROOT
ATOM      1  C   UNL     1      34.415 -20.658 -19.778  0.00  0.00    +0.122 C 
ATOM      2  C   UNL     1      33.881 -19.828 -20.764  0.00  0.00    +0.024 C 
ATOM      3  C   UNL     1      35.750 -20.515 -19.396  0.00  0.00    +0.020 C 
ATOM      4  C   UNL     1      34.680 -18.858 -21.368  0.00  0.00    +0.055 C 
ATOM      5  C   UNL     1      36.549 -19.544 -19.999  0.00  0.00    +0.002 C 
ATOM      6  C   UNL     1      36.013 -18.715 -20.986  0.00  0.00    +0.005 C 
ENDROOT
BRANCH   4   9
ATOM      7  O   UNL     1      33.502 -18.503 -23.342  0.00  0.00    -0.270 OA
ATOM      8  N   UNL     1      34.319 -16.617 -22.211  0.00  0.00    -0.280 N 
ATOM      9  C   UNL     1      34.123 -17.993 -22.396  0.00  0.00    +0.250 C 
ATOM     10  H   UNL     1      34.832 -16.362 -21.411  0.00  0.00    +0.155 HD
BRANCH   8  11
ATOM     11  C   UNL     1      33.874 -15.545 -23.023  0.00  0.00    +0.057 C 
ATOM     12  C   UNL     1      33.426 -14.352 -22.456  0.00  0.00    +0.089 C 
ATOM     13  C   UNL     1      33.887 -15.697 -24.409  0.00  0.00    +0.015 C 
ATOM     14  C   UNL     1      32.993 -13.310 -23.277  0.00  0.00    +0.008 C 
ATOM     15  C   UNL     1      33.452 -14.656 -25.229  0.00  0.00    +0.001 C 
ATOM     16  C   UNL     1      33.005 -13.463 -24.663  0.00  0.00    +0.000 C 
BRANCH  12  18
ATOM     17  O   UNL     1      34.175 -14.684 -20.209  0.00  0.00    -0.245 OA
ATOM     18  C   UNL     1      33.400 -14.160 -21.011  0.00  0.00    +0.339 C 
BRANCH  18  19
ATOM     19  O   UNL     1      32.404 -13.319 -20.620  0.00  0.00    -0.477 OA
ATOM     20  H   UNL     1      32.031 -13.401 -19.765  0.00  0.00    +0.295 HD
ENDBRANCH  18  19
ENDBRANCH  12  18
ENDBRANCH   8  11
ENDBRANCH   4   9
BRANCH   1  21
ATOM     21  S   UNL     1      33.406 -21.888 -19.015  0.00  0.00    +0.064 S 
ATOM     22  O   UNL     1      32.074 -21.340 -18.870  0.00  0.00    -0.153 OA
ATOM     23  O   UNL     1      33.625 -23.139 -19.712  0.00  0.00    -0.153 OA
BRANCH  21  24
ATOM     24  N   UNL     1      34.148 -21.972 -17.474  0.00  0.00    -0.151 NA
ATOM     25  C   UNL     1      35.630 -22.099 -17.474  0.00  0.00    +0.101 C 
ATOM     26  C   UNL     1      33.507 -22.910 -16.504  0.00  0.00    +0.122 C 
ATOM     27  C   UNL     1      36.157 -21.677 -16.106  0.00  0.00    +0.045 C 
ATOM     28  C   UNL     1      34.196 -22.968 -15.161  0.00  0.00    -0.008 C 
ATOM     29  C   UNL     1      35.473 -22.410 -14.980  0.00  0.00    -0.023 C 
ATOM     30  C   UNL     1      33.570 -23.623 -14.092  0.00  0.00    -0.003 C 
ATOM     31  C   UNL     1      36.088 -22.486 -13.723  0.00  0.00    -0.004 C 
ATOM     32  C   UNL     1      34.196 -23.704 -12.848  0.00  0.00    -0.000 C 
ATOM     33  C   UNL     1      35.453 -23.134 -12.664  0.00  0.00    -0.000 C 
ENDBRANCH  21  24
ENDBRANCH   1  21
TORSDOF 6
ENDMDL
MODEL 4
REMARK VINA RESULT:     -12.3      9.882     14.206
REMARK  Name = 24941254
REMARK  6 active torsions:
REMARK  status: ('A' for Active; 'I' for Inactive)
REMARK    1  A    between atoms: C_1  and  S_21
REMARK    2  A    between atoms: C_4  and  C_9
REMARK    3  A    between atoms: N_8  and  C_11
REMARK    4  A    between atoms: C_12  and  C_18
REMARK    5  A    between atoms: C_18  and  O_19
REMARK    6  A    between atoms: S_21  and  N_24
REMARK                            x       y       z     vdW  Elec       q    Type
REMARK                         _______ _______ _______ _____ _____    ______ ____
ROOT
ATOM      1  C   UNL     1      36.294 -23.396 -14.071  0.00  0.00    +0.122 C 
ATOM      2  C   UNL     1      35.979 -22.421 -15.017  0.00  0.00    +0.024 C 
ATOM      3  C   UNL     1      37.533 -24.037 -14.117  0.00  0.00    +0.020 C 
ATOM      4  C   UNL     1      36.902 -22.087 -16.009  0.00  0.00    +0.055 C 
ATOM      5  C   UNL     1      38.455 -23.703 -15.108  0.00  0.00    +0.002 C 
ATOM      6  C   UNL     1      38.139 -22.728 -16.054  0.00  0.00    +0.005 C 
ENDROOT
BRANCH   4   9
ATOM      7  O   UNL     1      37.062 -19.935 -16.877  0.00  0.00    -0.270 OA
ATOM      8  N   UNL     1      35.729 -21.477 -18.037  0.00  0.00    -0.280 N 
ATOM      9  C   UNL     1      36.573 -21.070 -16.995  0.00  0.00    +0.250 C 
ATOM     10  H   UNL     1      35.420 -22.411 -17.997  0.00  0.00    +0.155 HD
BRANCH   8  11
ATOM     11  C   UNL     1      35.264 -20.723 -19.142  0.00  0.00    +0.057 C 
ATOM     12  C   UNL     1      33.948 -20.843 -19.591  0.00  0.00    +0.089 C 
ATOM     13  C   UNL     1      36.142 -19.850 -19.782  0.00  0.00    +0.015 C 
ATOM     14  C   UNL     1      33.513 -20.089 -20.681  0.00  0.00    +0.008 C 
ATOM     15  C   UNL     1      35.707 -19.097 -20.873  0.00  0.00    +0.001 C 
ATOM     16  C   UNL     1      34.392 -19.217 -21.322  0.00  0.00    +0.000 C 
BRANCH  12  18
ATOM     17  O   UNL     1      31.900 -21.422 -18.500  0.00  0.00    -0.245 OA
ATOM     18  C   UNL     1      33.004 -21.746 -18.945  0.00  0.00    +0.339 C 
BRANCH  18  19
ATOM     19  O   UNL     1      33.472 -23.021 -18.877  0.00  0.00    -0.477 OA
ATOM     20  H   UNL     1      34.298 -23.238 -19.262  0.00  0.00    +0.295 HD
ENDBRANCH  18  19
ENDBRANCH  12  18
ENDBRANCH   8  11
ENDBRANCH   4   9
BRANCH   1  21
ATOM     21  S   UNL     1      35.127 -23.821 -12.817  0.00  0.00    +0.064 S 
ATOM     22  O   UNL     1      35.379 -25.192 -12.424  0.00  0.00    -0.153 OA
ATOM     23  O   UNL     1      35.119 -22.755 -11.836  0.00  0.00    -0.153 OA
BRANCH  21  24
ATOM     24  N   UNL     1      33.676 -23.755 -13.723  0.00  0.00    -0.151 NA
ATOM     25  C   UNL     1      33.378 -22.452 -14.376  0.00  0.00    +0.101 C 
ATOM     26  C   UNL     1      32.472 -24.330 -13.049  0.00  0.00    +0.122 C 
ATOM     27  C   UNL     1      32.369 -22.687 -15.497  0.00  0.00    +0.045 C 
ATOM     28  C   UNL     1      31.209 -24.242 -13.871  0.00  0.00    -0.008 C 
ATOM     29  C   UNL     1      31.149 -23.433 -15.019  0.00  0.00    -0.023 C 
ATOM     30  C   UNL     1      30.068 -24.945 -13.461  0.00  0.00    -0.003 C 
ATOM     31  C   UNL     1      29.959 -23.368 -15.757  0.00  0.00    -0.004 C 
ATOM     32  C   UNL     1      28.885 -24.864 -14.196  0.00  0.00    -0.000 C 
ATOM     33  C   UNL     1      28.832 -24.078 -15.344  0.00  0.00    -0.000 C 
ENDBRANCH  21  24
ENDBRANCH   1  21
TORSDOF 6
ENDMDL
MODEL 5
REMARK VINA RESULT:     -12.2      5.757      9.359
REMARK  Name = 24941254
REMARK  6 active torsions:
REMARK  status: ('A' for Active; 'I' for Inactive)
REMARK    1  A    between atoms: C_1  and  S_21
REMARK    2  A    between atoms: C_4  and  C_9
REMARK    3  A    between atoms: N_8  and  C_11
REMARK    4  A    between atoms: C_12  and  C_18
REMARK    5  A    between atoms: C_18  and  O_19
REMARK    6  A    between atoms: S_21  and  N_24
REMARK                            x       y       z     vdW  Elec       q    Type
REMARK                         _______ _______ _______ _____ _____    ______ ____
ROOT
ATOM      1  C   UNL     1      34.267 -19.514 -20.630  0.00  0.00    +0.122 C 
ATOM      2  C   UNL     1      34.511 -20.513 -19.687  0.00  0.00    +0.024 C 
ATOM      3  C   UNL     1      32.961 -19.257 -21.049  0.00  0.00    +0.020 C 
ATOM      4  C   UNL     1      33.451 -21.253 -19.164  0.00  0.00    +0.055 C 
ATOM      5  C   UNL     1      31.901 -19.997 -20.526  0.00  0.00    +0.002 C 
ATOM      6  C   UNL     1      32.147 -20.996 -19.583  0.00  0.00    +0.005 C 
ENDROOT
BRANCH   4   9
ATOM      7  O   UNL     1      33.420 -23.470 -18.458  0.00  0.00    -0.270 OA
ATOM      8  N   UNL     1      34.294 -21.871 -16.980  0.00  0.00    -0.280 N 
ATOM      9  C   UNL     1      33.707 -22.294 -18.181  0.00  0.00    +0.250 C 
ATOM     10  H   UNL     1      34.464 -20.905 -16.904  0.00  0.00    +0.155 HD
BRANCH   8  11
ATOM     11  C   UNL     1      34.677 -22.652 -15.863  0.00  0.00    +0.057 C 
ATOM     12  C   UNL     1      33.731 -23.098 -14.939  0.00  0.00    +0.089 C 
ATOM     13  C   UNL     1      36.024 -22.974 -15.692  0.00  0.00    +0.015 C 
ATOM     14  C   UNL     1      34.133 -23.867 -13.846  0.00  0.00    +0.008 C 
ATOM     15  C   UNL     1      36.425 -23.741 -14.598  0.00  0.00    +0.001 C 
ATOM     16  C   UNL     1      35.480 -24.187 -13.676  0.00  0.00    +0.000 C 
BRANCH  12  18
ATOM     17  O   UNL     1      31.561 -23.271 -15.929  0.00  0.00    -0.245 OA
ATOM     18  C   UNL     1      32.316 -22.781 -15.087  0.00  0.00    +0.339 C 
BRANCH  18  19
ATOM     19  O   UNL     1      31.895 -21.861 -14.178  0.00  0.00    -0.477 OA
ATOM     20  H   UNL     1      32.412 -21.685 -13.417  0.00  0.00    +0.295 HD
ENDBRANCH  18  19
ENDBRANCH  12  18
ENDBRANCH   8  11
ENDBRANCH   4   9
BRANCH   1  21
ATOM     21  S   UNL     1      35.607 -18.577 -21.294  0.00  0.00    +0.064 S 
ATOM     22  O   UNL     1      36.477 -18.211 -20.197  0.00  0.00    -0.153 OA
ATOM     23  O   UNL     1      36.121 -19.290 -22.446  0.00  0.00    -0.153 OA
BRANCH  21  24
ATOM     24  N   UNL     1      34.765 -17.187 -21.831  0.00  0.00    -0.151 NA
ATOM     25  C   UNL     1      35.253 -16.582 -23.099  0.00  0.00    +0.101 C 
ATOM     26  C   UNL     1      34.501 -16.153 -20.784  0.00  0.00    +0.122 C 
ATOM     27  C   UNL     1      34.149 -15.702 -23.678  0.00  0.00    +0.045 C 
ATOM     28  C   UNL     1      33.769 -14.936 -21.296  0.00  0.00    -0.008 C 
ATOM     29  C   UNL     1      33.630 -14.703 -22.675  0.00  0.00    -0.023 C 
ATOM     30  C   UNL     1      33.257 -14.004 -20.383  0.00  0.00    -0.003 C 
ATOM     31  C   UNL     1      32.950 -13.560 -23.118  0.00  0.00    -0.004 C 
ATOM     32  C   UNL     1      32.593 -12.864 -20.834  0.00  0.00    -0.000 C 
ATOM     33  C   UNL     1      32.438 -12.644 -22.201  0.00  0.00    -0.000 C 
ENDBRANCH  21  24
ENDBRANCH   1  21
TORSDOF 6
ENDMDL
MODEL 6
REMARK VINA RESULT:     -11.8      5.936     12.168
REMARK  Name = 24941254
REMARK  6 active torsions:
REMARK  status: ('A' for Active; 'I' for Inactive)
REMARK    1  A    between atoms: C_1  and  S_21
REMARK    2  A    between atoms: C_4  and  C_9
REMARK    3  A    between atoms: N_8  and  C_11
REMARK    4  A    between atoms: C_12  and  C_18
REMARK    5  A    between atoms: C_18  and  O_19
REMARK    6  A    between atoms: S_21  and  N_24
REMARK                            x       y       z     vdW  Elec       q    Type
REMARK                         _______ _______ _______ _____ _____    ______ ____
ROOT
ATOM      1  C   UNL     1      34.459 -21.169 -19.240  0.00  0.00    +0.122 C 
ATOM      2  C   UNL     1      34.523 -20.195 -20.235  0.00  0.00    +0.024 C 
ATOM      3  C   UNL     1      35.481 -21.267 -18.294  0.00  0.00    +0.020 C 
ATOM      4  C   UNL     1      35.607 -19.319 -20.286  0.00  0.00    +0.055 C 
ATOM      5  C   UNL     1      36.565 -20.392 -18.345  0.00  0.00    +0.002 C 
ATOM      6  C   UNL     1      36.627 -19.417 -19.341  0.00  0.00    +0.005 C 
ENDROOT
BRANCH   4   9
ATOM      7  O   UNL     1      36.736 -18.141 -21.944  0.00  0.00    -0.270 OA
ATOM      8  N   UNL     1      34.489 -17.587 -21.556  0.00  0.00    -0.280 N 
ATOM      9  C   UNL     1      35.673 -18.302 -21.324  0.00  0.00    +0.250 C 
ATOM     10  H   UNL     1      33.725 -17.826 -20.983  0.00  0.00    +0.155 HD
BRANCH   8  11
ATOM     11  C   UNL     1      34.248 -16.568 -22.509  0.00  0.00    +0.057 C 
ATOM     12  C   UNL     1      34.050 -15.245 -22.112  0.00  0.00    +0.089 C 
ATOM     13  C   UNL     1      34.209 -16.903 -23.863  0.00  0.00    +0.015 C 
ATOM     14  C   UNL     1      33.814 -14.258 -23.069  0.00  0.00    +0.008 C 
ATOM     15  C   UNL     1      33.971 -15.915 -24.819  0.00  0.00    +0.001 C 
ATOM     16  C   UNL     1      33.774 -14.593 -24.422  0.00  0.00    +0.000 C 
BRANCH  12  18
ATOM     17  O   UNL     1      34.103 -15.643 -19.754  0.00  0.00    -0.245 OA
ATOM     18  C   UNL     1      34.084 -14.860 -20.706  0.00  0.00    +0.339 C 
BRANCH  18  19
ATOM     19  O   UNL     1      34.094 -13.510 -20.540  0.00  0.00    -0.477 OA
ATOM     20  H   UNL     1      33.893 -13.140 -19.704  0.00  0.00    +0.295 HD
ENDBRANCH  18  19
ENDBRANCH  12  18
ENDBRANCH   8  11
ENDBRANCH   4   9
BRANCH   1  21
ATOM     21  S   UNL     1      33.088 -22.280 -19.176  0.00  0.00    +0.064 S 
ATOM     22  O   UNL     1      31.951 -21.614 -19.774  0.00  0.00    -0.153 OA
ATOM     23  O   UNL     1      33.536 -23.569 -19.661  0.00  0.00    -0.153 OA
BRANCH  21  24
ATOM     24  N   UNL     1      32.856 -22.373 -17.482  0.00  0.00    -0.151 NA
ATOM     25  C   UNL     1      33.823 -23.226 -16.740  0.00  0.00    +0.101 C 
ATOM     26  C   UNL     1      31.448 -22.609 -17.040  0.00  0.00    +0.122 C 
ATOM     27  C   UNL     1      33.797 -22.829 -15.267  0.00  0.00    +0.045 C 
ATOM     28  C   UNL     1      31.284 -22.699 -15.541  0.00  0.00    -0.008 C 
ATOM     29  C   UNL     1      32.401 -22.837 -14.699  0.00  0.00    -0.023 C 
ATOM     30  C   UNL     1      29.997 -22.686 -14.986  0.00  0.00    -0.003 C 
ATOM     31  C   UNL     1      32.213 -22.924 -13.312  0.00  0.00    -0.004 C 
ATOM     32  C   UNL     1      29.821 -22.785 -13.606  0.00  0.00    -0.000 C 
ATOM     33  C   UNL     1      30.929 -22.902 -12.770  0.00  0.00    -0.000 C 
ENDBRANCH  21  24
ENDBRANCH   1  21
TORSDOF 6
ENDMDL
MODEL 7
REMARK VINA RESULT:     -11.8      6.276     12.041
REMARK  Name = 24941254
REMARK  6 active torsions:
REMARK  status: ('A' for Active; 'I' for Inactive)
REMARK    1  A    between atoms: C_1  and  S_21
REMARK    2  A    between atoms: C_4  and  C_9
REMARK    3  A    between atoms: N_8  and  C_11
REMARK    4  A    between atoms: C_12  and  C_18
REMARK    5  A    between atoms: C_18  and  O_19
REMARK    6  A    between atoms: S_21  and  N_24
REMARK                            x       y       z     vdW  Elec       q    Type
REMARK                         _______ _______ _______ _____ _____    ______ ____
ROOT
ATOM      1  C   UNL     1      34.449 -21.186 -19.263  0.00  0.00    +0.122 C 
ATOM      2  C   UNL     1      34.504 -20.192 -20.239  0.00  0.00    +0.024 C 
ATOM      3  C   UNL     1      35.485 -21.310 -18.336  0.00  0.00    +0.020 C 
ATOM      4  C   UNL     1      35.593 -19.322 -20.289  0.00  0.00    +0.055 C 
ATOM      5  C   UNL     1      36.574 -20.440 -18.385  0.00  0.00    +0.002 C 
ATOM      6  C   UNL     1      36.627 -19.446 -19.363  0.00  0.00    +0.005 C 
ENDROOT
BRANCH   4   9
ATOM      7  O   UNL     1      36.733 -18.041 -21.861  0.00  0.00    -0.270 OA
ATOM      8  N   UNL     1      34.435 -17.647 -21.600  0.00  0.00    -0.280 N 
ATOM      9  C   UNL     1      35.649 -18.284 -21.307  0.00  0.00    +0.250 C 
ATOM     10  H   UNL     1      33.657 -17.948 -21.076  0.00  0.00    +0.155 HD
BRANCH   8  11
ATOM     11  C   UNL     1      34.180 -16.630 -22.551  0.00  0.00    +0.057 C 
ATOM     12  C   UNL     1      33.714 -16.940 -23.828  0.00  0.00    +0.089 C 
ATOM     13  C   UNL     1      34.402 -15.300 -22.194  0.00  0.00    +0.015 C 
ATOM     14  C   UNL     1      33.469 -15.920 -24.748  0.00  0.00    +0.008 C 
ATOM     15  C   UNL     1      34.159 -14.280 -23.114  0.00  0.00    +0.001 C 
ATOM     16  C   UNL     1      33.693 -14.591 -24.391  0.00  0.00    +0.000 C 
BRANCH  12  18
ATOM     17  O   UNL     1      34.182 -19.283 -23.942  0.00  0.00    -0.245 OA
ATOM     18  C   UNL     1      33.471 -18.319 -24.234  0.00  0.00    +0.339 C 
BRANCH  18  19
ATOM     19  O   UNL     1      32.348 -18.445 -24.991  0.00  0.00    -0.477 OA
ATOM     20  H   UNL     1      32.418 -18.623 -25.908  0.00  0.00    +0.295 HD
ENDBRANCH  18  19
ENDBRANCH  12  18
ENDBRANCH   8  11
ENDBRANCH   4   9
BRANCH   1  21
ATOM     21  S   UNL     1      33.072 -22.289 -19.200  0.00  0.00    +0.064 S 
ATOM     22  O   UNL     1      31.939 -21.618 -19.801  0.00  0.00    -0.153 OA
ATOM     23  O   UNL     1      33.514 -23.581 -19.683  0.00  0.00    -0.153 OA
BRANCH  21  24
ATOM     24  N   UNL     1      32.837 -22.379 -17.506  0.00  0.00    -0.151 NA
ATOM     25  C   UNL     1      33.811 -23.219 -16.759  0.00  0.00    +0.101 C 
ATOM     26  C   UNL     1      31.431 -22.631 -17.067  0.00  0.00    +0.122 C 
ATOM     27  C   UNL     1      33.777 -22.817 -15.288  0.00  0.00    +0.045 C 
ATOM     28  C   UNL     1      31.263 -22.717 -15.569  0.00  0.00    -0.008 C 
ATOM     29  C   UNL     1      32.380 -22.840 -14.723  0.00  0.00    -0.023 C 
ATOM     30  C   UNL     1      29.975 -22.717 -15.017  0.00  0.00    -0.003 C 
ATOM     31  C   UNL     1      32.190 -22.924 -13.337  0.00  0.00    -0.004 C 
ATOM     32  C   UNL     1      29.797 -22.813 -13.637  0.00  0.00    -0.000 C 
ATOM     33  C   UNL     1      30.904 -22.915 -12.798  0.00  0.00    -0.000 C 
ENDBRANCH  21  24
ENDBRANCH   1  21
TORSDOF 6
ENDMDL
MODEL 8
REMARK VINA RESULT:     -11.5      2.565      4.123
REMARK  Name = 24941254
REMARK  6 active torsions:
REMARK  status: ('A' for Active; 'I' for Inactive)
REMARK    1  A    between atoms: C_1  and  S_21
REMARK    2  A    between atoms: C_4  and  C_9
REMARK    3  A    between atoms: N_8  and  C_11
REMARK    4  A    between atoms: C_12  and  C_18
REMARK    5  A    between atoms: C_18  and  O_19
REMARK    6  A    between atoms: S_21  and  N_24
REMARK                            x       y       z     vdW  Elec       q    Type
REMARK                         _______ _______ _______ _____ _____    ______ ____
ROOT
ATOM      1  C   UNL     1      31.555  -8.144 -20.707  0.00  0.00    +0.122 C 
ATOM      2  C   UNL     1      31.942  -9.015 -21.725  0.00  0.00    +0.024 C 
ATOM      3  C   UNL     1      31.158  -8.651 -19.469  0.00  0.00    +0.020 C 
ATOM      4  C   UNL     1      31.933 -10.392 -21.505  0.00  0.00    +0.055 C 
ATOM      5  C   UNL     1      31.149 -10.028 -19.250  0.00  0.00    +0.002 C 
ATOM      6  C   UNL     1      31.537 -10.899 -20.268  0.00  0.00    +0.005 C 
ENDROOT
BRANCH   4   9
ATOM      7  O   UNL     1      32.402 -10.878 -23.732  0.00  0.00    -0.270 OA
ATOM      8  N   UNL     1      32.654 -12.607 -22.166  0.00  0.00    -0.280 N 
ATOM      9  C   UNL     1      32.338 -11.301 -22.566  0.00  0.00    +0.250 C 
ATOM     10  H   UNL     1      32.555 -12.796 -21.205  0.00  0.00    +0.155 HD
BRANCH   8  11
ATOM     11  C   UNL     1      33.098 -13.691 -22.963  0.00  0.00    +0.057 C 
ATOM     12  C   UNL     1      33.808 -14.752 -22.402  0.00  0.00    +0.089 C 
ATOM     13  C   UNL     1      32.815 -13.686 -24.329  0.00  0.00    +0.015 C 
ATOM     14  C   UNL     1      34.235 -15.809 -23.207  0.00  0.00    +0.008 C 
ATOM     15  C   UNL     1      33.244 -14.742 -25.134  0.00  0.00    +0.001 C 
ATOM     16  C   UNL     1      33.953 -15.802 -24.573  0.00  0.00    +0.000 C 
BRANCH  12  18
ATOM     17  O   UNL     1      34.093 -13.819 -20.218  0.00  0.00    -0.245 OA
ATOM     18  C   UNL     1      34.120 -14.789 -20.978  0.00  0.00    +0.339 C 
BRANCH  18  19
ATOM     19  O   UNL     1      34.455 -16.038 -20.555  0.00  0.00    -0.477 OA
ATOM     20  H   UNL     1      33.878 -16.511 -19.989  0.00  0.00    +0.295 HD
ENDBRANCH  18  19
ENDBRANCH  12  18
ENDBRANCH   8  11
ENDBRANCH   4   9
BRANCH   1  21
ATOM     21  S   UNL     1      31.563  -6.400 -20.985  0.00  0.00    +0.064 S 
ATOM     22  O   UNL     1      30.193  -5.976 -21.181  0.00  0.00    -0.153 OA
ATOM     23  O   UNL     1      32.393  -5.792 -19.966  0.00  0.00    -0.153 OA
BRANCH  21  24
ATOM     24  N   UNL     1      32.389  -6.339 -22.484  0.00  0.00    -0.151 NA
ATOM     25  C   UNL     1      33.873  -6.286 -22.405  0.00  0.00    +0.101 C 
ATOM     26  C   UNL     1      31.846  -5.361 -23.475  0.00  0.00    +0.122 C 
ATOM     27  C   UNL     1      34.450  -6.721 -23.749  0.00  0.00    +0.045 C 
ATOM     28  C   UNL     1      32.607  -5.325 -24.779  0.00  0.00    -0.008 C 
ATOM     29  C   UNL     1      33.863  -5.945 -24.900  0.00  0.00    -0.023 C 
ATOM     30  C   UNL     1      32.071  -4.630 -25.871  0.00  0.00    -0.003 C 
ATOM     31  C   UNL     1      34.546  -5.887 -26.123  0.00  0.00    -0.004 C 
ATOM     32  C   UNL     1      32.765  -4.569 -27.080  0.00  0.00    -0.000 C 
ATOM     33  C   UNL     1      34.000  -5.199 -27.206  0.00  0.00    -0.000 C 
ENDBRANCH  21  24
ENDBRANCH   1  21
TORSDOF 6
ENDMDL
MODEL 9
REMARK VINA RESULT:     -11.3      8.939     13.504
REMARK  Name = 24941254
REMARK  6 active torsions:
REMARK  status: ('A' for Active; 'I' for Inactive)
REMARK    1  A    between atoms: C_1  and  S_21
REMARK    2  A    between atoms: C_4  and  C_9
REMARK    3  A    between atoms: N_8  and  C_11
REMARK    4  A    between atoms: C_12  and  C_18
REMARK    5  A    between atoms: C_18  and  O_19
REMARK    6  A    between atoms: S_21  and  N_24
REMARK                            x       y       z     vdW  Elec       q    Type
REMARK                         _______ _______ _______ _____ _____    ______ ____
ROOT
ATOM      1  C   UNL     1      35.486 -22.681 -15.462  0.00  0.00    +0.122 C 
ATOM      2  C   UNL     1      34.922 -22.469 -16.719  0.00  0.00    +0.024 C 
ATOM      3  C   UNL     1      36.650 -22.002 -15.097  0.00  0.00    +0.020 C 
ATOM      4  C   UNL     1      35.520 -21.580 -17.611  0.00  0.00    +0.055 C 
ATOM      5  C   UNL     1      37.248 -21.113 -15.989  0.00  0.00    +0.002 C 
ATOM      6  C   UNL     1      36.682 -20.902 -17.247  0.00  0.00    +0.005 C 
ENDROOT
BRANCH   4   9
ATOM      7  O   UNL     1      34.306 -22.282 -19.467  0.00  0.00    -0.270 OA
ATOM      8  N   UNL     1      35.103 -20.076 -19.463  0.00  0.00    -0.280 N 
ATOM      9  C   UNL     1      34.930 -21.358 -18.923  0.00  0.00    +0.250 C 
ATOM     10  H   UNL     1      35.623 -19.447 -18.913  0.00  0.00    +0.155 HD
BRANCH   8  11
ATOM     11  C   UNL     1      34.625 -19.566 -20.695  0.00  0.00    +0.057 C 
ATOM     12  C   UNL     1      35.417 -18.731 -21.483  0.00  0.00    +0.089 C 
ATOM     13  C   UNL     1      33.340 -19.910 -21.116  0.00  0.00    +0.015 C 
ATOM     14  C   UNL     1      34.925 -18.241 -22.693  0.00  0.00    +0.008 C 
ATOM     15  C   UNL     1      32.848 -19.419 -22.325  0.00  0.00    +0.001 C 
ATOM     16  C   UNL     1      33.640 -18.585 -23.113  0.00  0.00    +0.000 C 
BRANCH  12  18
ATOM     17  O   UNL     1      37.158 -18.277 -19.907  0.00  0.00    -0.245 OA
ATOM     18  C   UNL     1      36.764 -18.352 -21.073  0.00  0.00    +0.339 C 
BRANCH  18  19
ATOM     19  O   UNL     1      37.570 -18.081 -22.134  0.00  0.00    -0.477 OA
ATOM     20  H   UNL     1      37.973 -17.239 -22.212  0.00  0.00    +0.295 HD
ENDBRANCH  18  19
ENDBRANCH  12  18
ENDBRANCH   8  11
ENDBRANCH   4   9
BRANCH   1  21
ATOM     21  S   UNL     1      34.732 -23.809 -14.332  0.00  0.00    +0.064 S 
ATOM     22  O   UNL     1      35.225 -25.136 -14.636  0.00  0.00    -0.153 OA
ATOM     23  O   UNL     1      34.858 -23.255 -13.000  0.00  0.00    -0.153 OA
BRANCH  21  24
ATOM     24  N   UNL     1      33.099 -23.688 -14.833  0.00  0.00    -0.151 NA
ATOM     25  C   UNL     1      32.630 -22.323 -15.191  0.00  0.00    +0.101 C 
ATOM     26  C   UNL     1      32.111 -24.412 -13.978  0.00  0.00    +0.122 C 
ATOM     27  C   UNL     1      31.376 -22.446 -16.051  0.00  0.00    +0.045 C 
ATOM     28  C   UNL     1      30.681 -24.272 -14.442  0.00  0.00    -0.008 C 
ATOM     29  C   UNL     1      30.324 -23.313 -15.406  0.00  0.00    -0.023 C 
ATOM     30  C   UNL     1      29.689 -25.082 -13.874  0.00  0.00    -0.003 C 
ATOM     31  C   UNL     1      28.987 -23.204 -15.810  0.00  0.00    -0.004 C 
ATOM     32  C   UNL     1      28.358 -24.958 -14.275  0.00  0.00    -0.000 C 
ATOM     33  C   UNL     1      28.009 -24.020 -15.244  0.00  0.00    -0.000 C 
ENDBRANCH  21  24
ENDBRANCH   1  21
TORSDOF 6
ENDMDL
