MODEL 1
REMARK VINA RESULT:     -13.3      0.000      0.000
REMARK  Name = 46207733
REMARK  4 active torsions:
REMARK  status: ('A' for Active; 'I' for Inactive)
REMARK    1  A    between atoms: N_2  and  C_16
REMARK    2  A    between atoms: C_10  and  C_24
REMARK    3  A    between atoms: C_17  and  O_22
REMARK    4  A    between atoms: C_24  and  C_26
REMARK                            x       y       z     vdW  Elec       q    Type
REMARK                         _______ _______ _______ _____ _____    ______ ____
ROOT
ATOM      1  O   UNL     1      35.883 -21.734 -18.292  0.00  0.00    -0.274 OA
ATOM      2  N   UNL     1      34.038 -20.887 -19.430  0.00  0.00    -0.257 N 
ATOM      3  N   UNL     1      31.842 -21.221 -18.594  0.00  0.00    -0.252 NA
ATOM      4  C   UNL     1      34.670 -21.574 -18.393  0.00  0.00    +0.236 C 
ATOM      5  C   UNL     1      32.665 -20.751 -19.470  0.00  0.00    +0.222 C 
ATOM      6  C   UNL     1      33.757 -22.130 -17.366  0.00  0.00    +0.138 C 
ATOM      7  C   UNL     1      32.373 -21.936 -17.500  0.00  0.00    +0.068 C 
ATOM      8  C   UNL     1      31.496 -22.467 -16.518  0.00  0.00    +0.014 C 
ATOM      9  C   UNL     1      34.282 -22.837 -16.284  0.00  0.00    -0.015 C 
ATOM     10  C   UNL     1      33.425 -23.360 -15.321  0.00  0.00    -0.021 C 
ATOM     11  C   UNL     1      32.037 -23.185 -15.421  0.00  0.00    -0.003 C 
ATOM     12  C   UNL     1      30.093 -22.315 -16.581  0.00  0.00    +0.001 C 
ATOM     13  C   UNL     1      31.181 -23.717 -14.442  0.00  0.00    -0.000 C 
ATOM     14  C   UNL     1      29.258 -22.850 -15.599  0.00  0.00    +0.000 C 
ATOM     15  C   UNL     1      29.801 -23.551 -14.531  0.00  0.00    -0.000 C 
ENDROOT
BRANCH   2  16
ATOM     16  C   UNL     1      34.837 -20.306 -20.485  0.00  0.00    +0.104 C 
ATOM     17  C   UNL     1      35.685 -19.147 -19.944  0.00  0.00    +0.129 C 
ATOM     18  C   UNL     1      33.936 -19.855 -21.639  0.00  0.00    +0.022 C 
ATOM     19  C   UNL     1      36.455 -18.439 -21.060  0.00  0.00    +0.031 C 
ATOM     20  C   UNL     1      34.727 -19.159 -22.742  0.00  0.00    +0.002 C 
ATOM     21  C   UNL     1      35.540 -17.992 -22.192  0.00  0.00    +0.003 C 
BRANCH  17  22
ATOM     22  O   UNL     1      36.622 -19.661 -18.999  0.00  0.00    -0.383 OA
ATOM     23  H   UNL     1      36.145 -20.041 -18.244  0.00  0.00    +0.210 HD
ENDBRANCH  17  22
ENDBRANCH   2  16
BRANCH  10  24
ATOM     24  C   UNL     1      34.053 -24.108 -14.186  0.00  0.00    +0.054 C 
BRANCH  24  26
ATOM     25  N   UNL     1      37.767 -23.338 -14.227  0.00  0.00    -0.248 NA
ATOM     26  C   UNL     1      35.548 -24.292 -14.332  0.00  0.00    +0.001 C 
ATOM     27  C   UNL     1      36.086 -25.523 -14.692  0.00  0.00    -0.001 C 
ATOM     28  C   UNL     1      36.423 -23.241 -14.112  0.00  0.00    +0.094 C 
ATOM     29  C   UNL     1      37.463 -25.663 -14.820  0.00  0.00    +0.014 C 
ATOM     30  C   UNL     1      38.253 -24.550 -14.578  0.00  0.00    +0.059 C 
ATOM     31  C   UNL     1      39.737 -24.663 -14.706  0.00  0.00    +0.052 C 
ENDBRANCH  24  26
ENDBRANCH  10  24
TORSDOF 4
ENDMDL
MODEL 2
REMARK VINA RESULT:     -12.8      4.864      8.588
REMARK  Name = 46207733
REMARK  4 active torsions:
REMARK  status: ('A' for Active; 'I' for Inactive)
REMARK    1  A    between atoms: N_2  and  C_16
REMARK    2  A    between atoms: C_10  and  C_24
REMARK    3  A    between atoms: C_17  and  O_22
REMARK    4  A    between atoms: C_24  and  C_26
REMARK                            x       y       z     vdW  Elec       q    Type
REMARK                         _______ _______ _______ _____ _____    ______ ____
ROOT
ATOM      1  O   UNL     1      34.406 -13.913 -20.494  0.00  0.00    -0.274 OA
ATOM      2  N   UNL     1      33.255 -13.529 -22.481  0.00  0.00    -0.257 N 
ATOM      3  N   UNL     1      32.998 -15.259 -24.085  0.00  0.00    -0.252 NA
ATOM      4  C   UNL     1      33.979 -14.306 -21.576  0.00  0.00    +0.236 C 
ATOM      5  C   UNL     1      32.808 -14.049 -23.679  0.00  0.00    +0.222 C 
ATOM      6  C   UNL     1      34.218 -15.704 -22.007  0.00  0.00    +0.138 C 
ATOM      7  C   UNL     1      33.720 -16.135 -23.248  0.00  0.00    +0.068 C 
ATOM      8  C   UNL     1      33.948 -17.473 -23.663  0.00  0.00    +0.014 C 
ATOM      9  C   UNL     1      34.933 -16.571 -21.180  0.00  0.00    -0.015 C 
ATOM     10  C   UNL     1      35.158 -17.883 -21.585  0.00  0.00    -0.021 C 
ATOM     11  C   UNL     1      34.675 -18.348 -22.817  0.00  0.00    -0.003 C 
ATOM     12  C   UNL     1      33.481 -17.982 -24.895  0.00  0.00    +0.001 C 
ATOM     13  C   UNL     1      34.909 -19.675 -23.216  0.00  0.00    -0.000 C 
ATOM     14  C   UNL     1      33.722 -19.304 -25.276  0.00  0.00    +0.000 C 
ATOM     15  C   UNL     1      34.436 -20.149 -24.437  0.00  0.00    -0.000 C 
ENDROOT
BRANCH   2  16
ATOM     16  C   UNL     1      32.967 -12.149 -22.157  0.00  0.00    +0.104 C 
ATOM     17  C   UNL     1      31.607 -12.031 -21.458  0.00  0.00    +0.129 C 
ATOM     18  C   UNL     1      33.027 -11.290 -23.423  0.00  0.00    +0.022 C 
ATOM     19  C   UNL     1      31.224 -10.572 -21.206  0.00  0.00    +0.031 C 
ATOM     20  C   UNL     1      32.649  -9.838 -23.147  0.00  0.00    +0.002 C 
ATOM     21  C   UNL     1      31.282  -9.737 -22.478  0.00  0.00    +0.003 C 
BRANCH  17  22
ATOM     22  O   UNL     1      31.672 -12.708 -20.204  0.00  0.00    -0.383 OA
ATOM     23  H   UNL     1      32.094 -13.574 -20.324  0.00  0.00    +0.210 HD
ENDBRANCH  17  22
ENDBRANCH   2  16
BRANCH  10  24
ATOM     24  C   UNL     1      35.931 -18.760 -20.650  0.00  0.00    +0.054 C 
BRANCH  24  26
ATOM     25  N   UNL     1      34.973 -21.757 -18.532  0.00  0.00    -0.248 NA
ATOM     26  C   UNL     1      35.088 -19.815 -19.968  0.00  0.00    +0.001 C 
ATOM     27  C   UNL     1      33.707 -19.840 -20.126  0.00  0.00    -0.001 C 
ATOM     28  C   UNL     1      35.668 -20.786 -19.168  0.00  0.00    +0.094 C 
ATOM     29  C   UNL     1      32.958 -20.823 -19.488  0.00  0.00    +0.014 C 
ATOM     30  C   UNL     1      33.632 -21.749 -18.708  0.00  0.00    +0.059 C 
ATOM     31  C   UNL     1      32.860 -22.818 -18.008  0.00  0.00    +0.052 C 
ENDBRANCH  24  26
ENDBRANCH  10  24
TORSDOF 4
ENDMDL
MODEL 3
REMARK VINA RESULT:     -12.6      2.086      6.631
REMARK  Name = 46207733
REMARK  4 active torsions:
REMARK  status: ('A' for Active; 'I' for Inactive)
REMARK    1  A    between atoms: N_2  and  C_16
REMARK    2  A    between atoms: C_10  and  C_24
REMARK    3  A    between atoms: C_17  and  O_22
REMARK    4  A    between atoms: C_24  and  C_26
REMARK                            x       y       z     vdW  Elec       q    Type
REMARK                         _______ _______ _______ _____ _____    ______ ____
ROOT
ATOM      1  O   UNL     1      35.872 -23.542 -15.592  0.00  0.00    -0.274 OA
ATOM      2  N   UNL     1      34.953 -23.889 -13.481  0.00  0.00    -0.257 N 
ATOM      3  N   UNL     1      32.634 -23.551 -13.100  0.00  0.00    -0.252 NA
ATOM      4  C   UNL     1      34.906 -23.547 -14.833  0.00  0.00    +0.236 C 
ATOM      5  C   UNL     1      33.818 -23.870 -12.696  0.00  0.00    +0.222 C 
ATOM      6  C   UNL     1      33.563 -23.174 -15.336  0.00  0.00    +0.138 C 
ATOM      7  C   UNL     1      32.471 -23.187 -14.452  0.00  0.00    +0.068 C 
ATOM      8  C   UNL     1      31.183 -22.829 -14.931  0.00  0.00    +0.014 C 
ATOM      9  C   UNL     1      33.399 -22.814 -16.674  0.00  0.00    -0.015 C 
ATOM     10  C   UNL     1      32.139 -22.462 -17.145  0.00  0.00    -0.021 C 
ATOM     11  C   UNL     1      31.025 -22.464 -16.292  0.00  0.00    -0.003 C 
ATOM     12  C   UNL     1      30.036 -22.818 -14.107  0.00  0.00    +0.001 C 
ATOM     13  C   UNL     1      29.757 -22.108 -16.780  0.00  0.00    -0.000 C 
ATOM     14  C   UNL     1      28.783 -22.460 -14.607  0.00  0.00    +0.000 C 
ATOM     15  C   UNL     1      28.643 -22.105 -15.943  0.00  0.00    -0.000 C 
ENDROOT
BRANCH   2  16
ATOM     16  C   UNL     1      36.216 -24.268 -12.890  0.00  0.00    +0.104 C 
ATOM     17  C   UNL     1      37.106 -23.036 -12.682  0.00  0.00    +0.129 C 
ATOM     18  C   UNL     1      36.907 -25.323 -13.760  0.00  0.00    +0.022 C 
ATOM     19  C   UNL     1      38.494 -23.420 -12.164  0.00  0.00    +0.031 C 
ATOM     20  C   UNL     1      38.284 -25.695 -13.222  0.00  0.00    +0.002 C 
ATOM     21  C   UNL     1      39.166 -24.462 -13.048  0.00  0.00    +0.003 C 
BRANCH  17  22
ATOM     22  O   UNL     1      36.487 -22.174 -11.728  0.00  0.00    -0.383 OA
ATOM     23  H   UNL     1      35.641 -22.557 -11.447  0.00  0.00    +0.210 HD
ENDBRANCH  17  22
ENDBRANCH   2  16
BRANCH  10  24
ATOM     24  C   UNL     1      32.034 -22.087 -18.591  0.00  0.00    +0.054 C 
BRANCH  24  26
ATOM     25  N   UNL     1      34.064 -19.459 -20.424  0.00  0.00    -0.248 NA
ATOM     26  C   UNL     1      33.220 -21.300 -19.103  0.00  0.00    +0.001 C 
ATOM     27  C   UNL     1      34.519 -21.657 -18.757  0.00  0.00    -0.001 C 
ATOM     28  C   UNL     1      33.048 -20.203 -19.931  0.00  0.00    +0.094 C 
ATOM     29  C   UNL     1      35.591 -20.916 -19.243  0.00  0.00    +0.014 C 
ATOM     30  C   UNL     1      35.312 -19.835 -20.065  0.00  0.00    +0.059 C 
ATOM     31  C   UNL     1      36.438 -19.017 -20.606  0.00  0.00    +0.052 C 
ENDBRANCH  24  26
ENDBRANCH  10  24
TORSDOF 4
ENDMDL
MODEL 4
REMARK VINA RESULT:     -11.9      2.570      7.105
REMARK  Name = 46207733
REMARK  4 active torsions:
REMARK  status: ('A' for Active; 'I' for Inactive)
REMARK    1  A    between atoms: N_2  and  C_16
REMARK    2  A    between atoms: C_10  and  C_24
REMARK    3  A    between atoms: C_17  and  O_22
REMARK    4  A    between atoms: C_24  and  C_26
REMARK                            x       y       z     vdW  Elec       q    Type
REMARK                         _______ _______ _______ _____ _____    ______ ____
ROOT
ATOM      1  O   UNL     1      31.430 -22.366 -16.445  0.00  0.00    -0.274 OA
ATOM      2  N   UNL     1      30.879 -23.393 -14.430  0.00  0.00    -0.257 N 
ATOM      3  N   UNL     1      32.574 -24.049 -12.903  0.00  0.00    -0.252 NA
ATOM      4  C   UNL     1      31.762 -22.875 -15.379  0.00  0.00    +0.236 C 
ATOM      5  C   UNL     1      31.335 -23.949 -13.252  0.00  0.00    +0.222 C 
ATOM      6  C   UNL     1      33.195 -22.972 -15.014  0.00  0.00    +0.138 C 
ATOM      7  C   UNL     1      33.555 -23.557 -13.789  0.00  0.00    +0.068 C 
ATOM      8  C   UNL     1      34.927 -23.652 -13.438  0.00  0.00    +0.014 C 
ATOM      9  C   UNL     1      34.167 -22.486 -15.890  0.00  0.00    -0.015 C 
ATOM     10  C   UNL     1      35.512 -22.578 -15.549  0.00  0.00    -0.021 C 
ATOM     11  C   UNL     1      35.908 -23.155 -14.334  0.00  0.00    -0.003 C 
ATOM     12  C   UNL     1      35.369 -24.225 -12.225  0.00  0.00    +0.001 C 
ATOM     13  C   UNL     1      37.270 -23.243 -13.999  0.00  0.00    -0.000 C 
ATOM     14  C   UNL     1      36.727 -24.305 -11.909  0.00  0.00    +0.000 C 
ATOM     15  C   UNL     1      37.676 -23.814 -12.796  0.00  0.00    -0.000 C 
ENDROOT
BRANCH   2  16
ATOM     16  C   UNL     1      29.457 -23.348 -14.687  0.00  0.00    +0.104 C 
ATOM     17  C   UNL     1      29.103 -24.204 -15.911  0.00  0.00    +0.129 C 
ATOM     18  C   UNL     1      29.001 -21.897 -14.863  0.00  0.00    +0.022 C 
ATOM     19  C   UNL     1      27.623 -24.085 -16.277  0.00  0.00    +0.031 C 
ATOM     20  C   UNL     1      27.522 -21.802 -15.220  0.00  0.00    +0.002 C 
ATOM     21  C   UNL     1      27.193 -22.635 -16.455  0.00  0.00    +0.003 C 
BRANCH  17  22
ATOM     22  O   UNL     1      29.392 -25.571 -15.618  0.00  0.00    -0.383 OA
ATOM     23  H   UNL     1      29.023 -26.136 -16.315  0.00  0.00    +0.210 HD
ENDBRANCH  17  22
ENDBRANCH   2  16
BRANCH  10  24
ATOM     24  C   UNL     1      36.502 -22.036 -16.534  0.00  0.00    +0.054 C 
BRANCH  24  26
ATOM     25  N   UNL     1      35.954 -19.793 -19.542  0.00  0.00    -0.248 NA
ATOM     26  C   UNL     1      35.866 -21.429 -17.765  0.00  0.00    +0.001 C 
ATOM     27  C   UNL     1      34.655 -21.907 -18.254  0.00  0.00    -0.001 C 
ATOM     28  C   UNL     1      36.470 -20.381 -18.438  0.00  0.00    +0.094 C 
ATOM     29  C   UNL     1      34.093 -21.329 -19.387  0.00  0.00    +0.014 C 
ATOM     30  C   UNL     1      34.776 -20.284 -19.989  0.00  0.00    +0.059 C 
ATOM     31  C   UNL     1      34.203 -19.639 -21.207  0.00  0.00    +0.052 C 
ENDBRANCH  24  26
ENDBRANCH  10  24
TORSDOF 4
ENDMDL
MODEL 5
REMARK VINA RESULT:     -11.6      2.331      7.873
REMARK  Name = 46207733
REMARK  4 active torsions:
REMARK  status: ('A' for Active; 'I' for Inactive)
REMARK    1  A    between atoms: N_2  and  C_16
REMARK    2  A    between atoms: C_10  and  C_24
REMARK    3  A    between atoms: C_17  and  O_22
REMARK    4  A    between atoms: C_24  and  C_26
REMARK                            x       y       z     vdW  Elec       q    Type
REMARK                         _______ _______ _______ _____ _____    ______ ____
ROOT
ATOM      1  O   UNL     1      37.951 -22.071 -16.134  0.00  0.00    -0.274 OA
ATOM      2  N   UNL     1      36.024 -22.751 -15.020  0.00  0.00    -0.257 N 
ATOM      3  N   UNL     1      33.886 -22.457 -16.009  0.00  0.00    -0.252 NA
ATOM      4  C   UNL     1      36.731 -22.191 -16.085  0.00  0.00    +0.236 C 
ATOM      5  C   UNL     1      34.647 -22.851 -15.044  0.00  0.00    +0.222 C 
ATOM      6  C   UNL     1      35.891 -21.726 -17.214  0.00  0.00    +0.138 C 
ATOM      7  C   UNL     1      34.496 -21.874 -17.139  0.00  0.00    +0.068 C 
ATOM      8  C   UNL     1      33.689 -21.429 -18.220  0.00  0.00    +0.014 C 
ATOM      9  C   UNL     1      36.492 -21.149 -18.333  0.00  0.00    -0.015 C 
ATOM     10  C   UNL     1      35.704 -20.711 -19.392  0.00  0.00    -0.021 C 
ATOM     11  C   UNL     1      34.308 -20.843 -19.352  0.00  0.00    -0.003 C 
ATOM     12  C   UNL     1      32.281 -21.541 -18.220  0.00  0.00    +0.001 C 
ATOM     13  C   UNL     1      33.522 -20.398 -20.429  0.00  0.00    -0.000 C 
ATOM     14  C   UNL     1      31.515 -21.094 -19.298  0.00  0.00    +0.000 C 
ATOM     15  C   UNL     1      32.135 -20.522 -20.401  0.00  0.00    -0.000 C 
ENDROOT
BRANCH   2  16
ATOM     16  C   UNL     1      36.749 -23.236 -13.867  0.00  0.00    +0.104 C 
ATOM     17  C   UNL     1      36.955 -24.754 -13.958  0.00  0.00    +0.129 C 
ATOM     18  C   UNL     1      36.014 -22.843 -12.582  0.00  0.00    +0.022 C 
ATOM     19  C   UNL     1      37.618 -25.312 -12.697  0.00  0.00    +0.031 C 
ATOM     20  C   UNL     1      36.696 -23.404 -11.339  0.00  0.00    +0.002 C 
ATOM     21  C   UNL     1      36.868 -24.917 -11.433  0.00  0.00    +0.003 C 
BRANCH  17  22
ATOM     22  O   UNL     1      37.792 -25.040 -15.078  0.00  0.00    -0.383 OA
ATOM     23  H   UNL     1      38.122 -24.210 -15.455  0.00  0.00    +0.210 HD
ENDBRANCH  17  22
ENDBRANCH   2  16
BRANCH  10  24
ATOM     24  C   UNL     1      36.414 -20.101 -20.562  0.00  0.00    +0.054 C 
BRANCH  24  26
ATOM     25  N   UNL     1      34.908 -16.620 -20.555  0.00  0.00    -0.248 NA
ATOM     26  C   UNL     1      35.782 -18.818 -21.055  0.00  0.00    +0.001 C 
ATOM     27  C   UNL     1      35.492 -18.636 -22.403  0.00  0.00    -0.001 C 
ATOM     28  C   UNL     1      35.474 -17.790 -20.180  0.00  0.00    +0.094 C 
ATOM     29  C   UNL     1      34.911 -17.446 -22.828  0.00  0.00    +0.014 C 
ATOM     30  C   UNL     1      34.642 -16.478 -21.873  0.00  0.00    +0.059 C 
ATOM     31  C   UNL     1      34.017 -15.189 -22.293  0.00  0.00    +0.052 C 
ENDBRANCH  24  26
ENDBRANCH  10  24
TORSDOF 4
ENDMDL
MODEL 6
REMARK VINA RESULT:     -11.6      2.300      7.274
REMARK  Name = 46207733
REMARK  4 active torsions:
REMARK  status: ('A' for Active; 'I' for Inactive)
REMARK    1  A    between atoms: N_2  and  C_16
REMARK    2  A    between atoms: C_10  and  C_24
REMARK    3  A    between atoms: C_17  and  O_22
REMARK    4  A    between atoms: C_24  and  C_26
REMARK                            x       y       z     vdW  Elec       q    Type
REMARK                         _______ _______ _______ _____ _____    ______ ____
ROOT
ATOM      1  O   UNL     1      34.588 -23.688 -14.280  0.00  0.00    -0.274 OA
ATOM      2  N   UNL     1      36.630 -23.018 -15.176  0.00  0.00    -0.257 N 
ATOM      3  N   UNL     1      36.717 -21.810 -17.218  0.00  0.00    -0.252 NA
ATOM      4  C   UNL     1      35.238 -23.128 -15.158  0.00  0.00    +0.236 C 
ATOM      5  C   UNL     1      37.286 -22.368 -16.202  0.00  0.00    +0.222 C 
ATOM      6  C   UNL     1      34.549 -22.499 -16.309  0.00  0.00    +0.138 C 
ATOM      7  C   UNL     1      35.310 -21.862 -17.302  0.00  0.00    +0.068 C 
ATOM      8  C   UNL     1      34.652 -21.259 -18.406  0.00  0.00    +0.014 C 
ATOM      9  C   UNL     1      33.157 -22.549 -16.393  0.00  0.00    -0.015 C 
ATOM     10  C   UNL     1      32.509 -21.960 -17.474  0.00  0.00    -0.021 C 
ATOM     11  C   UNL     1      33.237 -21.314 -18.484  0.00  0.00    -0.003 C 
ATOM     12  C   UNL     1      35.346 -20.599 -19.444  0.00  0.00    +0.001 C 
ATOM     13  C   UNL     1      32.572 -20.722 -19.571  0.00  0.00    -0.000 C 
ATOM     14  C   UNL     1      34.669 -20.017 -20.518  0.00  0.00    +0.000 C 
ATOM     15  C   UNL     1      33.283 -20.079 -20.581  0.00  0.00    -0.000 C 
ENDROOT
BRANCH   2  16
ATOM     16  C   UNL     1      37.400 -23.598 -14.099  0.00  0.00    +0.104 C 
ATOM     17  C   UNL     1      37.233 -25.123 -14.077  0.00  0.00    +0.129 C 
ATOM     18  C   UNL     1      36.993 -22.967 -12.764  0.00  0.00    +0.022 C 
ATOM     19  C   UNL     1      37.944 -25.754 -12.879  0.00  0.00    +0.031 C 
ATOM     20  C   UNL     1      37.720 -23.606 -11.585  0.00  0.00    +0.002 C 
ATOM     21  C   UNL     1      37.520 -25.118 -11.562  0.00  0.00    +0.003 C 
BRANCH  17  22
ATOM     22  O   UNL     1      37.789 -25.666 -15.274  0.00  0.00    -0.383 OA
ATOM     23  H   UNL     1      37.240 -25.408 -16.032  0.00  0.00    +0.210 HD
ENDBRANCH  17  22
ENDBRANCH   2  16
BRANCH  10  24
ATOM     24  C   UNL     1      31.014 -22.049 -17.503  0.00  0.00    +0.054 C 
BRANCH  24  26
ATOM     25  N   UNL     1      29.094 -24.646 -15.514  0.00  0.00    -0.248 NA
ATOM     26  C   UNL     1      30.428 -22.801 -16.328  0.00  0.00    +0.001 C 
ATOM     27  C   UNL     1      30.654 -22.378 -15.022  0.00  0.00    -0.001 C 
ATOM     28  C   UNL     1      29.649 -23.930 -16.519  0.00  0.00    +0.094 C 
ATOM     29  C   UNL     1      30.101 -23.088 -13.962  0.00  0.00    +0.014 C 
ATOM     30  C   UNL     1      29.336 -24.206 -14.258  0.00  0.00    +0.059 C 
ATOM     31  C   UNL     1      28.727 -24.992 -13.145  0.00  0.00    +0.052 C 
ENDBRANCH  24  26
ENDBRANCH  10  24
TORSDOF 4
ENDMDL
MODEL 7
REMARK VINA RESULT:     -11.4      1.851      5.463
REMARK  Name = 46207733
REMARK  4 active torsions:
REMARK  status: ('A' for Active; 'I' for Inactive)
REMARK    1  A    between atoms: N_2  and  C_16
REMARK    2  A    between atoms: C_10  and  C_24
REMARK    3  A    between atoms: C_17  and  O_22
REMARK    4  A    between atoms: C_24  and  C_26
REMARK                            x       y       z     vdW  Elec       q    Type
REMARK                         _______ _______ _______ _____ _____    ______ ____
ROOT
ATOM      1  O   UNL     1      32.048 -21.918 -18.706  0.00  0.00    -0.274 OA
ATOM      2  N   UNL     1      34.322 -21.428 -18.619  0.00  0.00    -0.257 N 
ATOM      3  N   UNL     1      35.599 -21.948 -16.687  0.00  0.00    -0.252 NA
ATOM      4  C   UNL     1      33.120 -21.921 -18.108  0.00  0.00    +0.236 C 
ATOM      5  C   UNL     1      35.487 -21.470 -17.881  0.00  0.00    +0.222 C 
ATOM      6  C   UNL     1      33.207 -22.478 -16.738  0.00  0.00    +0.138 C 
ATOM      7  C   UNL     1      34.443 -22.473 -16.071  0.00  0.00    +0.068 C 
ATOM      8  C   UNL     1      34.529 -23.006 -14.758  0.00  0.00    +0.014 C 
ATOM      9  C   UNL     1      32.065 -22.998 -16.128  0.00  0.00    -0.015 C 
ATOM     10  C   UNL     1      32.147 -23.520 -14.841  0.00  0.00    -0.021 C 
ATOM     11  C   UNL     1      33.364 -23.532 -14.145  0.00  0.00    -0.003 C 
ATOM     12  C   UNL     1      35.735 -23.037 -14.022  0.00  0.00    +0.001 C 
ATOM     13  C   UNL     1      33.434 -24.062 -12.846  0.00  0.00    -0.000 C 
ATOM     14  C   UNL     1      35.787 -23.567 -12.732  0.00  0.00    +0.000 C 
ATOM     15  C   UNL     1      34.637 -24.079 -12.144  0.00  0.00    -0.000 C 
ENDROOT
BRANCH   2  16
ATOM     16  C   UNL     1      34.346 -20.862 -19.949  0.00  0.00    +0.104 C 
ATOM     17  C   UNL     1      35.607 -20.011 -20.149  0.00  0.00    +0.129 C 
ATOM     18  C   UNL     1      33.072 -20.049 -20.196  0.00  0.00    +0.022 C 
ATOM     19  C   UNL     1      35.604 -19.305 -21.507  0.00  0.00    +0.031 C 
ATOM     20  C   UNL     1      33.088 -19.361 -21.558  0.00  0.00    +0.002 C 
ATOM     21  C   UNL     1      34.333 -18.497 -21.729  0.00  0.00    +0.003 C 
BRANCH  17  22
ATOM     22  O   UNL     1      36.753 -20.858 -20.079  0.00  0.00    -0.383 OA
ATOM     23  H   UNL     1      36.779 -21.433 -20.860  0.00  0.00    +0.210 HD
ENDBRANCH  17  22
ENDBRANCH   2  16
BRANCH  10  24
ATOM     24  C   UNL     1      30.883 -24.061 -14.246  0.00  0.00    +0.054 C 
BRANCH  24  26
ATOM     25  N   UNL     1      28.115 -21.583 -15.007  0.00  0.00    -0.248 NA
ATOM     26  C   UNL     1      29.626 -23.463 -14.837  0.00  0.00    +0.001 C 
ATOM     27  C   UNL     1      28.836 -24.188 -15.722  0.00  0.00    -0.001 C 
ATOM     28  C   UNL     1      29.227 -22.176 -14.515  0.00  0.00    +0.094 C 
ATOM     29  C   UNL     1      27.685 -23.612 -16.250  0.00  0.00    +0.014 C 
ATOM     30  C   UNL     1      27.372 -22.318 -15.864  0.00  0.00    +0.059 C 
ATOM     31  C   UNL     1      26.144 -21.668 -16.410  0.00  0.00    +0.052 C 
ENDBRANCH  24  26
ENDBRANCH  10  24
TORSDOF 4
ENDMDL
MODEL 8
REMARK VINA RESULT:     -11.3     11.835     17.225
REMARK  Name = 46207733
REMARK  4 active torsions:
REMARK  status: ('A' for Active; 'I' for Inactive)
REMARK    1  A    between atoms: N_2  and  C_16
REMARK    2  A    between atoms: C_10  and  C_24
REMARK    3  A    between atoms: C_17  and  O_22
REMARK    4  A    between atoms: C_24  and  C_26
REMARK                            x       y       z     vdW  Elec       q    Type
REMARK                         _______ _______ _______ _____ _____    ______ ____
ROOT
ATOM      1  O   UNL     1      33.985 -10.137 -23.653  0.00  0.00    -0.274 OA
ATOM      2  N   UNL     1      31.963 -10.473 -22.549  0.00  0.00    -0.257 N 
ATOM      3  N   UNL     1      30.590  -8.632 -21.951  0.00  0.00    -0.252 NA
ATOM      4  C   UNL     1      32.962  -9.696 -23.138  0.00  0.00    +0.236 C 
ATOM      5  C   UNL     1      30.840  -9.898 -21.991  0.00  0.00    +0.222 C 
ATOM      6  C   UNL     1      32.711  -8.235 -23.111  0.00  0.00    +0.138 C 
ATOM      7  C   UNL     1      31.533  -7.751 -22.518  0.00  0.00    +0.068 C 
ATOM      8  C   UNL     1      31.291  -6.352 -22.491  0.00  0.00    +0.014 C 
ATOM      9  C   UNL     1      33.643  -7.363 -23.672  0.00  0.00    -0.015 C 
ATOM     10  C   UNL     1      33.409  -5.992 -23.646  0.00  0.00    -0.021 C 
ATOM     11  C   UNL     1      32.244  -5.472 -23.063  0.00  0.00    -0.003 C 
ATOM     12  C   UNL     1      30.132  -5.787 -21.913  0.00  0.00    +0.001 C 
ATOM     13  C   UNL     1      32.018  -4.086 -23.043  0.00  0.00    -0.000 C 
ATOM     14  C   UNL     1      29.923  -4.407 -21.902  0.00  0.00    +0.000 C 
ATOM     15  C   UNL     1      30.865  -3.557 -22.465  0.00  0.00    -0.000 C 
ENDROOT
BRANCH   2  16
ATOM     16  C   UNL     1      32.110 -11.911 -22.521  0.00  0.00    +0.104 C 
ATOM     17  C   UNL     1      32.834 -12.355 -21.243  0.00  0.00    +0.129 C 
ATOM     18  C   UNL     1      32.843 -12.388 -23.779  0.00  0.00    +0.022 C 
ATOM     19  C   UNL     1      33.106 -13.860 -21.240  0.00  0.00    +0.031 C 
ATOM     20  C   UNL     1      33.096 -13.892 -23.757  0.00  0.00    +0.002 C 
ATOM     21  C   UNL     1      33.842 -14.312 -22.494  0.00  0.00    +0.003 C 
BRANCH  17  22
ATOM     22  O   UNL     1      32.020 -12.037 -20.116  0.00  0.00    -0.383 OA
ATOM     23  H   UNL     1      31.215 -11.585 -20.415  0.00  0.00    +0.210 HD
ENDBRANCH  17  22
ENDBRANCH   2  16
BRANCH  10  24
ATOM     24  C   UNL     1      34.450  -5.112 -24.266  0.00  0.00    +0.054 C 
BRANCH  24  26
ATOM     25  N   UNL     1      35.535  -4.673 -27.874  0.00  0.00    -0.248 NA
ATOM     26  C   UNL     1      34.402  -5.082 -25.777  0.00  0.00    +0.001 C 
ATOM     27  C   UNL     1      33.238  -5.417 -26.462  0.00  0.00    -0.001 C 
ATOM     28  C   UNL     1      35.512  -4.721 -26.522  0.00  0.00    +0.094 C 
ATOM     29  C   UNL     1      33.223  -5.380 -27.853  0.00  0.00    +0.014 C 
ATOM     30  C   UNL     1      34.386  -5.006 -28.505  0.00  0.00    +0.059 C 
ATOM     31  C   UNL     1      34.406  -4.955 -29.997  0.00  0.00    +0.052 C 
ENDBRANCH  24  26
ENDBRANCH  10  24
TORSDOF 4
ENDMDL
MODEL 9
REMARK VINA RESULT:     -10.6      9.012     14.089
REMARK  Name = 46207733
REMARK  4 active torsions:
REMARK  status: ('A' for Active; 'I' for Inactive)
REMARK    1  A    between atoms: N_2  and  C_16
REMARK    2  A    between atoms: C_10  and  C_24
REMARK    3  A    between atoms: C_17  and  O_22
REMARK    4  A    between atoms: C_24  and  C_26
REMARK                            x       y       z     vdW  Elec       q    Type
REMARK                         _______ _______ _______ _____ _____    ______ ____
ROOT
ATOM      1  O   UNL     1      33.089 -13.050 -24.619  0.00  0.00    -0.274 OA
ATOM      2  N   UNL     1      33.504 -14.076 -22.570  0.00  0.00    -0.257 N 
ATOM      3  N   UNL     1      32.916 -13.001 -20.538  0.00  0.00    -0.252 NA
ATOM      4  C   UNL     1      33.043 -13.046 -23.392  0.00  0.00    +0.236 C 
ATOM      5  C   UNL     1      33.414 -13.993 -21.196  0.00  0.00    +0.222 C 
ATOM      6  C   UNL     1      32.463 -11.887 -22.672  0.00  0.00    +0.138 C 
ATOM      7  C   UNL     1      32.419 -11.902 -21.269  0.00  0.00    +0.068 C 
ATOM      8  C   UNL     1      31.865 -10.793 -20.577  0.00  0.00    +0.014 C 
ATOM      9  C   UNL     1      31.972 -10.799 -23.394  0.00  0.00    -0.015 C 
ATOM     10  C   UNL     1      31.429  -9.711 -22.719  0.00  0.00    -0.021 C 
ATOM     11  C   UNL     1      31.368  -9.691 -21.318  0.00  0.00    -0.003 C 
ATOM     12  C   UNL     1      31.784 -10.732 -19.168  0.00  0.00    +0.001 C 
ATOM     13  C   UNL     1      30.817  -8.587 -20.647  0.00  0.00    -0.000 C 
ATOM     14  C   UNL     1      31.234  -9.627 -18.517  0.00  0.00    +0.000 C 
ATOM     15  C   UNL     1      30.751  -8.555 -19.256  0.00  0.00    -0.000 C 
ENDROOT
BRANCH   2  16
ATOM     16  C   UNL     1      34.089 -15.253 -23.173  0.00  0.00    +0.104 C 
ATOM     17  C   UNL     1      33.037 -16.025 -23.980  0.00  0.00    +0.129 C 
ATOM     18  C   UNL     1      34.729 -16.131 -22.093  0.00  0.00    +0.022 C 
ATOM     19  C   UNL     1      33.599 -17.336 -24.533  0.00  0.00    +0.031 C 
ATOM     20  C   UNL     1      35.288 -17.428 -22.669  0.00  0.00    +0.002 C 
ATOM     21  C   UNL     1      34.222 -18.198 -23.444  0.00  0.00    +0.003 C 
BRANCH  17  22
ATOM     22  O   UNL     1      32.607 -15.216 -25.073  0.00  0.00    -0.383 OA
ATOM     23  H   UNL     1      33.022 -14.341 -25.011  0.00  0.00    +0.210 HD
ENDBRANCH  17  22
ENDBRANCH   2  16
BRANCH  10  24
ATOM     24  C   UNL     1      30.919  -8.577 -23.555  0.00  0.00    +0.054 C 
BRANCH  24  26
ATOM     25  N   UNL     1      32.660  -5.670 -25.258  0.00  0.00    -0.248 NA
ATOM     26  C   UNL     1      31.981  -7.560 -23.913  0.00  0.00    +0.001 C 
ATOM     27  C   UNL     1      33.214  -7.557 -23.271  0.00  0.00    -0.001 C 
ATOM     28  C   UNL     1      31.755  -6.605 -24.890  0.00  0.00    +0.094 C 
ATOM     29  C   UNL     1      34.171  -6.611 -23.621  0.00  0.00    +0.014 C 
ATOM     30  C   UNL     1      33.847  -5.697 -24.612  0.00  0.00    +0.059 C 
ATOM     31  C   UNL     1      34.850  -4.667 -25.014  0.00  0.00    +0.052 C 
ENDBRANCH  24  26
ENDBRANCH  10  24
TORSDOF 4
ENDMDL
