MODEL 1
REMARK VINA RESULT:     -13.4      0.000      0.000
REMARK  Name = 11677589
REMARK  7 active torsions:
REMARK  status: ('A' for Active; 'I' for Inactive)
REMARK    1  A    between atoms: C_1  and  N_7
REMARK    2  A    between atoms: C_2  and  C_20
REMARK    3  A    between atoms: C_11  and  C_18
REMARK    4  A    between atoms: C_20  and  C_21
REMARK    5  A    between atoms: C_21  and  N_23
REMARK    6  A    between atoms: N_24  and  S_28
REMARK    7  A    between atoms: S_28  and  C_31
REMARK                            x       y       z     vdW  Elec       q    Type
REMARK                         _______ _______ _______ _____ _____    ______ ____
ROOT
ATOM      1  C   UNL     1      35.115 -22.382 -16.445  0.00  0.00    +0.058 C 
ATOM      2  C   UNL     1      34.951 -21.108 -18.907  0.00  0.00    -0.020 C 
ATOM      3  C   UNL     1      33.967 -22.522 -17.214  0.00  0.00    +0.015 C 
ATOM      4  C   UNL     1      36.183 -21.614 -16.891  0.00  0.00    +0.015 C 
ATOM      5  C   UNL     1      33.885 -21.882 -18.450  0.00  0.00    -0.003 C 
ATOM      6  C   UNL     1      36.101 -20.973 -18.127  0.00  0.00    -0.003 C 
ENDROOT
BRANCH   1   7
ATOM      7  N   UNL     1      35.198 -23.023 -15.208  0.00  0.00    -0.242 N 
ATOM      8  N   UNL     1      34.570 -23.817 -13.228  0.00  0.00    -0.387 NA
ATOM      9  N   UNL     1      38.095 -24.943 -13.073  0.00  0.00    -0.408 NA
ATOM     10  C   UNL     1      36.315 -23.617 -14.680  0.00  0.00    +0.091 C 
ATOM     11  C   UNL     1      34.182 -23.168 -14.304  0.00  0.00    +0.168 C 
ATOM     12  C   UNL     1      35.896 -24.104 -13.446  0.00  0.00    +0.172 C 
ATOM     13  C   UNL     1      37.610 -23.766 -15.155  0.00  0.00    +0.045 C 
ATOM     14  C   UNL     1      36.819 -24.777 -12.644  0.00  0.00    +0.140 C 
ATOM     15  C   UNL     1      38.450 -24.448 -14.285  0.00  0.00    +0.110 C 
ATOM     16  C   UNL     1      36.481 -25.340 -11.306  0.00  0.00    +0.069 C 
ATOM     17  C   UNL     1      39.871 -24.668 -14.692  0.00  0.00    +0.066 C 
BRANCH  11  18
ATOM     18  C   UNL     1      32.820 -22.643 -14.544  0.00  0.00    +0.075 C 
ATOM     19  C   UNL     1      31.800 -23.163 -13.526  0.00  0.00    +0.009 C 
ENDBRANCH  11  18
ENDBRANCH   1   7
BRANCH   2  20
ATOM     20  C   UNL     1      34.863 -20.423 -20.229  0.00  0.00    +0.048 C 
BRANCH  20  21
ATOM     21  C   UNL     1      35.956 -19.370 -20.447  0.00  0.00    +0.096 C 
BRANCH  21  23
ATOM     22  O   UNL     1      35.211 -18.211 -22.968  0.00  0.00    -0.251 OA
ATOM     23  N   UNL     1      35.413 -18.057 -20.669  0.00  0.00    -0.287 N 
ATOM     24  N   UNL     1      34.564 -16.242 -21.889  0.00  0.00    -0.169 N 
ATOM     25  C   UNL     1      35.080 -17.576 -21.925  0.00  0.00    +0.319 C 
ATOM     26  H   UNL     1      35.272 -17.470 -19.891  0.00  0.00    +0.151 HD
ATOM     27  H   UNL     1      34.498 -15.807 -21.008  0.00  0.00    +0.178 HD
BRANCH  24  28
ATOM     28  S   UNL     1      34.055 -15.341 -23.250  0.00  0.00    +0.077 S 
ATOM     29  O   UNL     1      35.217 -14.800 -23.929  0.00  0.00    -0.150 OA
ATOM     30  O   UNL     1      33.062 -16.102 -23.983  0.00  0.00    -0.150 OA
BRANCH  28  31
ATOM     31  C   UNL     1      33.201 -14.005 -22.470  0.00  0.00    +0.125 C 
ATOM     32  C   UNL     1      32.703 -12.974 -23.249  0.00  0.00    +0.020 C 
ATOM     33  C   UNL     1      33.046 -14.012 -21.095  0.00  0.00    +0.020 C 
ATOM     34  C   UNL     1      31.863 -11.911 -21.249  0.00  0.00    -0.022 C 
ATOM     35  C   UNL     1      32.029 -11.920 -22.634  0.00  0.00    -0.003 C 
ATOM     36  C   UNL     1      32.371 -12.958 -20.479  0.00  0.00    -0.003 C 
ATOM     37  C   UNL     1      31.141 -10.785 -20.592  0.00  0.00    +0.031 C 
ENDBRANCH  28  31
ENDBRANCH  24  28
ENDBRANCH  21  23
ENDBRANCH  20  21
ENDBRANCH   2  20
TORSDOF 7
ENDMDL
MODEL 2
REMARK VINA RESULT:     -13.0      1.687      3.916
REMARK  Name = 11677589
REMARK  7 active torsions:
REMARK  status: ('A' for Active; 'I' for Inactive)
REMARK    1  A    between atoms: C_1  and  N_7
REMARK    2  A    between atoms: C_2  and  C_20
REMARK    3  A    between atoms: C_11  and  C_18
REMARK    4  A    between atoms: C_20  and  C_21
REMARK    5  A    between atoms: C_21  and  N_23
REMARK    6  A    between atoms: N_24  and  S_28
REMARK    7  A    between atoms: S_28  and  C_31
REMARK                            x       y       z     vdW  Elec       q    Type
REMARK                         _______ _______ _______ _____ _____    ______ ____
ROOT
ATOM      1  C   UNL     1      33.664 -22.227 -17.210  0.00  0.00    +0.058 C 
ATOM      2  C   UNL     1      34.771 -21.022 -19.453  0.00  0.00    -0.020 C 
ATOM      3  C   UNL     1      32.868 -21.989 -18.322  0.00  0.00    +0.015 C 
ATOM      4  C   UNL     1      35.006 -21.871 -17.203  0.00  0.00    +0.015 C 
ATOM      5  C   UNL     1      33.424 -21.383 -19.449  0.00  0.00    -0.003 C 
ATOM      6  C   UNL     1      35.563 -21.265 -18.330  0.00  0.00    -0.003 C 
ENDROOT
BRANCH   1   7
ATOM      7  N   UNL     1      33.108 -22.833 -16.082  0.00  0.00    -0.242 N 
ATOM      8  N   UNL     1      32.992 -23.944 -14.160  0.00  0.00    -0.387 NA
ATOM      9  N   UNL     1      29.356 -23.371 -14.575  0.00  0.00    -0.408 NA
ATOM     10  C   UNL     1      31.774 -22.891 -15.772  0.00  0.00    +0.091 C 
ATOM     11  C   UNL     1      33.794 -23.475 -15.089  0.00  0.00    +0.168 C 
ATOM     12  C   UNL     1      31.728 -23.590 -14.569  0.00  0.00    +0.172 C 
ATOM     13  C   UNL     1      30.640 -22.413 -16.415  0.00  0.00    +0.045 C 
ATOM     14  C   UNL     1      30.487 -23.822 -13.977  0.00  0.00    +0.140 C 
ATOM     15  C   UNL     1      29.457 -22.696 -15.747  0.00  0.00    +0.110 C 
ATOM     16  C   UNL     1      30.320 -24.557 -12.691  0.00  0.00    +0.069 C 
ATOM     17  C   UNL     1      28.171 -22.229 -16.346  0.00  0.00    +0.066 C 
BRANCH  11  18
ATOM     18  C   UNL     1      35.268 -23.607 -15.095  0.00  0.00    +0.075 C 
ATOM     19  C   UNL     1      35.733 -25.040 -14.816  0.00  0.00    +0.009 C 
ENDBRANCH  11  18
ENDBRANCH   1   7
BRANCH   2  20
ATOM     20  C   UNL     1      35.366 -20.374 -20.657  0.00  0.00    +0.048 C 
BRANCH  20  21
ATOM     21  C   UNL     1      36.240 -19.157 -20.330  0.00  0.00    +0.096 C 
BRANCH  21  23
ATOM     22  O   UNL     1      35.522 -18.054 -22.883  0.00  0.00    -0.251 OA
ATOM     23  N   UNL     1      35.560 -17.914 -20.574  0.00  0.00    -0.287 N 
ATOM     24  N   UNL     1      34.580 -16.192 -21.830  0.00  0.00    -0.169 N 
ATOM     25  C   UNL     1      35.252 -17.456 -21.845  0.00  0.00    +0.319 C 
ATOM     26  H   UNL     1      35.302 -17.361 -19.802  0.00  0.00    +0.151 HD
ATOM     27  H   UNL     1      34.408 -15.783 -20.952  0.00  0.00    +0.178 HD
BRANCH  24  28
ATOM     28  S   UNL     1      34.054 -15.336 -23.213  0.00  0.00    +0.077 S 
ATOM     29  O   UNL     1      35.206 -14.802 -23.914  0.00  0.00    -0.150 OA
ATOM     30  O   UNL     1      33.065 -16.128 -23.920  0.00  0.00    -0.150 OA
BRANCH  28  31
ATOM     31  C   UNL     1      33.189 -13.988 -22.467  0.00  0.00    +0.125 C 
ATOM     32  C   UNL     1      32.732 -12.953 -23.265  0.00  0.00    +0.020 C 
ATOM     33  C   UNL     1      32.985 -13.990 -21.098  0.00  0.00    +0.020 C 
ATOM     34  C   UNL     1      31.834 -11.876 -21.298  0.00  0.00    -0.022 C 
ATOM     35  C   UNL     1      32.048 -11.889 -22.675  0.00  0.00    -0.003 C 
ATOM     36  C   UNL     1      32.302 -12.926 -20.509  0.00  0.00    -0.003 C 
ATOM     37  C   UNL     1      31.103 -10.739 -20.669  0.00  0.00    +0.031 C 
ENDBRANCH  28  31
ENDBRANCH  24  28
ENDBRANCH  21  23
ENDBRANCH  20  21
ENDBRANCH   2  20
TORSDOF 7
ENDMDL
MODEL 3
REMARK VINA RESULT:     -12.9      5.033     15.015
REMARK  Name = 11677589
REMARK  7 active torsions:
REMARK  status: ('A' for Active; 'I' for Inactive)
REMARK    1  A    between atoms: C_1  and  N_7
REMARK    2  A    between atoms: C_2  and  C_20
REMARK    3  A    between atoms: C_11  and  C_18
REMARK    4  A    between atoms: C_20  and  C_21
REMARK    5  A    between atoms: C_21  and  N_23
REMARK    6  A    between atoms: N_24  and  S_28
REMARK    7  A    between atoms: S_28  and  C_31
REMARK                            x       y       z     vdW  Elec       q    Type
REMARK                         _______ _______ _______ _____ _____    ______ ____
ROOT
ATOM      1  C   UNL     1      31.915  -8.484 -22.728  0.00  0.00    +0.058 C 
ATOM      2  C   UNL     1      32.257 -11.229 -22.489  0.00  0.00    -0.020 C 
ATOM      3  C   UNL     1      33.054  -9.080 -23.253  0.00  0.00    +0.015 C 
ATOM      4  C   UNL     1      30.944  -9.241 -22.086  0.00  0.00    +0.015 C 
ATOM      5  C   UNL     1      33.226 -10.460 -23.132  0.00  0.00    -0.003 C 
ATOM      6  C   UNL     1      31.116 -10.621 -21.965  0.00  0.00    -0.003 C 
ENDROOT
BRANCH   1   7
ATOM      7  N   UNL     1      31.742  -7.104 -22.848  0.00  0.00    -0.242 N 
ATOM      8  N   UNL     1      31.329  -4.999 -22.263  0.00  0.00    -0.387 NA
ATOM      9  N   UNL     1      31.929  -4.363 -25.863  0.00  0.00    -0.408 NA
ATOM     10  C   UNL     1      31.860  -6.374 -24.002  0.00  0.00    +0.091 C 
ATOM     11  C   UNL     1      31.425  -6.239 -21.837  0.00  0.00    +0.168 C 
ATOM     12  C   UNL     1      31.597  -5.064 -23.610  0.00  0.00    +0.172 C 
ATOM     13  C   UNL     1      32.161  -6.728 -25.309  0.00  0.00    +0.045 C 
ATOM     14  C   UNL     1      31.638  -4.057 -24.574  0.00  0.00    +0.140 C 
ATOM     15  C   UNL     1      32.177  -5.655 -26.190  0.00  0.00    +0.110 C 
ATOM     16  C   UNL     1      31.374  -2.622 -24.266  0.00  0.00    +0.069 C 
ATOM     17  C   UNL     1      32.490  -5.918 -27.627  0.00  0.00    +0.066 C 
BRANCH  11  18
ATOM     18  C   UNL     1      31.219  -6.684 -20.442  0.00  0.00    +0.075 C 
ATOM     19  C   UNL     1      32.374  -6.282 -19.518  0.00  0.00    +0.009 C 
ENDBRANCH  11  18
ENDBRANCH   1   7
BRANCH   2  20
ATOM     20  C   UNL     1      32.442 -12.704 -22.360  0.00  0.00    +0.048 C 
BRANCH  20  21
ATOM     21  C   UNL     1      33.791 -13.101 -21.750  0.00  0.00    +0.096 C 
BRANCH  21  23
ATOM     22  O   UNL     1      34.953 -15.286 -23.208  0.00  0.00    -0.251 OA
ATOM     23  N   UNL     1      33.825 -14.484 -21.355  0.00  0.00    -0.287 N 
ATOM     24  N   UNL     1      34.313 -16.772 -21.522  0.00  0.00    -0.169 N 
ATOM     25  C   UNL     1      34.410 -15.477 -22.124  0.00  0.00    +0.319 C 
ATOM     26  H   UNL     1      33.413 -14.737 -20.497  0.00  0.00    +0.151 HD
ATOM     27  H   UNL     1      33.856 -16.833 -20.652  0.00  0.00    +0.178 HD
BRANCH  24  28
ATOM     28  S   UNL     1      34.923 -18.222 -22.192  0.00  0.00    +0.077 S 
ATOM     29  O   UNL     1      34.213 -18.519 -23.421  0.00  0.00    -0.150 OA
ATOM     30  O   UNL     1      36.373 -18.186 -22.170  0.00  0.00    -0.150 OA
BRANCH  28  31
ATOM     31  C   UNL     1      34.423 -19.396 -20.970  0.00  0.00    +0.125 C 
ATOM     32  C   UNL     1      35.390 -20.069 -20.242  0.00  0.00    +0.020 C 
ATOM     33  C   UNL     1      33.073 -19.622 -20.762  0.00  0.00    +0.020 C 
ATOM     34  C   UNL     1      33.639 -21.235 -19.055  0.00  0.00    -0.022 C 
ATOM     35  C   UNL     1      34.994 -20.995 -19.277  0.00  0.00    -0.003 C 
ATOM     36  C   UNL     1      32.678 -20.548 -19.797  0.00  0.00    -0.003 C 
ATOM     37  C   UNL     1      33.217 -22.225 -18.023  0.00  0.00    +0.031 C 
ENDBRANCH  28  31
ENDBRANCH  24  28
ENDBRANCH  21  23
ENDBRANCH  20  21
ENDBRANCH   2  20
TORSDOF 7
ENDMDL
MODEL 4
REMARK VINA RESULT:     -12.7      0.827      2.828
REMARK  Name = 11677589
REMARK  7 active torsions:
REMARK  status: ('A' for Active; 'I' for Inactive)
REMARK    1  A    between atoms: C_1  and  N_7
REMARK    2  A    between atoms: C_2  and  C_20
REMARK    3  A    between atoms: C_11  and  C_18
REMARK    4  A    between atoms: C_20  and  C_21
REMARK    5  A    between atoms: C_21  and  N_23
REMARK    6  A    between atoms: N_24  and  S_28
REMARK    7  A    between atoms: S_28  and  C_31
REMARK                            x       y       z     vdW  Elec       q    Type
REMARK                         _______ _______ _______ _____ _____    ______ ____
ROOT
ATOM      1  C   UNL     1      35.419 -22.048 -16.698  0.00  0.00    +0.058 C 
ATOM      2  C   UNL     1      35.104 -20.850 -19.183  0.00  0.00    -0.020 C 
ATOM      3  C   UNL     1      34.265 -22.287 -17.432  0.00  0.00    +0.015 C 
ATOM      4  C   UNL     1      36.418 -21.218 -17.189  0.00  0.00    +0.015 C 
ATOM      5  C   UNL     1      34.107 -21.685 -18.680  0.00  0.00    -0.003 C 
ATOM      6  C   UNL     1      36.260 -20.616 -18.438  0.00  0.00    -0.003 C 
ENDROOT
BRANCH   1   7
ATOM      7  N   UNL     1      35.579 -22.650 -15.449  0.00  0.00    -0.242 N 
ATOM      8  N   UNL     1      36.583 -23.612 -13.715  0.00  0.00    -0.387 NA
ATOM      9  N   UNL     1      33.140 -23.698 -12.352  0.00  0.00    -0.408 NA
ATOM     10  C   UNL     1      34.581 -22.910 -14.545  0.00  0.00    +0.091 C 
ATOM     11  C   UNL     1      36.756 -23.087 -14.907  0.00  0.00    +0.168 C 
ATOM     12  C   UNL     1      35.234 -23.510 -13.473  0.00  0.00    +0.172 C 
ATOM     13  C   UNL     1      33.212 -22.682 -14.569  0.00  0.00    +0.045 C 
ATOM     14  C   UNL     1      34.480 -23.903 -12.366  0.00  0.00    +0.140 C 
ATOM     15  C   UNL     1      32.555 -23.109 -13.424  0.00  0.00    +0.110 C 
ATOM     16  C   UNL     1      35.075 -24.554 -11.164  0.00  0.00    +0.069 C 
ATOM     17  C   UNL     1      31.075 -22.914 -13.337  0.00  0.00    +0.066 C 
BRANCH  11  18
ATOM     18  C   UNL     1      38.051 -22.967 -15.611  0.00  0.00    +0.075 C 
ATOM     19  C   UNL     1      39.107 -23.939 -15.074  0.00  0.00    +0.009 C 
ENDBRANCH  11  18
ENDBRANCH   1   7
BRANCH   2  20
ATOM     20  C   UNL     1      34.934 -20.205 -20.517  0.00  0.00    +0.048 C 
BRANCH  20  21
ATOM     21  C   UNL     1      36.025 -19.179 -20.845  0.00  0.00    +0.096 C 
BRANCH  21  23
ATOM     22  O   UNL     1      35.013 -18.014 -23.268  0.00  0.00    -0.251 OA
ATOM     23  N   UNL     1      35.495 -17.853 -21.012  0.00  0.00    -0.287 N 
ATOM     24  N   UNL     1      34.555 -16.022 -22.137  0.00  0.00    -0.169 N 
ATOM     25  C   UNL     1      35.026 -17.371 -22.223  0.00  0.00    +0.319 C 
ATOM     26  H   UNL     1      35.465 -17.258 -20.228  0.00  0.00    +0.151 HD
ATOM     27  H   UNL     1      34.607 -15.580 -21.259  0.00  0.00    +0.178 HD
BRANCH  24  28
ATOM     28  S   UNL     1      33.910 -15.115 -23.435  0.00  0.00    +0.077 S 
ATOM     29  O   UNL     1      34.996 -14.535 -24.202  0.00  0.00    -0.150 OA
ATOM     30  O   UNL     1      32.876 -15.891 -24.094  0.00  0.00    -0.150 OA
BRANCH  28  31
ATOM     31  C   UNL     1      33.094 -13.812 -22.564  0.00  0.00    +0.125 C 
ATOM     32  C   UNL     1      32.667 -12.695 -23.262  0.00  0.00    +0.020 C 
ATOM     33  C   UNL     1      32.896 -13.931 -21.199  0.00  0.00    +0.020 C 
ATOM     34  C   UNL     1      31.815 -11.771 -21.199  0.00  0.00    -0.022 C 
ATOM     35  C   UNL     1      32.022 -11.667 -22.574  0.00  0.00    -0.003 C 
ATOM     36  C   UNL     1      32.251 -12.903 -20.511  0.00  0.00    -0.003 C 
ATOM     37  C   UNL     1      31.125 -10.672 -20.465  0.00  0.00    +0.031 C 
ENDBRANCH  28  31
ENDBRANCH  24  28
ENDBRANCH  21  23
ENDBRANCH  20  21
ENDBRANCH   2  20
TORSDOF 7
ENDMDL
MODEL 5
REMARK VINA RESULT:     -12.7      4.447     11.547
REMARK  Name = 11677589
REMARK  7 active torsions:
REMARK  status: ('A' for Active; 'I' for Inactive)
REMARK    1  A    between atoms: C_1  and  N_7
REMARK    2  A    between atoms: C_2  and  C_20
REMARK    3  A    between atoms: C_11  and  C_18
REMARK    4  A    between atoms: C_20  and  C_21
REMARK    5  A    between atoms: C_21  and  N_23
REMARK    6  A    between atoms: N_24  and  S_28
REMARK    7  A    between atoms: S_28  and  C_31
REMARK                            x       y       z     vdW  Elec       q    Type
REMARK                         _______ _______ _______ _____ _____    ______ ____
ROOT
ATOM      1  C   UNL     1      34.552 -17.987 -22.071  0.00  0.00    +0.058 C 
ATOM      2  C   UNL     1      35.494 -19.795 -20.186  0.00  0.00    -0.020 C 
ATOM      3  C   UNL     1      33.669 -18.877 -21.475  0.00  0.00    +0.015 C 
ATOM      4  C   UNL     1      35.900 -17.988 -21.737  0.00  0.00    +0.015 C 
ATOM      5  C   UNL     1      34.142 -19.786 -20.528  0.00  0.00    -0.003 C 
ATOM      6  C   UNL     1      36.374 -18.897 -20.791  0.00  0.00    -0.003 C 
ENDROOT
BRANCH   1   7
ATOM      7  N   UNL     1      34.079 -17.078 -23.019  0.00  0.00    -0.242 N 
ATOM      8  N   UNL     1      33.301 -16.301 -24.951  0.00  0.00    -0.387 NA
ATOM      9  N   UNL     1      33.360 -13.065 -23.148  0.00  0.00    -0.408 NA
ATOM     10  C   UNL     1      33.914 -15.730 -22.832  0.00  0.00    +0.091 C 
ATOM     11  C   UNL     1      33.699 -17.371 -24.299  0.00  0.00    +0.168 C 
ATOM     12  C   UNL     1      33.428 -15.269 -24.051  0.00  0.00    +0.172 C 
ATOM     13  C   UNL     1      34.140 -14.900 -21.742  0.00  0.00    +0.045 C 
ATOM     14  C   UNL     1      33.152 -13.909 -24.190  0.00  0.00    +0.140 C 
ATOM     15  C   UNL     1      33.835 -13.568 -21.982  0.00  0.00    +0.110 C 
ATOM     16  C   UNL     1      32.628 -13.306 -25.450  0.00  0.00    +0.069 C 
ATOM     17  C   UNL     1      34.039 -12.580 -20.879  0.00  0.00    +0.066 C 
BRANCH  11  18
ATOM     18  C   UNL     1      33.746 -18.742 -24.851  0.00  0.00    +0.075 C 
ATOM     19  C   UNL     1      32.352 -19.338 -25.071  0.00  0.00    +0.009 C 
ENDBRANCH  11  18
ENDBRANCH   1   7
BRANCH   2  20
ATOM     20  C   UNL     1      36.000 -20.767 -19.174  0.00  0.00    +0.048 C 
BRANCH  20  21
ATOM     21  C   UNL     1      34.897 -21.623 -18.541  0.00  0.00    +0.096 C 
BRANCH  21  23
ATOM     22  O   UNL     1      33.803 -23.639 -16.812  0.00  0.00    -0.251 OA
ATOM     23  N   UNL     1      35.010 -21.688 -17.109  0.00  0.00    -0.287 N 
ATOM     24  N   UNL     1      34.692 -22.545 -14.948  0.00  0.00    -0.169 N 
ATOM     25  C   UNL     1      34.448 -22.702 -16.350  0.00  0.00    +0.319 C 
ATOM     26  H   UNL     1      35.510 -20.979 -16.645  0.00  0.00    +0.151 HD
ATOM     27  H   UNL     1      35.216 -21.761 -14.666  0.00  0.00    +0.178 HD
BRANCH  24  28
ATOM     28  S   UNL     1      34.148 -23.607 -13.725  0.00  0.00    +0.077 S 
ATOM     29  O   UNL     1      34.648 -24.943 -13.990  0.00  0.00    -0.150 OA
ATOM     30  O   UNL     1      34.351 -22.989 -12.428  0.00  0.00    -0.150 OA
BRANCH  28  31
ATOM     31  C   UNL     1      32.406 -23.603 -14.024  0.00  0.00    +0.125 C 
ATOM     32  C   UNL     1      31.796 -22.437 -14.454  0.00  0.00    +0.020 C 
ATOM     33  C   UNL     1      31.682 -24.766 -13.823  0.00  0.00    +0.020 C 
ATOM     34  C   UNL     1      29.677 -23.596 -14.493  0.00  0.00    -0.022 C 
ATOM     35  C   UNL     1      30.421 -22.434 -14.690  0.00  0.00    -0.003 C 
ATOM     36  C   UNL     1      30.307 -24.762 -14.059  0.00  0.00    -0.003 C 
ATOM     37  C   UNL     1      28.208 -23.593 -14.747  0.00  0.00    +0.031 C 
ENDBRANCH  28  31
ENDBRANCH  24  28
ENDBRANCH  21  23
ENDBRANCH  20  21
ENDBRANCH   2  20
TORSDOF 7
ENDMDL
MODEL 6
REMARK VINA RESULT:     -12.6      4.184     12.176
REMARK  Name = 11677589
REMARK  7 active torsions:
REMARK  status: ('A' for Active; 'I' for Inactive)
REMARK    1  A    between atoms: C_1  and  N_7
REMARK    2  A    between atoms: C_2  and  C_20
REMARK    3  A    between atoms: C_11  and  C_18
REMARK    4  A    between atoms: C_20  and  C_21
REMARK    5  A    between atoms: C_21  and  N_23
REMARK    6  A    between atoms: N_24  and  S_28
REMARK    7  A    between atoms: S_28  and  C_31
REMARK                            x       y       z     vdW  Elec       q    Type
REMARK                         _______ _______ _______ _____ _____    ______ ____
ROOT
ATOM      1  C   UNL     1      34.554 -18.117 -21.982  0.00  0.00    +0.058 C 
ATOM      2  C   UNL     1      35.464 -19.961 -20.116  0.00  0.00    -0.020 C 
ATOM      3  C   UNL     1      35.896 -18.125 -21.625  0.00  0.00    +0.015 C 
ATOM      4  C   UNL     1      33.660 -19.019 -21.418  0.00  0.00    +0.015 C 
ATOM      5  C   UNL     1      36.353 -19.051 -20.688  0.00  0.00    -0.003 C 
ATOM      6  C   UNL     1      34.118 -19.945 -20.481  0.00  0.00    -0.003 C 
ENDROOT
BRANCH   1   7
ATOM      7  N   UNL     1      34.095 -17.191 -22.919  0.00  0.00    -0.242 N 
ATOM      8  N   UNL     1      33.343 -16.378 -24.847  0.00  0.00    -0.387 NA
ATOM      9  N   UNL     1      33.386 -13.174 -22.988  0.00  0.00    -0.408 NA
ATOM     10  C   UNL     1      33.931 -15.846 -22.711  0.00  0.00    +0.091 C 
ATOM     11  C   UNL     1      33.730 -17.460 -24.210  0.00  0.00    +0.168 C 
ATOM     12  C   UNL     1      33.461 -15.362 -23.928  0.00  0.00    +0.172 C 
ATOM     13  C   UNL     1      34.145 -15.036 -21.604  0.00  0.00    +0.045 C 
ATOM     14  C   UNL     1      33.190 -13.999 -24.046  0.00  0.00    +0.140 C 
ATOM     15  C   UNL     1      33.846 -13.698 -21.825  0.00  0.00    +0.110 C 
ATOM     16  C   UNL     1      32.683 -13.373 -25.302  0.00  0.00    +0.069 C 
ATOM     17  C   UNL     1      34.038 -12.731 -20.702  0.00  0.00    +0.066 C 
BRANCH  11  18
ATOM     18  C   UNL     1      33.781 -18.821 -24.785  0.00  0.00    +0.075 C 
ATOM     19  C   UNL     1      32.390 -19.383 -25.095  0.00  0.00    +0.009 C 
ENDBRANCH  11  18
ENDBRANCH   1   7
BRANCH   2  20
ATOM     20  C   UNL     1      35.953 -20.951 -19.113  0.00  0.00    +0.048 C 
BRANCH  20  21
ATOM     21  C   UNL     1      34.849 -21.491 -18.196  0.00  0.00    +0.096 C 
BRANCH  21  23
ATOM     22  O   UNL     1      34.654 -23.550 -16.203  0.00  0.00    -0.251 OA
ATOM     23  N   UNL     1      35.194 -21.382 -16.804  0.00  0.00    -0.287 N 
ATOM     24  N   UNL     1      35.469 -22.078 -14.581  0.00  0.00    -0.169 N 
ATOM     25  C   UNL     1      35.068 -22.431 -15.908  0.00  0.00    +0.319 C 
ATOM     26  H   UNL     1      35.535 -20.521 -16.472  0.00  0.00    +0.151 HD
ATOM     27  H   UNL     1      35.784 -21.156 -14.434  0.00  0.00    +0.178 HD
BRANCH  24  28
ATOM     28  S   UNL     1      35.444 -23.123 -13.229  0.00  0.00    +0.077 S 
ATOM     29  O   UNL     1      35.578 -22.341 -12.014  0.00  0.00    -0.150 OA
ATOM     30  O   UNL     1      34.356 -24.071 -13.376  0.00  0.00    -0.150 OA
BRANCH  28  31
ATOM     31  C   UNL     1      36.944 -24.025 -13.471  0.00  0.00    +0.125 C 
ATOM     32  C   UNL     1      37.767 -23.696 -14.534  0.00  0.00    +0.020 C 
ATOM     33  C   UNL     1      37.269 -25.045 -12.594  0.00  0.00    +0.020 C 
ATOM     34  C   UNL     1      39.294 -25.439 -13.850  0.00  0.00    -0.022 C 
ATOM     35  C   UNL     1      38.952 -24.408 -14.725  0.00  0.00    -0.003 C 
ATOM     36  C   UNL     1      38.453 -25.757 -12.784  0.00  0.00    -0.003 C 
ATOM     37  C   UNL     1      40.560 -26.199 -14.054  0.00  0.00    +0.031 C 
ENDBRANCH  28  31
ENDBRANCH  24  28
ENDBRANCH  21  23
ENDBRANCH  20  21
ENDBRANCH   2  20
TORSDOF 7
ENDMDL
MODEL 7
REMARK VINA RESULT:     -12.3      3.440     12.586
REMARK  Name = 11677589
REMARK  7 active torsions:
REMARK  status: ('A' for Active; 'I' for Inactive)
REMARK    1  A    between atoms: C_1  and  N_7
REMARK    2  A    between atoms: C_2  and  C_20
REMARK    3  A    between atoms: C_11  and  C_18
REMARK    4  A    between atoms: C_20  and  C_21
REMARK    5  A    between atoms: C_21  and  N_23
REMARK    6  A    between atoms: N_24  and  S_28
REMARK    7  A    between atoms: S_28  and  C_31
REMARK                            x       y       z     vdW  Elec       q    Type
REMARK                         _______ _______ _______ _____ _____    ______ ____
ROOT
ATOM      1  C   UNL     1      33.433 -13.757 -22.324  0.00  0.00    +0.058 C 
ATOM      2  C   UNL     1      34.561 -16.168 -21.536  0.00  0.00    -0.020 C 
ATOM      3  C   UNL     1      33.583 -14.033 -20.971  0.00  0.00    +0.015 C 
ATOM      4  C   UNL     1      33.840 -14.670 -23.288  0.00  0.00    +0.015 C 
ATOM      5  C   UNL     1      34.149 -15.245 -20.575  0.00  0.00    -0.003 C 
ATOM      6  C   UNL     1      34.407 -15.882 -22.892  0.00  0.00    -0.003 C 
ENDROOT
BRANCH   1   7
ATOM      7  N   UNL     1      32.866 -12.545 -22.721  0.00  0.00    -0.242 N 
ATOM      8  N   UNL     1      32.184 -10.905 -24.058  0.00  0.00    -0.387 NA
ATOM      9  N   UNL     1      31.090  -9.376 -20.866  0.00  0.00    -0.408 NA
ATOM     10  C   UNL     1      32.310 -11.605 -21.893  0.00  0.00    +0.091 C 
ATOM     11  C   UNL     1      32.767 -12.081 -24.004  0.00  0.00    +0.168 C 
ATOM     12  C   UNL     1      31.892 -10.592 -22.752  0.00  0.00    +0.172 C 
ATOM     13  C   UNL     1      32.141 -11.550 -20.516  0.00  0.00    +0.045 C 
ATOM     14  C   UNL     1      31.273  -9.467 -22.207  0.00  0.00    +0.140 C 
ATOM     15  C   UNL     1      31.516 -10.392 -20.076  0.00  0.00    +0.110 C 
ATOM     16  C   UNL     1      30.786  -8.324 -23.032  0.00  0.00    +0.069 C 
ATOM     17  C   UNL     1      31.281 -10.223 -18.610  0.00  0.00    +0.066 C 
BRANCH  11  18
ATOM     18  C   UNL     1      33.269 -12.843 -25.168  0.00  0.00    +0.075 C 
ATOM     19  C   UNL     1      32.342 -12.743 -26.384  0.00  0.00    +0.009 C 
ENDBRANCH  11  18
ENDBRANCH   1   7
BRANCH   2  20
ATOM     20  C   UNL     1      35.167 -17.464 -21.112  0.00  0.00    +0.048 C 
BRANCH  20  21
ATOM     21  C   UNL     1      34.200 -18.651 -21.203  0.00  0.00    +0.096 C 
BRANCH  21  23
ATOM     22  O   UNL     1      32.314 -20.565 -20.188  0.00  0.00    -0.251 OA
ATOM     23  N   UNL     1      34.424 -19.619 -20.164  0.00  0.00    -0.287 N 
ATOM     24  N   UNL     1      33.914 -21.369 -18.687  0.00  0.00    -0.169 N 
ATOM     25  C   UNL     1      33.453 -20.509 -19.734  0.00  0.00    +0.319 C 
ATOM     26  H   UNL     1      35.310 -19.651 -19.736  0.00  0.00    +0.151 HD
ATOM     27  H   UNL     1      34.842 -21.251 -18.381  0.00  0.00    +0.178 HD
BRANCH  24  28
ATOM     28  S   UNL     1      32.984 -22.582 -17.923  0.00  0.00    +0.077 S 
ATOM     29  O   UNL     1      31.646 -22.079 -17.675  0.00  0.00    -0.150 OA
ATOM     30  O   UNL     1      33.178 -23.842 -18.615  0.00  0.00    -0.150 OA
BRANCH  28  31
ATOM     31  C   UNL     1      33.817 -22.719 -16.370  0.00  0.00    +0.125 C 
ATOM     32  C   UNL     1      33.126 -23.202 -15.272  0.00  0.00    +0.020 C 
ATOM     33  C   UNL     1      35.145 -22.341 -16.280  0.00  0.00    +0.020 C 
ATOM     34  C   UNL     1      35.122 -22.934 -13.938  0.00  0.00    -0.022 C 
ATOM     35  C   UNL     1      33.784 -23.310 -14.046  0.00  0.00    -0.003 C 
ATOM     36  C   UNL     1      35.803 -22.450 -15.054  0.00  0.00    -0.003 C 
ATOM     37  C   UNL     1      35.825 -23.051 -12.628  0.00  0.00    +0.031 C 
ENDBRANCH  28  31
ENDBRANCH  24  28
ENDBRANCH  21  23
ENDBRANCH  20  21
ENDBRANCH   2  20
TORSDOF 7
ENDMDL
MODEL 8
REMARK VINA RESULT:     -12.2      4.544     11.902
REMARK  Name = 11677589
REMARK  7 active torsions:
REMARK  status: ('A' for Active; 'I' for Inactive)
REMARK    1  A    between atoms: C_1  and  N_7
REMARK    2  A    between atoms: C_2  and  C_20
REMARK    3  A    between atoms: C_11  and  C_18
REMARK    4  A    between atoms: C_20  and  C_21
REMARK    5  A    between atoms: C_21  and  N_23
REMARK    6  A    between atoms: N_24  and  S_28
REMARK    7  A    between atoms: S_28  and  C_31
REMARK                            x       y       z     vdW  Elec       q    Type
REMARK                         _______ _______ _______ _____ _____    ______ ____
ROOT
ATOM      1  C   UNL     1      34.446 -18.880 -21.511  0.00  0.00    +0.058 C 
ATOM      2  C   UNL     1      35.095 -20.647 -19.471  0.00  0.00    -0.020 C 
ATOM      3  C   UNL     1      35.760 -18.964 -21.070  0.00  0.00    +0.015 C 
ATOM      4  C   UNL     1      33.452 -19.668 -20.946  0.00  0.00    +0.015 C 
ATOM      5  C   UNL     1      36.086 -19.852 -20.045  0.00  0.00    -0.003 C 
ATOM      6  C   UNL     1      33.778 -20.555 -19.920  0.00  0.00    -0.003 C 
ENDROOT
BRANCH   1   7
ATOM      7  N   UNL     1      34.119 -17.991 -22.537  0.00  0.00    -0.242 N 
ATOM      8  N   UNL     1      33.571 -17.265 -24.565  0.00  0.00    -0.387 NA
ATOM      9  N   UNL     1      33.660 -13.955 -22.903  0.00  0.00    -0.408 NA
ATOM     10  C   UNL     1      34.020 -16.629 -22.423  0.00  0.00    +0.091 C 
ATOM     11  C   UNL     1      33.841 -18.323 -23.835  0.00  0.00    +0.168 C 
ATOM     12  C   UNL     1      33.677 -16.200 -23.702  0.00  0.00    +0.172 C 
ATOM     13  C   UNL     1      34.194 -15.762 -21.354  0.00  0.00    +0.045 C 
ATOM     14  C   UNL     1      33.498 -14.834 -23.923  0.00  0.00    +0.140 C 
ATOM     15  C   UNL     1      33.994 -14.428 -21.677  0.00  0.00    +0.110 C 
ATOM     16  C   UNL     1      33.130 -14.264 -25.251  0.00  0.00    +0.069 C 
ATOM     17  C   UNL     1      34.155 -13.402 -20.602  0.00  0.00    +0.066 C 
BRANCH  11  18
ATOM     18  C   UNL     1      33.856 -19.719 -24.321  0.00  0.00    +0.075 C 
ATOM     19  C   UNL     1      35.275 -20.269 -24.495  0.00  0.00    +0.009 C 
ENDBRANCH  11  18
ENDBRANCH   1   7
BRANCH   2  20
ATOM     20  C   UNL     1      35.444 -21.596 -18.374  0.00  0.00    +0.048 C 
BRANCH  20  21
ATOM     21  C   UNL     1      35.973 -20.905 -17.111  0.00  0.00    +0.096 C 
BRANCH  21  23
ATOM     22  O   UNL     1      36.178 -23.316 -15.563  0.00  0.00    -0.251 OA
ATOM     23  N   UNL     1      37.178 -21.517 -16.618  0.00  0.00    -0.287 N 
ATOM     24  N   UNL     1      38.503 -23.094 -15.495  0.00  0.00    -0.169 N 
ATOM     25  C   UNL     1      37.184 -22.686 -15.875  0.00  0.00    +0.319 C 
ATOM     26  H   UNL     1      38.039 -21.083 -16.817  0.00  0.00    +0.151 HD
ATOM     27  H   UNL     1      39.252 -22.525 -15.786  0.00  0.00    +0.178 HD
BRANCH  24  28
ATOM     28  S   UNL     1      38.882 -24.485 -14.578  0.00  0.00    +0.077 S 
ATOM     29  O   UNL     1      38.454 -25.668 -15.299  0.00  0.00    -0.150 OA
ATOM     30  O   UNL     1      40.242 -24.377 -14.083  0.00  0.00    -0.150 OA
BRANCH  28  31
ATOM     31  C   UNL     1      37.815 -24.273 -13.185  0.00  0.00    +0.125 C 
ATOM     32  C   UNL     1      37.832 -23.072 -12.496  0.00  0.00    +0.020 C 
ATOM     33  C   UNL     1      36.980 -25.311 -12.809  0.00  0.00    +0.020 C 
ATOM     34  C   UNL     1      36.142 -23.941 -11.005  0.00  0.00    -0.022 C 
ATOM     35  C   UNL     1      36.989 -22.905 -11.397  0.00  0.00    -0.003 C 
ATOM     36  C   UNL     1      36.137 -25.144 -11.711  0.00  0.00    -0.003 C 
ATOM     37  C   UNL     1      35.240 -23.761  -9.831  0.00  0.00    +0.031 C 
ENDBRANCH  28  31
ENDBRANCH  24  28
ENDBRANCH  21  23
ENDBRANCH  20  21
ENDBRANCH   2  20
TORSDOF 7
ENDMDL
MODEL 9
REMARK VINA RESULT:     -12.0      4.762     14.723
REMARK  Name = 11677589
REMARK  7 active torsions:
REMARK  status: ('A' for Active; 'I' for Inactive)
REMARK    1  A    between atoms: C_1  and  N_7
REMARK    2  A    between atoms: C_2  and  C_20
REMARK    3  A    between atoms: C_11  and  C_18
REMARK    4  A    between atoms: C_20  and  C_21
REMARK    5  A    between atoms: C_21  and  N_23
REMARK    6  A    between atoms: N_24  and  S_28
REMARK    7  A    between atoms: S_28  and  C_31
REMARK                            x       y       z     vdW  Elec       q    Type
REMARK                         _______ _______ _______ _____ _____    ______ ____
ROOT
ATOM      1  C   UNL     1      31.408  -8.886 -22.770  0.00  0.00    +0.058 C 
ATOM      2  C   UNL     1      31.948 -11.564 -22.277  0.00  0.00    -0.020 C 
ATOM      3  C   UNL     1      32.542  -9.468 -23.320  0.00  0.00    +0.015 C 
ATOM      4  C   UNL     1      30.539  -9.625 -21.977  0.00  0.00    +0.015 C 
ATOM      5  C   UNL     1      32.814 -10.814 -23.072  0.00  0.00    -0.003 C 
ATOM      6  C   UNL     1      30.811 -10.971 -21.729  0.00  0.00    -0.003 C 
ENDROOT
BRANCH   1   7
ATOM      7  N   UNL     1      31.135  -7.539 -23.017  0.00  0.00    -0.242 N 
ATOM      8  N   UNL     1      30.510  -5.709 -24.114  0.00  0.00    -0.387 NA
ATOM      9  N   UNL     1      31.366  -4.053 -20.913  0.00  0.00    -0.408 NA
ATOM     10  C   UNL     1      31.294  -6.508 -22.128  0.00  0.00    +0.091 C 
ATOM     11  C   UNL     1      30.665  -7.012 -24.188  0.00  0.00    +0.168 C 
ATOM     12  C   UNL     1      30.897  -5.378 -22.837  0.00  0.00    +0.172 C 
ATOM     13  C   UNL     1      31.734  -6.463 -20.813  0.00  0.00    +0.045 C 
ATOM     14  C   UNL     1      30.941  -4.138 -22.198  0.00  0.00    +0.140 C 
ATOM     15  C   UNL     1      31.742  -5.186 -20.270  0.00  0.00    +0.110 C 
ATOM     16  C   UNL     1      30.540  -2.864 -22.860  0.00  0.00    +0.069 C 
ATOM     17  C   UNL     1      32.198  -5.016 -18.857  0.00  0.00    +0.066 C 
BRANCH  11  18
ATOM     18  C   UNL     1      30.377  -7.843 -25.378  0.00  0.00    +0.075 C 
ATOM     19  C   UNL     1      31.041  -7.303 -26.649  0.00  0.00    +0.009 C 
ENDBRANCH  11  18
ENDBRANCH   1   7
BRANCH   2  20
ATOM     20  C   UNL     1      32.239 -13.003 -22.012  0.00  0.00    +0.048 C 
BRANCH  20  21
ATOM     21  C   UNL     1      33.696 -13.271 -21.618  0.00  0.00    +0.096 C 
BRANCH  21  23
ATOM     22  O   UNL     1      34.923 -15.433 -23.057  0.00  0.00    -0.251 OA
ATOM     23  N   UNL     1      33.897 -14.617 -21.151  0.00  0.00    -0.287 N 
ATOM     24  N   UNL     1      34.582 -16.859 -21.237  0.00  0.00    -0.169 N 
ATOM     25  C   UNL     1      34.501 -15.601 -21.917  0.00  0.00    +0.319 C 
ATOM     26  H   UNL     1      33.590 -14.850 -20.246  0.00  0.00    +0.151 HD
ATOM     27  H   UNL     1      34.214 -16.904 -20.325  0.00  0.00    +0.178 HD
BRANCH  24  28
ATOM     28  S   UNL     1      35.264 -18.288 -21.881  0.00  0.00    +0.077 S 
ATOM     29  O   UNL     1      34.662 -18.569 -23.170  0.00  0.00    -0.150 OA
ATOM     30  O   UNL     1      36.706 -18.237 -21.738  0.00  0.00    -0.150 OA
BRANCH  28  31
ATOM     31  C   UNL     1      34.679 -19.491 -20.726  0.00  0.00    +0.125 C 
ATOM     32  C   UNL     1      35.592 -20.194 -19.960  0.00  0.00    +0.020 C 
ATOM     33  C   UNL     1      33.317 -19.710 -20.610  0.00  0.00    +0.020 C 
ATOM     34  C   UNL     1      33.762 -21.376 -18.918  0.00  0.00    -0.022 C 
ATOM     35  C   UNL     1      35.130 -21.143 -19.048  0.00  0.00    -0.003 C 
ATOM     36  C   UNL     1      32.855 -20.660 -19.698  0.00  0.00    -0.003 C 
ATOM     37  C   UNL     1      33.268 -22.390 -17.942  0.00  0.00    +0.031 C 
ENDBRANCH  28  31
ENDBRANCH  24  28
ENDBRANCH  21  23
ENDBRANCH  20  21
ENDBRANCH   2  20
TORSDOF 7
ENDMDL
