MODEL 1
REMARK VINA RESULT:     -12.6      0.000      0.000
REMARK  Name = 16122632
REMARK  4 active torsions:
REMARK  status: ('A' for Active; 'I' for Inactive)
REMARK    1  A    between atoms: C_1  and  C_18
REMARK    2  A    between atoms: C_2  and  C_11
REMARK    3  A    between atoms: C_18  and  C_19
REMARK    4  A    between atoms: C_18  and  N_25
REMARK                            x       y       z     vdW  Elec       q    Type
REMARK                         _______ _______ _______ _____ _____    ______ ____
ROOT
ATOM      1  C   UNL     1      34.976 -17.425 -21.925  0.00  0.00    -0.039 C 
ATOM      2  C   UNL     1      33.879 -14.926 -22.499  0.00  0.00    +0.015 C 
ATOM      3  C   UNL     1      34.722 -16.521 -20.894  0.00  0.00    -0.006 C 
ATOM      4  C   UNL     1      34.682 -17.079 -23.244  0.00  0.00    -0.006 C 
ATOM      5  C   UNL     1      34.174 -15.272 -21.180  0.00  0.00    +0.001 C 
ATOM      6  C   UNL     1      34.133 -15.829 -23.531  0.00  0.00    +0.001 C 
ENDROOT
BRANCH   2  11
ATOM      7  N   UNL     1      32.211 -13.073 -20.587  0.00  0.00    -0.271 NA
ATOM      8  N   UNL     1      33.499 -13.123 -24.031  0.00  0.00    -0.247 NA
ATOM      9  N   UNL     1      31.393 -11.088 -21.188  0.00  0.00    -0.307 N 
ATOM     10  N   UNL     1      32.240 -11.111 -23.466  0.00  0.00    -0.232 NA
ATOM     11  C   UNL     1      33.316 -13.639 -22.795  0.00  0.00    +0.077 C 
ATOM     12  C   UNL     1      32.593 -12.893 -21.886  0.00  0.00    +0.150 C 
ATOM     13  C   UNL     1      32.073 -11.654 -22.236  0.00  0.00    +0.123 C 
ATOM     14  C   UNL     1      31.495 -11.966 -20.213  0.00  0.00    +0.163 C 
ATOM     15  C   UNL     1      32.958 -11.908 -24.287  0.00  0.00    +0.251 C 
ATOM     16  H   UNL     1      32.413 -13.855 -20.023  0.00  0.00    +0.125 HD
ATOM     17  H   UNL     1      30.932 -10.219 -21.168  0.00  0.00    +0.149 HD
ENDBRANCH   2  11
BRANCH   1  18
ATOM     18  C   UNL     1      35.563 -18.761 -21.618  0.00  0.00    -0.019 C 
BRANCH  18  19
ATOM     19  C   UNL     1      34.654 -19.627 -20.738  0.00  0.00    -0.039 C 
ATOM     20  C   UNL     1      35.214 -20.509 -19.813  0.00  0.00    -0.006 C 
ATOM     21  C   UNL     1      33.268 -19.534 -20.861  0.00  0.00    -0.006 C 
ATOM     22  C   UNL     1      34.388 -21.298 -19.013  0.00  0.00    -0.000 C 
ATOM     23  C   UNL     1      32.442 -20.323 -20.060  0.00  0.00    -0.000 C 
ATOM     24  C   UNL     1      33.002 -21.204 -19.136  0.00  0.00    -0.000 C 
ENDBRANCH  18  19
BRANCH  18  25
ATOM     25  N   UNL     1      36.934 -18.669 -21.057  0.00  0.00    +0.387 N 
ATOM     26  H   UNL     1      36.995 -17.859 -20.440  0.00  0.00    -0.088 HD
ATOM     27  H   UNL     1      37.606 -18.569 -21.817  0.00  0.00    -0.088 HD
ATOM     28  H   UNL     1      37.142 -19.517 -20.528  0.00  0.00    -0.088 HD
ENDBRANCH  18  25
ENDBRANCH   1  18
TORSDOF 4
ENDMDL
MODEL 2
REMARK VINA RESULT:     -12.6      1.164      2.114
REMARK  Name = 16122632
REMARK  4 active torsions:
REMARK  status: ('A' for Active; 'I' for Inactive)
REMARK    1  A    between atoms: C_1  and  C_18
REMARK    2  A    between atoms: C_2  and  C_11
REMARK    3  A    between atoms: C_18  and  C_19
REMARK    4  A    between atoms: C_18  and  N_25
REMARK                            x       y       z     vdW  Elec       q    Type
REMARK                         _______ _______ _______ _____ _____    ______ ____
ROOT
ATOM      1  C   UNL     1      35.034 -18.236 -21.772  0.00  0.00    -0.039 C 
ATOM      2  C   UNL     1      34.061 -16.055 -23.212  0.00  0.00    +0.015 C 
ATOM      3  C   UNL     1      34.580 -18.410 -23.079  0.00  0.00    -0.006 C 
ATOM      4  C   UNL     1      35.002 -16.972 -21.185  0.00  0.00    -0.006 C 
ATOM      5  C   UNL     1      34.093 -17.320 -23.799  0.00  0.00    +0.001 C 
ATOM      6  C   UNL     1      34.516 -15.880 -21.904  0.00  0.00    +0.001 C 
ENDROOT
BRANCH   2  11
ATOM      7  N   UNL     1      33.222 -13.239 -22.098  0.00  0.00    -0.271 NA
ATOM      8  N   UNL     1      33.413 -15.054 -25.290  0.00  0.00    -0.247 NA
ATOM      9  N   UNL     1      32.454 -11.581 -23.373  0.00  0.00    -0.307 N 
ATOM     10  N   UNL     1      32.576 -12.771 -25.489  0.00  0.00    -0.232 NA
ATOM     11  C   UNL     1      33.559 -14.932 -23.952  0.00  0.00    +0.077 C 
ATOM     12  C   UNL     1      33.214 -13.726 -23.374  0.00  0.00    +0.150 C 
ATOM     13  C   UNL     1      32.734 -12.678 -24.146  0.00  0.00    +0.123 C 
ATOM     14  C   UNL     1      32.759 -11.951 -22.148  0.00  0.00    +0.163 C 
ATOM     15  C   UNL     1      32.938 -13.981 -25.967  0.00  0.00    +0.251 C 
ATOM     16  H   UNL     1      33.508 -13.725 -21.290  0.00  0.00    +0.125 HD
ATOM     17  H   UNL     1      32.104 -10.709 -23.668  0.00  0.00    +0.149 HD
ENDBRANCH   2  11
BRANCH   1  18
ATOM     18  C   UNL     1      35.555 -19.402 -21.002  0.00  0.00    -0.019 C 
BRANCH  18  19
ATOM     19  C   UNL     1      34.464 -20.131 -20.208  0.00  0.00    -0.039 C 
ATOM     20  C   UNL     1      33.123 -19.804 -20.405  0.00  0.00    -0.006 C 
ATOM     21  C   UNL     1      34.812 -21.120 -19.288  0.00  0.00    -0.006 C 
ATOM     22  C   UNL     1      32.130 -20.466 -19.682  0.00  0.00    -0.000 C 
ATOM     23  C   UNL     1      33.820 -21.781 -18.565  0.00  0.00    -0.000 C 
ATOM     24  C   UNL     1      32.479 -21.455 -18.762  0.00  0.00    -0.000 C 
ENDBRANCH  18  19
BRANCH  18  25
ATOM     25  N   UNL     1      36.709 -19.049 -20.139  0.00  0.00    +0.387 N 
ATOM     26  H   UNL     1      36.420 -18.351 -19.453  0.00  0.00    -0.088 HD
ATOM     27  H   UNL     1      37.460 -18.669 -20.714  0.00  0.00    -0.088 HD
ATOM     28  H   UNL     1      37.040 -19.884 -19.655  0.00  0.00    -0.088 HD
ENDBRANCH  18  25
ENDBRANCH   1  18
TORSDOF 4
ENDMDL
MODEL 3
REMARK VINA RESULT:     -12.4      3.236      8.391
REMARK  Name = 16122632
REMARK  4 active torsions:
REMARK  status: ('A' for Active; 'I' for Inactive)
REMARK    1  A    between atoms: C_1  and  C_18
REMARK    2  A    between atoms: C_2  and  C_11
REMARK    3  A    between atoms: C_18  and  C_19
REMARK    4  A    between atoms: C_18  and  N_25
REMARK                            x       y       z     vdW  Elec       q    Type
REMARK                         _______ _______ _______ _____ _____    ______ ____
ROOT
ATOM      1  C   UNL     1      34.663 -18.738 -21.639  0.00  0.00    -0.039 C 
ATOM      2  C   UNL     1      34.393 -20.561 -19.545  0.00  0.00    +0.015 C 
ATOM      3  C   UNL     1      35.790 -19.167 -20.938  0.00  0.00    -0.006 C 
ATOM      4  C   UNL     1      33.401 -19.220 -21.293  0.00  0.00    -0.006 C 
ATOM      5  C   UNL     1      35.656 -20.078 -19.892  0.00  0.00    +0.001 C 
ATOM      6  C   UNL     1      33.266 -20.132 -20.245  0.00  0.00    +0.001 C 
ENDROOT
BRANCH   2  11
ATOM      7  N   UNL     1      36.439 -21.148 -17.233  0.00  0.00    -0.271 NA
ATOM      8  N   UNL     1      33.126 -22.238 -18.397  0.00  0.00    -0.247 NA
ATOM      9  N   UNL     1      36.086 -22.641 -15.617  0.00  0.00    -0.307 N 
ATOM     10  N   UNL     1      33.896 -23.370 -16.377  0.00  0.00    -0.232 NA
ATOM     11  C   UNL     1      34.254 -21.498 -18.467  0.00  0.00    +0.077 C 
ATOM     12  C   UNL     1      35.211 -21.689 -17.490  0.00  0.00    +0.150 C 
ATOM     13  C   UNL     1      35.016 -22.614 -16.473  0.00  0.00    +0.123 C 
ATOM     14  C   UNL     1      36.923 -21.749 -16.101  0.00  0.00    +0.163 C 
ATOM     15  C   UNL     1      33.017 -23.117 -17.371  0.00  0.00    +0.251 C 
ATOM     16  H   UNL     1      36.892 -20.453 -17.764  0.00  0.00    +0.125 HD
ATOM     17  H   UNL     1      36.203 -23.203 -14.817  0.00  0.00    +0.149 HD
ENDBRANCH   2  11
BRANCH   1  18
ATOM     18  C   UNL     1      34.806 -17.763 -22.758  0.00  0.00    -0.019 C 
BRANCH  18  19
ATOM     19  C   UNL     1      34.452 -16.328 -22.352  0.00  0.00    -0.039 C 
ATOM     20  C   UNL     1      34.300 -16.003 -21.004  0.00  0.00    -0.006 C 
ATOM     21  C   UNL     1      34.281 -15.347 -23.329  0.00  0.00    -0.006 C 
ATOM     22  C   UNL     1      33.975 -14.697 -20.634  0.00  0.00    -0.000 C 
ATOM     23  C   UNL     1      33.958 -14.042 -22.959  0.00  0.00    -0.000 C 
ATOM     24  C   UNL     1      33.805 -13.717 -21.612  0.00  0.00    -0.000 C 
ENDBRANCH  18  19
BRANCH  18  25
ATOM     25  N   UNL     1      34.070 -18.179 -23.977  0.00  0.00    +0.387 N 
ATOM     26  H   UNL     1      33.378 -18.888 -23.731  0.00  0.00    -0.088 HD
ATOM     27  H   UNL     1      34.726 -18.566 -24.656  0.00  0.00    -0.088 HD
ATOM     28  H   UNL     1      33.598 -17.370 -24.382  0.00  0.00    -0.088 HD
ENDBRANCH  18  25
ENDBRANCH   1  18
TORSDOF 4
ENDMDL
MODEL 4
REMARK VINA RESULT:     -12.2      0.806      2.219
REMARK  Name = 16122632
REMARK  4 active torsions:
REMARK  status: ('A' for Active; 'I' for Inactive)
REMARK    1  A    between atoms: C_1  and  C_18
REMARK    2  A    between atoms: C_2  and  C_11
REMARK    3  A    between atoms: C_18  and  C_19
REMARK    4  A    between atoms: C_18  and  N_25
REMARK                            x       y       z     vdW  Elec       q    Type
REMARK                         _______ _______ _______ _____ _____    ______ ____
ROOT
ATOM      1  C   UNL     1      34.890 -16.874 -21.883  0.00  0.00    -0.039 C 
ATOM      2  C   UNL     1      33.520 -14.451 -21.704  0.00  0.00    +0.015 C 
ATOM      3  C   UNL     1      34.570 -16.344 -20.633  0.00  0.00    -0.006 C 
ATOM      4  C   UNL     1      34.524 -16.193 -23.044  0.00  0.00    -0.006 C 
ATOM      5  C   UNL     1      33.885 -15.133 -20.544  0.00  0.00    +0.001 C 
ATOM      6  C   UNL     1      33.839 -14.981 -22.955  0.00  0.00    +0.001 C 
ENDROOT
BRANCH   2  11
ATOM      7  N   UNL     1      33.770 -11.960 -23.603  0.00  0.00    -0.271 NA
ATOM      8  N   UNL     1      31.929 -13.035 -20.607  0.00  0.00    -0.247 NA
ATOM      9  N   UNL     1      32.607 -10.078 -23.337  0.00  0.00    -0.307 N 
ATOM     10  N   UNL     1      31.385 -10.778 -21.356  0.00  0.00    -0.232 NA
ATOM     11  C   UNL     1      32.815 -13.203 -21.613  0.00  0.00    +0.077 C 
ATOM     12  C   UNL     1      32.992 -12.159 -22.499  0.00  0.00    +0.150 C 
ATOM     13  C   UNL     1      32.279 -10.976 -22.354  0.00  0.00    +0.123 C 
ATOM     14  C   UNL     1      33.505 -10.700 -24.071  0.00  0.00    +0.163 C 
ATOM     15  C   UNL     1      31.278 -11.849 -20.541  0.00  0.00    +0.251 C 
ATOM     16  H   UNL     1      34.405 -12.605 -23.992  0.00  0.00    +0.125 HD
ATOM     17  H   UNL     1      32.250  -9.169 -23.466  0.00  0.00    +0.149 HD
ENDBRANCH   2  11
BRANCH   1  18
ATOM     18  C   UNL     1      35.622 -18.169 -21.979  0.00  0.00    -0.019 C 
BRANCH  18  19
ATOM     19  C   UNL     1      35.097 -19.229 -21.003  0.00  0.00    -0.039 C 
ATOM     20  C   UNL     1      33.729 -19.486 -20.924  0.00  0.00    -0.006 C 
ATOM     21  C   UNL     1      35.987 -19.935 -20.194  0.00  0.00    -0.006 C 
ATOM     22  C   UNL     1      33.250 -20.448 -20.034  0.00  0.00    -0.000 C 
ATOM     23  C   UNL     1      35.508 -20.897 -19.305  0.00  0.00    -0.000 C 
ATOM     24  C   UNL     1      34.141 -21.154 -19.226  0.00  0.00    -0.000 C 
ENDBRANCH  18  19
BRANCH  18  25
ATOM     25  N   UNL     1      37.093 -18.005 -21.862  0.00  0.00    +0.387 N 
ATOM     26  H   UNL     1      37.402 -18.352 -20.954  0.00  0.00    -0.088 HD
ATOM     27  H   UNL     1      37.333 -17.018 -21.949  0.00  0.00    -0.088 HD
ATOM     28  H   UNL     1      37.553 -18.534 -22.603  0.00  0.00    -0.088 HD
ENDBRANCH  18  25
ENDBRANCH   1  18
TORSDOF 4
ENDMDL
MODEL 5
REMARK VINA RESULT:     -11.8      3.612      8.480
REMARK  Name = 16122632
REMARK  4 active torsions:
REMARK  status: ('A' for Active; 'I' for Inactive)
REMARK    1  A    between atoms: C_1  and  C_18
REMARK    2  A    between atoms: C_2  and  C_11
REMARK    3  A    between atoms: C_18  and  C_19
REMARK    4  A    between atoms: C_18  and  N_25
REMARK                            x       y       z     vdW  Elec       q    Type
REMARK                         _______ _______ _______ _____ _____    ______ ____
ROOT
ATOM      1  C   UNL     1      34.725 -19.446 -21.237  0.00  0.00    -0.039 C 
ATOM      2  C   UNL     1      34.388 -20.995 -18.942  0.00  0.00    +0.015 C 
ATOM      3  C   UNL     1      33.443 -19.801 -20.817  0.00  0.00    -0.006 C 
ATOM      4  C   UNL     1      35.839 -19.865 -20.510  0.00  0.00    -0.006 C 
ATOM      5  C   UNL     1      33.275 -20.576 -19.670  0.00  0.00    +0.001 C 
ATOM      6  C   UNL     1      35.671 -20.640 -19.361  0.00  0.00    +0.001 C 
ENDROOT
BRANCH   2  11
ATOM      7  N   UNL     1      31.691 -21.984 -17.669  0.00  0.00    -0.271 NA
ATOM      8  N   UNL     1      35.316 -22.190 -17.084  0.00  0.00    -0.247 NA
ATOM      9  N   UNL     1      31.575 -23.224 -15.821  0.00  0.00    -0.307 N 
ATOM     10  N   UNL     1      33.969 -23.367 -15.425  0.00  0.00    -0.232 NA
ATOM     11  C   UNL     1      34.216 -21.793 -17.761  0.00  0.00    +0.077 C 
ATOM     12  C   UNL     1      32.984 -22.182 -17.274  0.00  0.00    +0.150 C 
ATOM     13  C   UNL     1      32.885 -22.955 -16.125  0.00  0.00    +0.123 C 
ATOM     14  C   UNL     1      30.884 -22.627 -16.768  0.00  0.00    +0.163 C 
ATOM     15  C   UNL     1      35.127 -22.942 -15.973  0.00  0.00    +0.251 C 
ATOM     16  H   UNL     1      31.395 -21.472 -18.457  0.00  0.00    +0.125 HD
ATOM     17  H   UNL     1      31.228 -23.748 -15.063  0.00  0.00    +0.149 HD
ENDBRANCH   2  11
BRANCH   1  18
ATOM     18  C   UNL     1      34.905 -18.618 -22.464  0.00  0.00    -0.019 C 
BRANCH  18  19
ATOM     19  C   UNL     1      34.574 -17.138 -22.242  0.00  0.00    -0.039 C 
ATOM     20  C   UNL     1      34.470 -16.634 -20.946  0.00  0.00    -0.006 C 
ATOM     21  C   UNL     1      34.375 -16.295 -23.335  0.00  0.00    -0.006 C 
ATOM     22  C   UNL     1      34.166 -15.287 -20.743  0.00  0.00    -0.000 C 
ATOM     23  C   UNL     1      34.072 -14.949 -23.133  0.00  0.00    -0.000 C 
ATOM     24  C   UNL     1      33.968 -14.445 -21.838  0.00  0.00    -0.000 C 
ENDBRANCH  18  19
BRANCH  18  25
ATOM     25  N   UNL     1      34.180 -19.167 -23.636  0.00  0.00    +0.387 N 
ATOM     26  H   UNL     1      33.973 -20.153 -23.477  0.00  0.00    -0.088 HD
ATOM     27  H   UNL     1      34.759 -19.072 -24.470  0.00  0.00    -0.088 HD
ATOM     28  H   UNL     1      33.308 -18.654 -23.767  0.00  0.00    -0.088 HD
ENDBRANCH  18  25
ENDBRANCH   1  18
TORSDOF 4
ENDMDL
MODEL 6
REMARK VINA RESULT:     -11.6      5.623     11.139
REMARK  Name = 16122632
REMARK  4 active torsions:
REMARK  status: ('A' for Active; 'I' for Inactive)
REMARK    1  A    between atoms: C_1  and  C_18
REMARK    2  A    between atoms: C_2  and  C_11
REMARK    3  A    between atoms: C_18  and  C_19
REMARK    4  A    between atoms: C_18  and  N_25
REMARK                            x       y       z     vdW  Elec       q    Type
REMARK                         _______ _______ _______ _____ _____    ______ ____
ROOT
ATOM      1  C   UNL     1      34.295 -22.035 -17.777  0.00  0.00    -0.039 C 
ATOM      2  C   UNL     1      35.618 -22.724 -15.419  0.00  0.00    +0.015 C 
ATOM      3  C   UNL     1      35.617 -21.637 -17.576  0.00  0.00    -0.006 C 
ATOM      4  C   UNL     1      33.635 -22.778 -16.799  0.00  0.00    -0.006 C 
ATOM      5  C   UNL     1      36.278 -21.981 -16.398  0.00  0.00    +0.001 C 
ATOM      6  C   UNL     1      34.296 -23.123 -15.619  0.00  0.00    +0.001 C 
ENDROOT
BRANCH   2  11
ATOM      7  N   UNL     1      37.783 -24.964 -15.013  0.00  0.00    -0.271 NA
ATOM      8  N   UNL     1      36.004 -22.393 -13.078  0.00  0.00    -0.247 NA
ATOM      9  N   UNL     1      38.758 -25.404 -13.058  0.00  0.00    -0.307 N 
ATOM     10  N   UNL     1      37.588 -23.708 -11.770  0.00  0.00    -0.232 NA
ATOM     11  C   UNL     1      36.297 -23.078 -14.205  0.00  0.00    +0.077 C 
ATOM     12  C   UNL     1      37.240 -24.083 -14.122  0.00  0.00    +0.150 C 
ATOM     13  C   UNL     1      37.862 -24.377 -12.916  0.00  0.00    +0.123 C 
ATOM     14  C   UNL     1      38.686 -25.735 -14.330  0.00  0.00    +0.163 C 
ATOM     15  C   UNL     1      36.658 -22.745 -11.945  0.00  0.00    +0.251 C 
ATOM     16  H   UNL     1      37.564 -25.033 -15.971  0.00  0.00    +0.125 HD
ATOM     17  H   UNL     1      39.329 -25.807 -12.364  0.00  0.00    +0.149 HD
ENDBRANCH   2  11
BRANCH   1  18
ATOM     18  C   UNL     1      33.588 -21.667 -19.037  0.00  0.00    -0.019 C 
BRANCH  18  19
ATOM     19  C   UNL     1      34.288 -20.545 -19.811  0.00  0.00    -0.039 C 
ATOM     20  C   UNL     1      33.540 -19.667 -20.595  0.00  0.00    -0.006 C 
ATOM     21  C   UNL     1      35.673 -20.401 -19.733  0.00  0.00    -0.006 C 
ATOM     22  C   UNL     1      34.177 -18.646 -21.302  0.00  0.00    -0.000 C 
ATOM     23  C   UNL     1      36.310 -19.381 -20.439  0.00  0.00    -0.000 C 
ATOM     24  C   UNL     1      35.562 -18.503 -21.223  0.00  0.00    -0.000 C 
ENDBRANCH  18  19
BRANCH  18  25
ATOM     25  N   UNL     1      32.152 -21.361 -18.819  0.00  0.00    +0.387 N 
ATOM     26  H   UNL     1      31.773 -21.995 -18.115  0.00  0.00    -0.088 HD
ATOM     27  H   UNL     1      31.642 -21.480 -19.693  0.00  0.00    -0.088 HD
ATOM     28  H   UNL     1      32.055 -20.398 -18.497  0.00  0.00    -0.088 HD
ENDBRANCH  18  25
ENDBRANCH   1  18
TORSDOF 4
ENDMDL
MODEL 7
REMARK VINA RESULT:     -11.3      2.058      3.773
REMARK  Name = 16122632
REMARK  4 active torsions:
REMARK  status: ('A' for Active; 'I' for Inactive)
REMARK    1  A    between atoms: C_1  and  C_18
REMARK    2  A    between atoms: C_2  and  C_11
REMARK    3  A    between atoms: C_18  and  C_19
REMARK    4  A    between atoms: C_18  and  N_25
REMARK                            x       y       z     vdW  Elec       q    Type
REMARK                         _______ _______ _______ _____ _____    ______ ____
ROOT
ATOM      1  C   UNL     1      35.037 -20.432 -19.659  0.00  0.00    -0.039 C 
ATOM      2  C   UNL     1      34.628 -18.259 -21.359  0.00  0.00    +0.015 C 
ATOM      3  C   UNL     1      36.110 -19.619 -20.022  0.00  0.00    -0.006 C 
ATOM      4  C   UNL     1      33.759 -20.159 -20.146  0.00  0.00    -0.006 C 
ATOM      5  C   UNL     1      35.906 -18.532 -20.872  0.00  0.00    +0.001 C 
ATOM      6  C   UNL     1      33.554 -19.072 -20.996  0.00  0.00    +0.001 C 
ENDROOT
BRANCH   2  11
ATOM      7  N   UNL     1      34.167 -15.255 -20.563  0.00  0.00    -0.271 NA
ATOM      8  N   UNL     1      34.408 -17.359 -23.569  0.00  0.00    -0.247 NA
ATOM      9  N   UNL     1      33.850 -13.616 -22.040  0.00  0.00    -0.307 N 
ATOM     10  N   UNL     1      34.008 -14.998 -24.033  0.00  0.00    -0.232 NA
ATOM     11  C   UNL     1      34.417 -17.141 -22.235  0.00  0.00    +0.077 C 
ATOM     12  C   UNL     1      34.222 -15.848 -21.792  0.00  0.00    +0.150 C 
ATOM     13  C   UNL     1      34.023 -14.810 -22.692  0.00  0.00    +0.123 C 
ATOM     14  C   UNL     1      33.943 -13.918 -20.763  0.00  0.00    +0.163 C 
ATOM     15  C   UNL     1      34.206 -16.289 -24.375  0.00  0.00    +0.251 C 
ATOM     16  H   UNL     1      34.269 -15.705 -19.693  0.00  0.00    +0.125 HD
ATOM     17  H   UNL     1      33.693 -12.730 -22.439  0.00  0.00    +0.149 HD
ENDBRANCH   2  11
BRANCH   1  18
ATOM     18  C   UNL     1      35.255 -21.594 -18.750  0.00  0.00    -0.019 C 
BRANCH  18  19
ATOM     19  C   UNL     1      34.011 -21.955 -17.930  0.00  0.00    -0.039 C 
ATOM     20  C   UNL     1      34.152 -22.567 -16.684  0.00  0.00    -0.006 C 
ATOM     21  C   UNL     1      32.740 -21.673 -18.428  0.00  0.00    -0.006 C 
ATOM     22  C   UNL     1      33.020 -22.898 -15.938  0.00  0.00    -0.000 C 
ATOM     23  C   UNL     1      31.609 -22.003 -17.682  0.00  0.00    -0.000 C 
ATOM     24  C   UNL     1      31.749 -22.614 -16.437  0.00  0.00    -0.000 C 
ENDBRANCH  18  19
BRANCH  18  25
ATOM     25  N   UNL     1      36.447 -21.425 -17.882  0.00  0.00    +0.387 N 
ATOM     26  H   UNL     1      36.680 -22.319 -17.447  0.00  0.00    -0.088 HD
ATOM     27  H   UNL     1      36.246 -20.736 -17.158  0.00  0.00    -0.088 HD
ATOM     28  H   UNL     1      37.235 -21.106 -18.446  0.00  0.00    -0.088 HD
ENDBRANCH  18  25
ENDBRANCH   1  18
TORSDOF 4
ENDMDL
MODEL 8
REMARK VINA RESULT:     -11.1      1.888      7.496
REMARK  Name = 16122632
REMARK  4 active torsions:
REMARK  status: ('A' for Active; 'I' for Inactive)
REMARK    1  A    between atoms: C_1  and  C_18
REMARK    2  A    between atoms: C_2  and  C_11
REMARK    3  A    between atoms: C_18  and  C_19
REMARK    4  A    between atoms: C_18  and  N_25
REMARK                            x       y       z     vdW  Elec       q    Type
REMARK                         _______ _______ _______ _____ _____    ______ ____
ROOT
ATOM      1  C   UNL     1      33.942 -15.051 -23.231  0.00  0.00    -0.039 C 
ATOM      2  C   UNL     1      34.609 -17.290 -21.707  0.00  0.00    +0.015 C 
ATOM      3  C   UNL     1      34.149 -14.924 -21.857  0.00  0.00    -0.006 C 
ATOM      4  C   UNL     1      34.070 -16.297 -23.843  0.00  0.00    -0.006 C 
ATOM      5  C   UNL     1      34.482 -16.043 -21.095  0.00  0.00    +0.001 C 
ATOM      6  C   UNL     1      34.403 -17.418 -23.081  0.00  0.00    +0.001 C 
ENDROOT
BRANCH   2  11
ATOM      7  N   UNL     1      32.692 -19.565 -20.698  0.00  0.00    -0.271 NA
ATOM      8  N   UNL     1      36.240 -18.612 -20.552  0.00  0.00    -0.247 NA
ATOM      9  N   UNL     1      33.367 -21.306 -19.481  0.00  0.00    -0.307 N 
ATOM     10  N   UNL     1      35.714 -20.685 -19.378  0.00  0.00    -0.232 NA
ATOM     11  C   UNL     1      34.952 -18.443 -20.923  0.00  0.00    +0.077 C 
ATOM     12  C   UNL     1      34.036 -19.396 -20.524  0.00  0.00    +0.150 C 
ATOM     13  C   UNL     1      34.431 -20.489 -19.765  0.00  0.00    +0.123 C 
ATOM     14  C   UNL     1      32.337 -20.722 -20.056  0.00  0.00    +0.163 C 
ATOM     15  C   UNL     1      36.538 -19.707 -19.812  0.00  0.00    +0.251 C 
ATOM     16  H   UNL     1      32.088 -18.965 -21.194  0.00  0.00    +0.125 HD
ATOM     17  H   UNL     1      33.372 -22.142 -18.962  0.00  0.00    +0.149 HD
ENDBRANCH   2  11
BRANCH   1  18
ATOM     18  C   UNL     1      33.586 -13.854 -24.046  0.00  0.00    -0.019 C 
BRANCH  18  19
ATOM     19  C   UNL     1      32.859 -12.773 -23.237  0.00  0.00    -0.039 C 
ATOM     20  C   UNL     1      32.086 -13.131 -22.133  0.00  0.00    -0.006 C 
ATOM     21  C   UNL     1      32.971 -11.433 -23.604  0.00  0.00    -0.006 C 
ATOM     22  C   UNL     1      31.423 -12.148 -21.397  0.00  0.00    -0.000 C 
ATOM     23  C   UNL     1      32.309 -10.450 -22.868  0.00  0.00    -0.000 C 
ATOM     24  C   UNL     1      31.535 -10.807 -21.765  0.00  0.00    -0.000 C 
ENDBRANCH  18  19
BRANCH  18  25
ATOM     25  N   UNL     1      32.837 -14.204 -25.278  0.00  0.00    +0.387 N 
ATOM     26  H   UNL     1      33.047 -13.522 -26.008  0.00  0.00    -0.088 HD
ATOM     27  H   UNL     1      31.836 -14.195 -25.083  0.00  0.00    -0.088 HD
ATOM     28  H   UNL     1      33.115 -15.134 -25.592  0.00  0.00    -0.088 HD
ENDBRANCH  18  25
ENDBRANCH   1  18
TORSDOF 4
ENDMDL
MODEL 9
REMARK VINA RESULT:     -10.7      3.434      9.194
REMARK  Name = 16122632
REMARK  4 active torsions:
REMARK  status: ('A' for Active; 'I' for Inactive)
REMARK    1  A    between atoms: C_1  and  C_18
REMARK    2  A    between atoms: C_2  and  C_11
REMARK    3  A    between atoms: C_18  and  C_19
REMARK    4  A    between atoms: C_18  and  N_25
REMARK                            x       y       z     vdW  Elec       q    Type
REMARK                         _______ _______ _______ _____ _____    ______ ____
ROOT
ATOM      1  C   UNL     1      31.584  -9.800 -21.432  0.00  0.00    -0.039 C 
ATOM      2  C   UNL     1      32.452 -12.042 -22.846  0.00  0.00    +0.015 C 
ATOM      3  C   UNL     1      32.403  -9.646 -22.550  0.00  0.00    -0.006 C 
ATOM      4  C   UNL     1      31.198 -11.076 -21.021  0.00  0.00    -0.006 C 
ATOM      5  C   UNL     1      32.837 -10.766 -23.257  0.00  0.00    +0.001 C 
ATOM      6  C   UNL     1      31.632 -12.198 -21.728  0.00  0.00    +0.001 C 
ENDROOT
BRANCH   2  11
ATOM      7  N   UNL     1      33.956 -14.559 -21.717  0.00  0.00    -0.271 NA
ATOM      8  N   UNL     1      32.668 -13.252 -24.903  0.00  0.00    -0.247 NA
ATOM      9  N   UNL     1      34.594 -16.287 -22.972  0.00  0.00    -0.307 N 
ATOM     10  N   UNL     1      33.747 -15.432 -25.083  0.00  0.00    -0.232 NA
ATOM     11  C   UNL     1      32.899 -13.197 -23.573  0.00  0.00    +0.077 C 
ATOM     12  C   UNL     1      33.556 -14.261 -22.989  0.00  0.00    +0.150 C 
ATOM     13  C   UNL     1      33.964 -15.349 -23.749  0.00  0.00    +0.123 C 
ATOM     14  C   UNL     1      34.573 -15.782 -21.757  0.00  0.00    +0.163 C 
ATOM     15  C   UNL     1      33.100 -14.350 -25.567  0.00  0.00    +0.251 C 
ATOM     16  H   UNL     1      33.825 -13.998 -20.919  0.00  0.00    +0.125 HD
ATOM     17  H   UNL     1      34.978 -17.147 -23.259  0.00  0.00    +0.149 HD
ENDBRANCH   2  11
BRANCH   1  18
ATOM     18  C   UNL     1      31.119  -8.602 -20.676  0.00  0.00    -0.019 C 
BRANCH  18  19
ATOM     19  C   UNL     1      31.255  -7.300 -21.474  0.00  0.00    -0.039 C 
ATOM     20  C   UNL     1      32.187  -6.338 -21.084  0.00  0.00    -0.006 C 
ATOM     21  C   UNL     1      30.448  -7.076 -22.588  0.00  0.00    -0.006 C 
ATOM     22  C   UNL     1      32.310  -5.152 -21.809  0.00  0.00    -0.000 C 
ATOM     23  C   UNL     1      30.571  -5.891 -23.313  0.00  0.00    -0.000 C 
ATOM     24  C   UNL     1      31.502  -4.930 -22.924  0.00  0.00    -0.000 C 
ENDBRANCH  18  19
BRANCH  18  25
ATOM     25  N   UNL     1      31.754  -8.488 -19.339  0.00  0.00    +0.387 N 
ATOM     26  H   UNL     1      32.748  -8.706 -19.415  0.00  0.00    -0.088 HD
ATOM     27  H   UNL     1      31.311  -9.142 -18.695  0.00  0.00    -0.088 HD
ATOM     28  H   UNL     1      31.641  -7.536 -18.989  0.00  0.00    -0.088 HD
ENDBRANCH  18  25
ENDBRANCH   1  18
TORSDOF 4
ENDMDL
