MODEL 1
REMARK VINA RESULT:     -12.5      0.000      0.000
REMARK  Name = 5288710
REMARK  3 active torsions:
REMARK  status: ('A' for Active; 'I' for Inactive)
REMARK    1  A    between atoms: C_6  and  N_18
REMARK    2  A    between atoms: C_9  and  C_15
REMARK    3  A    between atoms: N_18  and  C_29
REMARK                            x       y       z     vdW  Elec       q    Type
REMARK                         _______ _______ _______ _____ _____    ______ ____
ROOT
ATOM      1  O   UNL     1      35.746 -21.837 -17.800  0.00  0.00    -0.270 OA
ATOM      2  N   UNL     1      36.553 -20.075 -19.151  0.00  0.00    -0.280 N 
ATOM      3  C   UNL     1      34.763 -19.796 -20.568  0.00  0.00    +0.019 C 
ATOM      4  C   UNL     1      34.460 -20.870 -19.627  0.00  0.00    +0.069 C 
ATOM      5  C   UNL     1      36.044 -19.349 -20.234  0.00  0.00    +0.051 C 
ATOM      6  C   UNL     1      33.355 -21.614 -19.539  0.00  0.00    +0.066 C 
ATOM      7  C   UNL     1      35.639 -21.037 -18.712  0.00  0.00    +0.251 C 
ATOM      8  C   UNL     1      34.063 -19.220 -21.612  0.00  0.00    +0.005 C 
ATOM      9  C   UNL     1      34.680 -18.182 -22.317  0.00  0.00    +0.036 C 
ATOM     10  C   UNL     1      36.671 -18.325 -20.917  0.00  0.00    +0.015 C 
ATOM     11  C   UNL     1      35.971 -17.738 -21.974  0.00  0.00    +0.004 C 
ATOM     12  H   UNL     1      37.439 -19.926 -18.750  0.00  0.00    +0.155 HD
ENDROOT
BRANCH   9  15
ATOM     13  O   UNL     1      34.207 -16.227 -23.581  0.00  0.00    -0.431 OA
ATOM     14  N   UNL     1      32.767 -16.919 -25.183  0.00  0.00    -0.203 NA
ATOM     15  C   UNL     1      33.983 -17.556 -23.415  0.00  0.00    +0.166 C 
ATOM     16  C   UNL     1      33.115 -17.976 -24.381  0.00  0.00    +0.140 C 
ATOM     17  C   UNL     1      33.441 -15.918 -24.664  0.00  0.00    +0.285 C 
ENDBRANCH   9  15
BRANCH   6  18
ATOM     18  N   UNL     1      33.090 -22.606 -18.662  0.00  0.00    -0.311 N 
ATOM     19  H   UNL     1      33.494 -23.479 -18.870  0.00  0.00    +0.152 HD
BRANCH  18  29
ATOM     20  S   UNL     1      31.140 -23.206 -12.745  0.00  0.00    -0.002 S 
ATOM     21  O   UNL     1      30.659 -24.551 -12.496  0.00  0.00    -0.172 OA
ATOM     22  O   UNL     1      31.415 -22.285 -11.661  0.00  0.00    -0.172 OA
ATOM     23  C   UNL     1      32.596 -23.320 -13.773  0.00  0.00    +0.177 C 
ATOM     24  C   UNL     1      30.013 -22.417 -13.883  0.00  0.00    +0.177 C 
ATOM     25  C   UNL     1      32.086 -22.915 -15.114  0.00  0.00    +0.000 C 
ATOM     26  C   UNL     1      30.765 -22.453 -15.171  0.00  0.00    -0.001 C 
ATOM     27  C   UNL     1      32.861 -22.965 -16.270  0.00  0.00    +0.012 C 
ATOM     28  C   UNL     1      30.218 -22.041 -16.384  0.00  0.00    -0.002 C 
ATOM     29  C   UNL     1      32.312 -22.556 -17.486  0.00  0.00    +0.048 C 
ATOM     30  C   UNL     1      30.994 -22.095 -17.542  0.00  0.00    +0.014 C 
ENDBRANCH  18  29
ENDBRANCH   6  18
TORSDOF 3
ENDMDL
MODEL 2
REMARK VINA RESULT:     -12.3      3.771      9.602
REMARK  Name = 5288710
REMARK  3 active torsions:
REMARK  status: ('A' for Active; 'I' for Inactive)
REMARK    1  A    between atoms: C_6  and  N_18
REMARK    2  A    between atoms: C_9  and  C_15
REMARK    3  A    between atoms: N_18  and  C_29
REMARK                            x       y       z     vdW  Elec       q    Type
REMARK                         _______ _______ _______ _____ _____    ______ ____
ROOT
ATOM      1  O   UNL     1      32.014 -21.206 -20.206  0.00  0.00    -0.270 OA
ATOM      2  N   UNL     1      31.872 -22.022 -17.994  0.00  0.00    -0.280 N 
ATOM      3  C   UNL     1      34.100 -22.047 -17.425  0.00  0.00    +0.019 C 
ATOM      4  C   UNL     1      33.965 -21.561 -18.794  0.00  0.00    +0.069 C 
ATOM      5  C   UNL     1      32.800 -22.311 -16.987  0.00  0.00    +0.051 C 
ATOM      6  C   UNL     1      34.925 -21.177 -19.640  0.00  0.00    +0.066 C 
ATOM      7  C   UNL     1      32.507 -21.552 -19.148  0.00  0.00    +0.251 C 
ATOM      8  C   UNL     1      35.183 -22.259 -16.593  0.00  0.00    +0.005 C 
ATOM      9  C   UNL     1      34.932 -22.746 -15.306  0.00  0.00    +0.036 C 
ATOM     10  C   UNL     1      32.529 -22.792 -15.720  0.00  0.00    +0.015 C 
ATOM     11  C   UNL     1      33.618 -23.010 -14.873  0.00  0.00    +0.004 C 
ATOM     12  H   UNL     1      30.898 -22.135 -17.901  0.00  0.00    +0.155 HD
ENDROOT
BRANCH   9  15
ATOM     13  O   UNL     1      35.803 -22.717 -13.096  0.00  0.00    -0.431 OA
ATOM     14  N   UNL     1      37.929 -23.459 -13.312  0.00  0.00    -0.203 NA
ATOM     15  C   UNL     1      36.036 -22.984 -14.407  0.00  0.00    +0.166 C 
ATOM     16  C   UNL     1      37.317 -23.432 -14.540  0.00  0.00    +0.140 C 
ATOM     17  C   UNL     1      36.988 -23.028 -12.503  0.00  0.00    +0.285 C 
ENDBRANCH   9  15
BRANCH   6  18
ATOM     18  N   UNL     1      34.785 -20.729 -20.906  0.00  0.00    -0.311 N 
ATOM     19  H   UNL     1      34.733 -21.424 -21.602  0.00  0.00    +0.152 HD
BRANCH  18  29
ATOM     20  S   UNL     1      33.804 -15.673 -24.463  0.00  0.00    -0.002 S 
ATOM     21  O   UNL     1      34.906 -15.470 -25.383  0.00  0.00    -0.172 OA
ATOM     22  O   UNL     1      32.544 -14.977 -24.621  0.00  0.00    -0.172 OA
ATOM     23  C   UNL     1      33.472 -17.426 -24.374  0.00  0.00    +0.177 C 
ATOM     24  C   UNL     1      34.405 -15.383 -22.806  0.00  0.00    +0.177 C 
ATOM     25  C   UNL     1      34.065 -17.807 -23.061  0.00  0.00    +0.000 C 
ATOM     26  C   UNL     1      34.542 -16.763 -22.259  0.00  0.00    -0.001 C 
ATOM     27  C   UNL     1      34.142 -19.125 -22.614  0.00  0.00    +0.012 C 
ATOM     28  C   UNL     1      35.096 -17.035 -21.010  0.00  0.00    -0.002 C 
ATOM     29  C   UNL     1      34.700 -19.397 -21.365  0.00  0.00    +0.048 C 
ATOM     30  C   UNL     1      35.176 -18.355 -20.565  0.00  0.00    +0.014 C 
ENDBRANCH  18  29
ENDBRANCH   6  18
TORSDOF 3
ENDMDL
MODEL 3
REMARK VINA RESULT:     -12.2      3.736      9.149
REMARK  Name = 5288710
REMARK  3 active torsions:
REMARK  status: ('A' for Active; 'I' for Inactive)
REMARK    1  A    between atoms: C_6  and  N_18
REMARK    2  A    between atoms: C_9  and  C_15
REMARK    3  A    between atoms: N_18  and  C_29
REMARK                            x       y       z     vdW  Elec       q    Type
REMARK                         _______ _______ _______ _____ _____    ______ ____
ROOT
ATOM      1  O   UNL     1      32.824 -19.358 -21.993  0.00  0.00    -0.270 OA
ATOM      2  N   UNL     1      32.364 -20.706 -20.108  0.00  0.00    -0.280 N 
ATOM      3  C   UNL     1      34.463 -20.832 -19.177  0.00  0.00    +0.019 C 
ATOM      4  C   UNL     1      34.529 -20.020 -20.387  0.00  0.00    +0.069 C 
ATOM      5  C   UNL     1      33.127 -21.223 -19.054  0.00  0.00    +0.051 C 
ATOM      6  C   UNL     1      35.591 -19.418 -20.929  0.00  0.00    +0.066 C 
ATOM      7  C   UNL     1      33.152 -19.950 -20.981  0.00  0.00    +0.251 C 
ATOM      8  C   UNL     1      35.403 -21.228 -18.243  0.00  0.00    +0.005 C 
ATOM      9  C   UNL     1      34.971 -22.027 -17.180  0.00  0.00    +0.036 C 
ATOM     10  C   UNL     1      32.679 -22.011 -18.012  0.00  0.00    +0.015 C 
ATOM     11  C   UNL     1      33.622 -22.416 -17.065  0.00  0.00    +0.004 C 
ATOM     12  H   UNL     1      31.398 -20.857 -20.220  0.00  0.00    +0.155 HD
ENDROOT
BRANCH   9  15
ATOM     13  O   UNL     1      35.610 -23.609 -15.526  0.00  0.00    -0.431 OA
ATOM     14  N   UNL     1      37.587 -22.842 -14.739  0.00  0.00    -0.203 NA
ATOM     15  C   UNL     1      35.921 -22.463 -16.185  0.00  0.00    +0.166 C 
ATOM     16  C   UNL     1      37.114 -21.999 -15.713  0.00  0.00    +0.140 C 
ATOM     17  C   UNL     1      36.660 -23.770 -14.675  0.00  0.00    +0.285 C 
ENDBRANCH   9  15
BRANCH   6  18
ATOM     18  N   UNL     1      35.637 -18.669 -22.052  0.00  0.00    -0.311 N 
ATOM     19  H   UNL     1      36.191 -19.027 -22.782  0.00  0.00    +0.152 HD
BRANCH  18  29
ATOM     20  S   UNL     1      32.884 -13.087 -21.390  0.00  0.00    -0.002 S 
ATOM     21  O   UNL     1      31.496 -13.241 -20.999  0.00  0.00    -0.172 OA
ATOM     22  O   UNL     1      33.563 -11.810 -21.297  0.00  0.00    -0.172 OA
ATOM     23  C   UNL     1      33.847 -14.303 -20.505  0.00  0.00    +0.177 C 
ATOM     24  C   UNL     1      33.061 -13.700 -23.058  0.00  0.00    +0.177 C 
ATOM     25  C   UNL     1      34.123 -15.330 -21.550  0.00  0.00    +0.000 C 
ATOM     26  C   UNL     1      33.721 -15.022 -22.855  0.00  0.00    -0.001 C 
ATOM     27  C   UNL     1      34.761 -16.539 -21.279  0.00  0.00    +0.012 C 
ATOM     28  C   UNL     1      33.957 -15.922 -23.892  0.00  0.00    -0.002 C 
ATOM     29  C   UNL     1      34.994 -17.442 -22.317  0.00  0.00    +0.048 C 
ATOM     30  C   UNL     1      34.593 -17.134 -23.620  0.00  0.00    +0.014 C 
ENDBRANCH  18  29
ENDBRANCH   6  18
TORSDOF 3
ENDMDL
MODEL 4
REMARK VINA RESULT:     -12.2      3.490      8.970
REMARK  Name = 5288710
REMARK  3 active torsions:
REMARK  status: ('A' for Active; 'I' for Inactive)
REMARK    1  A    between atoms: C_6  and  N_18
REMARK    2  A    between atoms: C_9  and  C_15
REMARK    3  A    between atoms: N_18  and  C_29
REMARK                            x       y       z     vdW  Elec       q    Type
REMARK                         _______ _______ _______ _____ _____    ______ ____
ROOT
ATOM      1  O   UNL     1      34.925 -23.293 -16.085  0.00  0.00    -0.270 OA
ATOM      2  N   UNL     1      33.043 -23.600 -14.691  0.00  0.00    -0.280 N 
ATOM      3  C   UNL     1      31.397 -22.709 -16.027  0.00  0.00    +0.019 C 
ATOM      4  C   UNL     1      32.676 -22.614 -16.723  0.00  0.00    +0.069 C 
ATOM      5  C   UNL     1      31.677 -23.316 -14.800  0.00  0.00    +0.051 C 
ATOM      6  C   UNL     1      32.931 -22.108 -17.933  0.00  0.00    +0.066 C 
ATOM      7  C   UNL     1      33.737 -23.199 -15.837  0.00  0.00    +0.251 C 
ATOM      8  C   UNL     1      30.106 -22.339 -16.354  0.00  0.00    +0.005 C 
ATOM      9  C   UNL     1      29.098 -22.591 -15.418  0.00  0.00    +0.036 C 
ATOM     10  C   UNL     1      30.697 -23.574 -13.861  0.00  0.00    +0.015 C 
ATOM     11  C   UNL     1      29.390 -23.202 -14.184  0.00  0.00    +0.004 C 
ATOM     12  H   UNL     1      33.461 -24.028 -13.909  0.00  0.00    +0.155 HD
ENDROOT
BRANCH   9  15
ATOM     13  O   UNL     1      27.459 -21.990 -17.030  0.00  0.00    -0.431 OA
ATOM     14  N   UNL     1      25.569 -21.672 -15.828  0.00  0.00    -0.203 NA
ATOM     15  C   UNL     1      27.737 -22.217 -15.720  0.00  0.00    +0.166 C 
ATOM     16  C   UNL     1      26.598 -22.027 -14.993  0.00  0.00    +0.140 C 
ATOM     17  C   UNL     1      26.136 -21.667 -17.012  0.00  0.00    +0.285 C 
ENDBRANCH   9  15
BRANCH   6  18
ATOM     18  N   UNL     1      34.122 -22.026 -18.564  0.00  0.00    -0.311 N 
ATOM     19  H   UNL     1      34.729 -22.790 -18.430  0.00  0.00    +0.152 HD
BRANCH  18  29
ATOM     20  S   UNL     1      34.559 -17.498 -22.862  0.00  0.00    -0.002 S 
ATOM     21  O   UNL     1      34.739 -18.061 -24.186  0.00  0.00    -0.172 OA
ATOM     22  O   UNL     1      34.205 -16.106 -22.669  0.00  0.00    -0.172 OA
ATOM     23  C   UNL     1      33.374 -18.507 -21.986  0.00  0.00    +0.177 C 
ATOM     24  C   UNL     1      36.030 -17.842 -21.909  0.00  0.00    +0.177 C 
ATOM     25  C   UNL     1      34.234 -19.294 -21.057  0.00  0.00    +0.000 C 
ATOM     26  C   UNL     1      35.592 -18.954 -21.017  0.00  0.00    -0.001 C 
ATOM     27  C   UNL     1      33.742 -20.312 -20.242  0.00  0.00    +0.012 C 
ATOM     28  C   UNL     1      36.460 -19.632 -20.163  0.00  0.00    -0.002 C 
ATOM     29  C   UNL     1      34.612 -20.993 -19.390  0.00  0.00    +0.048 C 
ATOM     30  C   UNL     1      35.967 -20.653 -19.351  0.00  0.00    +0.014 C 
ENDBRANCH  18  29
ENDBRANCH   6  18
TORSDOF 3
ENDMDL
MODEL 5
REMARK VINA RESULT:     -12.0      4.271      7.537
REMARK  Name = 5288710
REMARK  3 active torsions:
REMARK  status: ('A' for Active; 'I' for Inactive)
REMARK    1  A    between atoms: C_6  and  N_18
REMARK    2  A    between atoms: C_9  and  C_15
REMARK    3  A    between atoms: N_18  and  C_29
REMARK                            x       y       z     vdW  Elec       q    Type
REMARK                         _______ _______ _______ _____ _____    ______ ____
ROOT
ATOM      1  O   UNL     1      34.381 -16.297 -25.136  0.00  0.00    -0.270 OA
ATOM      2  N   UNL     1      33.207 -14.248 -25.206  0.00  0.00    -0.280 N 
ATOM      3  C   UNL     1      33.163 -13.728 -22.966  0.00  0.00    +0.019 C 
ATOM      4  C   UNL     1      33.863 -14.995 -23.145  0.00  0.00    +0.069 C 
ATOM      5  C   UNL     1      32.787 -13.318 -24.248  0.00  0.00    +0.051 C 
ATOM      6  C   UNL     1      34.413 -15.782 -22.216  0.00  0.00    +0.066 C 
ATOM      7  C   UNL     1      33.882 -15.318 -24.611  0.00  0.00    +0.251 C 
ATOM      8  C   UNL     1      32.852 -12.960 -21.859  0.00  0.00    +0.005 C 
ATOM      9  C   UNL     1      32.151 -11.768 -22.068  0.00  0.00    +0.036 C 
ATOM     10  C   UNL     1      32.095 -12.144 -24.477  0.00  0.00    +0.015 C 
ATOM     11  C   UNL     1      31.776 -11.363 -23.363  0.00  0.00    +0.004 C 
ATOM     12  H   UNL     1      33.048 -14.159 -26.173  0.00  0.00    +0.155 HD
ENDROOT
BRANCH   9  15
ATOM     13  O   UNL     1      31.431  -9.666 -21.227  0.00  0.00    -0.431 OA
ATOM     14  N   UNL     1      31.343  -9.950 -18.984  0.00  0.00    -0.203 NA
ATOM     15  C   UNL     1      31.805 -10.939 -20.938  0.00  0.00    +0.166 C 
ATOM     16  C   UNL     1      31.753 -11.113 -19.586  0.00  0.00    +0.140 C 
ATOM     17  C   UNL     1      31.169  -9.136 -20.000  0.00  0.00    +0.285 C 
ENDBRANCH   9  15
BRANCH   6  18
ATOM     18  N   UNL     1      35.058 -16.954 -22.398  0.00  0.00    -0.311 N 
ATOM     19  H   UNL     1      35.564 -17.037 -23.238  0.00  0.00    +0.152 HD
BRANCH  18  29
ATOM     20  S   UNL     1      33.449 -21.921 -18.946  0.00  0.00    -0.002 S 
ATOM     21  O   UNL     1      32.901 -21.505 -17.670  0.00  0.00    -0.172 OA
ATOM     22  O   UNL     1      33.308 -23.281 -19.427  0.00  0.00    -0.172 OA
ATOM     23  C   UNL     1      32.832 -20.812 -20.203  0.00  0.00    +0.177 C 
ATOM     24  C   UNL     1      35.183 -21.491 -18.972  0.00  0.00    +0.177 C 
ATOM     25  C   UNL     1      34.008 -19.939 -20.478  0.00  0.00    +0.000 C 
ATOM     26  C   UNL     1      35.210 -20.286 -19.849  0.00  0.00    -0.001 C 
ATOM     27  C   UNL     1      33.954 -18.835 -21.327  0.00  0.00    +0.012 C 
ATOM     28  C   UNL     1      36.360 -19.529 -20.068  0.00  0.00    -0.002 C 
ATOM     29  C   UNL     1      35.105 -18.075 -21.542  0.00  0.00    +0.048 C 
ATOM     30  C   UNL     1      36.304 -18.422 -20.914  0.00  0.00    +0.014 C 
ENDBRANCH  18  29
ENDBRANCH   6  18
TORSDOF 3
ENDMDL
MODEL 6
REMARK VINA RESULT:     -12.0      3.527      9.217
REMARK  Name = 5288710
REMARK  3 active torsions:
REMARK  status: ('A' for Active; 'I' for Inactive)
REMARK    1  A    between atoms: C_6  and  N_18
REMARK    2  A    between atoms: C_9  and  C_15
REMARK    3  A    between atoms: N_18  and  C_29
REMARK                            x       y       z     vdW  Elec       q    Type
REMARK                         _______ _______ _______ _____ _____    ______ ____
ROOT
ATOM      1  O   UNL     1      36.406 -21.091 -18.880  0.00  0.00    -0.270 OA
ATOM      2  N   UNL     1      35.397 -22.013 -16.953  0.00  0.00    -0.280 N 
ATOM      3  C   UNL     1      33.191 -21.997 -17.601  0.00  0.00    +0.019 C 
ATOM      4  C   UNL     1      34.006 -21.451 -18.681  0.00  0.00    +0.069 C 
ATOM      5  C   UNL     1      34.085 -22.322 -16.578  0.00  0.00    +0.051 C 
ATOM      6  C   UNL     1      33.613 -20.996 -19.874  0.00  0.00    +0.066 C 
ATOM      7  C   UNL     1      35.441 -21.469 -18.240  0.00  0.00    +0.251 C 
ATOM      8  C   UNL     1      31.834 -22.217 -17.451  0.00  0.00    +0.005 C 
ATOM      9  C   UNL     1      31.393 -22.772 -16.246  0.00  0.00    +0.036 C 
ATOM     10  C   UNL     1      33.671 -22.872 -15.380  0.00  0.00    +0.015 C 
ATOM     11  C   UNL     1      32.301 -23.097 -15.220  0.00  0.00    +0.004 C 
ATOM     12  H   UNL     1      36.187 -22.160 -16.384  0.00  0.00    +0.155 HD
ENDROOT
BRANCH   9  15
ATOM     13  O   UNL     1      29.138 -22.144 -16.655  0.00  0.00    -0.431 OA
ATOM     14  N   UNL     1      27.908 -23.683 -15.543  0.00  0.00    -0.203 NA
ATOM     15  C   UNL     1      29.984 -23.017 -16.048  0.00  0.00    +0.166 C 
ATOM     16  C   UNL     1      29.244 -23.947 -15.377  0.00  0.00    +0.140 C 
ATOM     17  C   UNL     1      27.909 -22.613 -16.304  0.00  0.00    +0.285 C 
ENDBRANCH   9  15
BRANCH   6  18
ATOM     18  N   UNL     1      34.381 -20.493 -20.864  0.00  0.00    -0.311 N 
ATOM     19  H   UNL     1      35.010 -21.126 -21.280  0.00  0.00    +0.152 HD
BRANCH  18  29
ATOM     20  S   UNL     1      33.787 -15.539 -24.643  0.00  0.00    -0.002 S 
ATOM     21  O   UNL     1      34.897 -15.467 -25.574  0.00  0.00    -0.172 OA
ATOM     22  O   UNL     1      32.586 -14.752 -24.830  0.00  0.00    -0.172 OA
ATOM     23  C   UNL     1      33.317 -17.254 -24.474  0.00  0.00    +0.177 C 
ATOM     24  C   UNL     1      34.419 -15.224 -23.003  0.00  0.00    +0.177 C 
ATOM     25  C   UNL     1      33.885 -17.622 -23.146  0.00  0.00    +0.000 C 
ATOM     26  C   UNL     1      34.449 -16.585 -22.394  0.00  0.00    -0.001 C 
ATOM     27  C   UNL     1      33.859 -18.921 -22.641  0.00  0.00    +0.012 C 
ATOM     28  C   UNL     1      34.987 -16.844 -21.135  0.00  0.00    -0.002 C 
ATOM     29  C   UNL     1      34.401 -19.180 -21.382  0.00  0.00    +0.048 C 
ATOM     30  C   UNL     1      34.964 -18.145 -20.631  0.00  0.00    +0.014 C 
ENDBRANCH  18  29
ENDBRANCH   6  18
TORSDOF 3
ENDMDL
MODEL 7
REMARK VINA RESULT:     -11.8      5.590     10.903
REMARK  Name = 5288710
REMARK  3 active torsions:
REMARK  status: ('A' for Active; 'I' for Inactive)
REMARK    1  A    between atoms: C_6  and  N_18
REMARK    2  A    between atoms: C_9  and  C_15
REMARK    3  A    between atoms: N_18  and  C_29
REMARK                            x       y       z     vdW  Elec       q    Type
REMARK                         _______ _______ _______ _____ _____    ______ ____
ROOT
ATOM      1  O   UNL     1      33.212 -14.604 -25.542  0.00  0.00    -0.270 OA
ATOM      2  N   UNL     1      33.346 -16.937 -25.196  0.00  0.00    -0.280 N 
ATOM      3  C   UNL     1      34.158 -16.983 -23.044  0.00  0.00    +0.019 C 
ATOM      4  C   UNL     1      33.999 -15.594 -23.462  0.00  0.00    +0.069 C 
ATOM      5  C   UNL     1      33.747 -17.756 -24.134  0.00  0.00    +0.051 C 
ATOM      6  C   UNL     1      34.260 -14.481 -22.771  0.00  0.00    +0.066 C 
ATOM      7  C   UNL     1      33.470 -15.583 -24.867  0.00  0.00    +0.251 C 
ATOM      8  C   UNL     1      34.597 -17.582 -21.879  0.00  0.00    +0.005 C 
ATOM      9  C   UNL     1      34.616 -18.979 -21.830  0.00  0.00    +0.036 C 
ATOM     10  C   UNL     1      33.757 -19.137 -24.107  0.00  0.00    +0.015 C 
ATOM     11  C   UNL     1      34.200 -19.750 -22.933  0.00  0.00    +0.004 C 
ATOM     12  H   UNL     1      33.019 -17.271 -26.062  0.00  0.00    +0.155 HD
ENDROOT
BRANCH   9  15
ATOM     13  O   UNL     1      34.217 -20.557 -20.099  0.00  0.00    -0.431 OA
ATOM     14  N   UNL     1      36.076 -20.471 -18.812  0.00  0.00    -0.203 NA
ATOM     15  C   UNL     1      35.069 -19.644 -20.632  0.00  0.00    +0.166 C 
ATOM     16  C   UNL     1      36.192 -19.591 -19.857  0.00  0.00    +0.140 C 
ATOM     17  C   UNL     1      34.894 -21.010 -19.008  0.00  0.00    +0.285 C 
ENDBRANCH   9  15
BRANCH   6  18
ATOM     18  N   UNL     1      34.108 -13.201 -23.172  0.00  0.00    -0.311 N 
ATOM     19  H   UNL     1      34.734 -12.894 -23.867  0.00  0.00    +0.152 HD
BRANCH  18  29
ATOM     20  S   UNL     1      30.922  -7.878 -22.339  0.00  0.00    -0.002 S 
ATOM     21  O   UNL     1      31.614  -7.004 -21.412  0.00  0.00    -0.172 OA
ATOM     22  O   UNL     1      29.837  -7.398 -23.171  0.00  0.00    -0.172 OA
ATOM     23  C   UNL     1      32.143  -8.646 -23.393  0.00  0.00    +0.177 C 
ATOM     24  C   UNL     1      30.348  -9.305 -21.433  0.00  0.00    +0.177 C 
ATOM     25  C   UNL     1      32.233 -10.027 -22.841  0.00  0.00    +0.000 C 
ATOM     26  C   UNL     1      31.315 -10.365 -21.839  0.00  0.00    -0.001 C 
ATOM     27  C   UNL     1      33.160 -10.967 -23.288  0.00  0.00    +0.012 C 
ATOM     28  C   UNL     1      31.324 -11.642 -21.282  0.00  0.00    -0.002 C 
ATOM     29  C   UNL     1      33.171 -12.244 -22.727  0.00  0.00    +0.048 C 
ATOM     30  C   UNL     1      32.255 -12.581 -21.727  0.00  0.00    +0.014 C 
ENDBRANCH  18  29
ENDBRANCH   6  18
TORSDOF 3
ENDMDL
MODEL 8
REMARK VINA RESULT:     -11.7      4.379      9.538
REMARK  Name = 5288710
REMARK  3 active torsions:
REMARK  status: ('A' for Active; 'I' for Inactive)
REMARK    1  A    between atoms: C_6  and  N_18
REMARK    2  A    between atoms: C_9  and  C_15
REMARK    3  A    between atoms: N_18  and  C_29
REMARK                            x       y       z     vdW  Elec       q    Type
REMARK                         _______ _______ _______ _____ _____    ______ ____
ROOT
ATOM      1  O   UNL     1      31.722 -22.479 -15.022  0.00  0.00    -0.270 OA
ATOM      2  N   UNL     1      33.129 -23.241 -13.285  0.00  0.00    -0.280 N 
ATOM      3  C   UNL     1      35.029 -23.732 -14.485  0.00  0.00    +0.019 C 
ATOM      4  C   UNL     1      34.007 -23.231 -15.398  0.00  0.00    +0.069 C 
ATOM      5  C   UNL     1      34.444 -23.716 -13.216  0.00  0.00    +0.051 C 
ATOM      6  C   UNL     1      34.083 -23.060 -16.721  0.00  0.00    +0.066 C 
ATOM      7  C   UNL     1      32.776 -22.918 -14.598  0.00  0.00    +0.251 C 
ATOM      8  C   UNL     1      36.330 -24.164 -14.658  0.00  0.00    +0.005 C 
ATOM      9  C   UNL     1      37.034 -24.585 -13.525  0.00  0.00    +0.036 C 
ATOM     10  C   UNL     1      35.121 -24.126 -12.084  0.00  0.00    +0.015 C 
ATOM     11  C   UNL     1      36.437 -24.566 -12.250  0.00  0.00    +0.004 C 
ATOM     12  H   UNL     1      32.531 -23.147 -12.508  0.00  0.00    +0.155 HD
ENDROOT
BRANCH   9  15
ATOM     13  O   UNL     1      38.551 -26.291 -14.184  0.00  0.00    -0.431 OA
ATOM     14  N   UNL     1      40.598 -25.435 -13.739  0.00  0.00    -0.203 NA
ATOM     15  C   UNL     1      38.395 -25.046 -13.663  0.00  0.00    +0.166 C 
ATOM     16  C   UNL     1      39.628 -24.528 -13.395  0.00  0.00    +0.140 C 
ATOM     17  C   UNL     1      39.903 -26.451 -14.197  0.00  0.00    +0.285 C 
ENDBRANCH   9  15
BRANCH   6  18
ATOM     18  N   UNL     1      33.127 -22.596 -17.553  0.00  0.00    -0.311 N 
ATOM     19  H   UNL     1      32.228 -22.979 -17.427  0.00  0.00    +0.152 HD
BRANCH  18  29
ATOM     20  S   UNL     1      35.406 -18.347 -21.544  0.00  0.00    -0.002 S 
ATOM     21  O   UNL     1      35.531 -17.053 -20.902  0.00  0.00    -0.172 OA
ATOM     22  O   UNL     1      36.043 -18.630 -22.814  0.00  0.00    -0.172 OA
ATOM     23  C   UNL     1      35.907 -19.598 -20.372  0.00  0.00    +0.177 C 
ATOM     24  C   UNL     1      33.667 -18.729 -21.688  0.00  0.00    +0.177 C 
ATOM     25  C   UNL     1      34.605 -20.179 -19.934  0.00  0.00    +0.000 C 
ATOM     26  C   UNL     1      33.461 -19.735 -20.606  0.00  0.00    -0.001 C 
ATOM     27  C   UNL     1      34.499 -21.130 -18.921  0.00  0.00    +0.012 C 
ATOM     28  C   UNL     1      32.208 -20.241 -20.267  0.00  0.00    -0.002 C 
ATOM     29  C   UNL     1      33.244 -21.634 -18.579  0.00  0.00    +0.048 C 
ATOM     30  C   UNL     1      32.101 -21.191 -19.251  0.00  0.00    +0.014 C 
ENDBRANCH  18  29
ENDBRANCH   6  18
TORSDOF 3
ENDMDL
MODEL 9
REMARK VINA RESULT:     -11.5      8.906     12.908
REMARK  Name = 5288710
REMARK  3 active torsions:
REMARK  status: ('A' for Active; 'I' for Inactive)
REMARK    1  A    between atoms: C_6  and  N_18
REMARK    2  A    between atoms: C_9  and  C_15
REMARK    3  A    between atoms: N_18  and  C_29
REMARK                            x       y       z     vdW  Elec       q    Type
REMARK                         _______ _______ _______ _____ _____    ______ ____
ROOT
ATOM      1  O   UNL     1      31.396  -9.581 -18.646  0.00  0.00    -0.270 OA
ATOM      2  N   UNL     1      31.561  -7.264 -19.072  0.00  0.00    -0.280 N 
ATOM      3  C   UNL     1      31.489  -7.266 -21.371  0.00  0.00    +0.019 C 
ATOM      4  C   UNL     1      31.398  -8.642 -20.891  0.00  0.00    +0.069 C 
ATOM      5  C   UNL     1      31.585  -6.471 -20.225  0.00  0.00    +0.051 C 
ATOM      6  C   UNL     1      31.292  -9.767 -21.603  0.00  0.00    +0.066 C 
ATOM      7  C   UNL     1      31.448  -8.620 -19.391  0.00  0.00    +0.251 C 
ATOM      8  C   UNL     1      31.492  -6.695 -22.629  0.00  0.00    +0.005 C 
ATOM      9  C   UNL     1      31.596  -5.303 -22.714  0.00  0.00    +0.036 C 
ATOM     10  C   UNL     1      31.687  -5.095 -20.286  0.00  0.00    +0.015 C 
ATOM     11  C   UNL     1      31.692  -4.510 -21.555  0.00  0.00    +0.004 C 
ATOM     12  H   UNL     1      31.616  -6.911 -18.154  0.00  0.00    +0.155 HD
ENDROOT
BRANCH   9  15
ATOM     13  O   UNL     1      32.201  -5.366 -25.011  0.00  0.00    -0.431 OA
ATOM     14  N   UNL     1      31.439  -3.410 -25.854  0.00  0.00    -0.203 NA
ATOM     15  C   UNL     1      31.605  -4.668 -24.011  0.00  0.00    +0.166 C 
ATOM     16  C   UNL     1      31.143  -3.488 -24.517  0.00  0.00    +0.140 C 
ATOM     17  C   UNL     1      32.060  -4.544 -26.087  0.00  0.00    +0.285 C 
ENDBRANCH   9  15
BRANCH   6  18
ATOM     18  N   UNL     1      31.209 -11.034 -21.145  0.00  0.00    -0.311 N 
ATOM     19  H   UNL     1      30.548 -11.188 -20.432  0.00  0.00    +0.152 HD
BRANCH  18  29
ATOM     20  S   UNL     1      33.745 -15.603 -24.589  0.00  0.00    -0.002 S 
ATOM     21  O   UNL     1      32.791 -16.673 -24.807  0.00  0.00    -0.172 OA
ATOM     22  O   UNL     1      34.969 -15.509 -25.359  0.00  0.00    -0.172 OA
ATOM     23  C   UNL     1      32.875 -14.049 -24.722  0.00  0.00    +0.177 C 
ATOM     24  C   UNL     1      34.166 -15.581 -22.854  0.00  0.00    +0.177 C 
ATOM     25  C   UNL     1      32.739 -13.626 -23.299  0.00  0.00    +0.000 C 
ATOM     26  C   UNL     1      33.399 -14.408 -22.344  0.00  0.00    -0.001 C 
ATOM     27  C   UNL     1      32.013 -12.503 -22.905  0.00  0.00    +0.012 C 
ATOM     28  C   UNL     1      33.334 -14.070 -20.994  0.00  0.00    -0.002 C 
ATOM     29  C   UNL     1      31.945 -12.167 -21.552  0.00  0.00    +0.048 C 
ATOM     30  C   UNL     1      32.604 -12.948 -20.600  0.00  0.00    +0.014 C 
ENDBRANCH  18  29
ENDBRANCH   6  18
TORSDOF 3
ENDMDL
