MODEL 1
REMARK VINA RESULT:     -11.5      0.000      0.000
REMARK  Name = 11949646
REMARK  10 active torsions:
REMARK  status: ('A' for Active; 'I' for Inactive)
REMARK    1  A    between atoms: C_2  and  C_12
REMARK    2  A    between atoms: C_5  and  C_23
REMARK    3  A    between atoms: C_9  and  O_14
REMARK    4  A    between atoms: C_10  and  O_16
REMARK    5  A    between atoms: C_11  and  O_18
REMARK    6  A    between atoms: C_13  and  C_20
REMARK    7  A    between atoms: C_20  and  O_21
REMARK    8  A    between atoms: C_23  and  C_24
REMARK    9  A    between atoms: C_25  and  O_30
REMARK   10  A    between atoms: O_30  and  C_32
REMARK                            x       y       z     vdW  Elec       q    Type
REMARK                         _______ _______ _______ _____ _____    ______ ____
ROOT
ATOM      1 CL   UNL     1      30.295 -22.405 -16.496  0.00  0.00    -0.083 Cl
ATOM      2  C   UNL     1      34.185 -23.279 -14.381  0.00  0.00    +0.007 C 
ATOM      3  C   UNL     1      34.107 -23.433 -15.765  0.00  0.00    -0.005 C 
ATOM      4  C   UNL     1      33.069 -22.859 -13.660  0.00  0.00    -0.001 C 
ATOM      5  C   UNL     1      32.910 -23.166 -16.428  0.00  0.00    -0.007 C 
ATOM      6  C   UNL     1      31.871 -22.592 -14.324  0.00  0.00    +0.011 C 
ATOM      7  C   UNL     1      31.791 -22.745 -15.708  0.00  0.00    +0.054 C 
ENDROOT
BRANCH   2  12
ATOM      8  O   UNL     1      36.496 -23.777 -14.653  0.00  0.00    -0.347 OA
ATOM      9  C   UNL     1      36.733 -25.162 -12.144  0.00  0.00    +0.169 C 
ATOM     10  C   UNL     1      35.371 -24.792 -12.735  0.00  0.00    +0.171 C 
ATOM     11  C   UNL     1      37.809 -25.233 -13.227  0.00  0.00    +0.169 C 
ATOM     12  C   UNL     1      35.486 -23.570 -13.659  0.00  0.00    +0.167 C 
ATOM     13  C   UNL     1      37.794 -23.970 -14.089  0.00  0.00    +0.174 C 
BRANCH   9  14
ATOM     14  O   UNL     1      36.648 -26.446 -11.523  0.00  0.00    -0.379 OA
ATOM     15  H   UNL     1      36.110 -27.036 -12.073  0.00  0.00    +0.211 HD
ENDBRANCH   9  14
BRANCH  10  16
ATOM     16  O   UNL     1      34.472 -24.476 -11.672  0.00  0.00    -0.379 OA
ATOM     17  H   UNL     1      34.119 -25.296 -11.294  0.00  0.00    +0.211 HD
ENDBRANCH  10  16
BRANCH  11  18
ATOM     18  O   UNL     1      39.088 -25.367 -12.612  0.00  0.00    -0.379 OA
ATOM     19  H   UNL     1      39.131 -24.798 -11.827  0.00  0.00    +0.211 HD
ENDBRANCH  11  18
BRANCH  13  20
ATOM     20  C   UNL     1      38.785 -24.063 -15.245  0.00  0.00    +0.169 C 
BRANCH  20  21
ATOM     21  O   UNL     1      39.261 -25.395 -15.327  0.00  0.00    -0.379 OA
ATOM     22  H   UNL     1      39.893 -25.468 -16.057  0.00  0.00    +0.211 HD
ENDBRANCH  20  21
ENDBRANCH  13  20
ENDBRANCH   2  12
BRANCH   5  23
ATOM     23  C   UNL     1      32.866 -23.342 -17.912  0.00  0.00    +0.053 C 
BRANCH  23  24
ATOM     24  C   UNL     1      33.231 -22.094 -18.687  0.00  0.00    -0.018 C 
ATOM     25  C   UNL     1      33.899 -19.815 -20.107  0.00  0.00    +0.138 C 
ATOM     26  C   UNL     1      32.224 -21.256 -19.131  0.00  0.00    -0.001 C 
ATOM     27  C   UNL     1      34.565 -21.821 -18.936  0.00  0.00    -0.001 C 
ATOM     28  C   UNL     1      32.561 -20.107 -19.846  0.00  0.00    +0.037 C 
ATOM     29  C   UNL     1      34.902 -20.672 -19.652  0.00  0.00    +0.037 C 
BRANCH  25  30
ATOM     30  O   UNL     1      34.228 -18.693 -20.804  0.00  0.00    -0.476 OA
BRANCH  30  32
ATOM     31  O   UNL     1      34.955 -16.773 -23.037  0.00  0.00    -0.350 OA
ATOM     32  C   UNL     1      35.108 -18.853 -21.911  0.00  0.00    +0.198 C 
ATOM     33  C   UNL     1      34.312 -19.049 -23.178  0.00  0.00    +0.078 C 
ATOM     34  C   UNL     1      35.814 -17.539 -22.174  0.00  0.00    +0.185 C 
ATOM     35  C   UNL     1      33.915 -17.628 -23.527  0.00  0.00    +0.146 C 
ENDBRANCH  30  32
ENDBRANCH  25  30
ENDBRANCH  23  24
ENDBRANCH   5  23
TORSDOF 10
ENDMDL
MODEL 2
REMARK VINA RESULT:     -10.8      1.101      2.450
REMARK  Name = 11949646
REMARK  10 active torsions:
REMARK  status: ('A' for Active; 'I' for Inactive)
REMARK    1  A    between atoms: C_2  and  C_12
REMARK    2  A    between atoms: C_5  and  C_23
REMARK    3  A    between atoms: C_9  and  O_14
REMARK    4  A    between atoms: C_10  and  O_16
REMARK    5  A    between atoms: C_11  and  O_18
REMARK    6  A    between atoms: C_13  and  C_20
REMARK    7  A    between atoms: C_20  and  O_21
REMARK    8  A    between atoms: C_23  and  C_24
REMARK    9  A    between atoms: C_25  and  O_30
REMARK   10  A    between atoms: O_30  and  C_32
REMARK                            x       y       z     vdW  Elec       q    Type
REMARK                         _______ _______ _______ _____ _____    ______ ____
ROOT
ATOM      1 CL   UNL     1      30.424 -21.959 -16.917  0.00  0.00    -0.083 Cl
ATOM      2  C   UNL     1      33.781 -23.698 -14.452  0.00  0.00    +0.007 C 
ATOM      3  C   UNL     1      33.831 -23.793 -15.842  0.00  0.00    -0.005 C 
ATOM      4  C   UNL     1      32.702 -23.070 -13.832  0.00  0.00    -0.001 C 
ATOM      5  C   UNL     1      32.799 -23.259 -16.613  0.00  0.00    -0.007 C 
ATOM      6  C   UNL     1      31.669 -22.537 -14.604  0.00  0.00    +0.011 C 
ATOM      7  C   UNL     1      31.718 -22.630 -15.994  0.00  0.00    +0.054 C 
ENDROOT
BRANCH   2  12
ATOM      8  O   UNL     1      34.710 -23.835 -12.265  0.00  0.00    -0.347 OA
ATOM      9  C   UNL     1      37.392 -24.321 -13.181  0.00  0.00    +0.169 C 
ATOM     10  C   UNL     1      36.286 -23.859 -14.133  0.00  0.00    +0.171 C 
ATOM     11  C   UNL     1      37.072 -23.949 -11.734  0.00  0.00    +0.169 C 
ATOM     12  C   UNL     1      34.902 -24.278 -13.613  0.00  0.00    +0.167 C 
ATOM     13  C   UNL     1      35.659 -24.397 -11.358  0.00  0.00    +0.174 C 
BRANCH   9  14
ATOM     14  O   UNL     1      38.622 -23.687 -13.538  0.00  0.00    -0.379 OA
ATOM     15  H   UNL     1      38.937 -23.153 -12.793  0.00  0.00    +0.211 HD
ENDBRANCH   9  14
BRANCH  10  16
ATOM     16  O   UNL     1      36.492 -24.458 -15.412  0.00  0.00    -0.379 OA
ATOM     17  H   UNL     1      36.025 -23.943 -16.088  0.00  0.00    +0.211 HD
ENDBRANCH  10  16
BRANCH  11  18
ATOM     18  O   UNL     1      38.011 -24.580 -10.866  0.00  0.00    -0.379 OA
ATOM     19  H   UNL     1      37.552 -25.225 -10.307  0.00  0.00    +0.211 HD
ENDBRANCH  11  18
BRANCH  13  20
ATOM     20  C   UNL     1      35.276 -23.940  -9.953  0.00  0.00    +0.169 C 
BRANCH  20  21
ATOM     21  O   UNL     1      36.080 -22.826  -9.606  0.00  0.00    -0.379 OA
ATOM     22  H   UNL     1      35.512 -22.061  -9.430  0.00  0.00    +0.211 HD
ENDBRANCH  20  21
ENDBRANCH  13  20
ENDBRANCH   2  12
BRANCH   5  23
ATOM     23  C   UNL     1      32.888 -23.380 -18.100  0.00  0.00    +0.053 C 
BRANCH  23  24
ATOM     24  C   UNL     1      33.318 -22.105 -18.794  0.00  0.00    -0.018 C 
ATOM     25  C   UNL     1      34.104 -19.772 -20.058  0.00  0.00    +0.138 C 
ATOM     26  C   UNL     1      34.666 -21.805 -18.880  0.00  0.00    -0.001 C 
ATOM     27  C   UNL     1      32.353 -21.267 -19.324  0.00  0.00    -0.001 C 
ATOM     28  C   UNL     1      35.062 -20.629 -19.517  0.00  0.00    +0.037 C 
ATOM     29  C   UNL     1      32.749 -20.091 -19.962  0.00  0.00    +0.037 C 
BRANCH  25  30
ATOM     30  O   UNL     1      34.491 -18.626 -20.682  0.00  0.00    -0.476 OA
BRANCH  30  32
ATOM     31  O   UNL     1      34.641 -16.924 -23.188  0.00  0.00    -0.350 OA
ATOM     32  C   UNL     1      35.298 -18.763 -21.846  0.00  0.00    +0.198 C 
ATOM     33  C   UNL     1      34.465 -19.278 -22.993  0.00  0.00    +0.078 C 
ATOM     34  C   UNL     1      35.700 -17.386 -22.332  0.00  0.00    +0.185 C 
ATOM     35  C   UNL     1      33.762 -18.021 -23.465  0.00  0.00    +0.146 C 
ENDBRANCH  30  32
ENDBRANCH  25  30
ENDBRANCH  23  24
ENDBRANCH   5  23
TORSDOF 10
ENDMDL
MODEL 3
REMARK VINA RESULT:     -10.0      3.237      5.329
REMARK  Name = 11949646
REMARK  10 active torsions:
REMARK  status: ('A' for Active; 'I' for Inactive)
REMARK    1  A    between atoms: C_2  and  C_12
REMARK    2  A    between atoms: C_5  and  C_23
REMARK    3  A    between atoms: C_9  and  O_14
REMARK    4  A    between atoms: C_10  and  O_16
REMARK    5  A    between atoms: C_11  and  O_18
REMARK    6  A    between atoms: C_13  and  C_20
REMARK    7  A    between atoms: C_20  and  O_21
REMARK    8  A    between atoms: C_23  and  C_24
REMARK    9  A    between atoms: C_25  and  O_30
REMARK   10  A    between atoms: O_30  and  C_32
REMARK                            x       y       z     vdW  Elec       q    Type
REMARK                         _______ _______ _______ _____ _____    ______ ____
ROOT
ATOM      1 CL   UNL     1      37.200 -20.658 -16.585  0.00  0.00    -0.083 Cl
ATOM      2  C   UNL     1      33.298 -22.814 -15.882  0.00  0.00    +0.007 C 
ATOM      3  C   UNL     1      33.816 -22.739 -17.174  0.00  0.00    -0.005 C 
ATOM      4  C   UNL     1      33.981 -22.226 -14.819  0.00  0.00    -0.001 C 
ATOM      5  C   UNL     1      35.022 -22.075 -17.403  0.00  0.00    -0.007 C 
ATOM      6  C   UNL     1      35.186 -21.562 -15.048  0.00  0.00    +0.011 C 
ATOM      7  C   UNL     1      35.707 -21.487 -16.339  0.00  0.00    +0.054 C 
ENDROOT
BRANCH   2  12
ATOM      8  O   UNL     1      30.928 -22.667 -16.055  0.00  0.00    -0.347 OA
ATOM      9  C   UNL     1      30.424 -24.506 -13.902  0.00  0.00    +0.169 C 
ATOM     10  C   UNL     1      31.817 -23.927 -14.158  0.00  0.00    +0.171 C 
ATOM     11  C   UNL     1      29.333 -23.615 -14.495  0.00  0.00    +0.169 C 
ATOM     12  C   UNL     1      31.987 -23.535 -15.634  0.00  0.00    +0.167 C 
ATOM     13  C   UNL     1      29.641 -23.278 -15.955  0.00  0.00    +0.174 C 
BRANCH   9  14
ATOM     14  O   UNL     1      30.200 -24.600 -12.494  0.00  0.00    -0.379 OA
ATOM     15  H   UNL     1      31.006 -24.344 -12.021  0.00  0.00    +0.211 HD
ENDBRANCH   9  14
BRANCH  10  16
ATOM     16  O   UNL     1      32.798 -24.911 -13.832  0.00  0.00    -0.379 OA
ATOM     17  H   UNL     1      32.863 -24.995 -12.868  0.00  0.00    +0.211 HD
ENDBRANCH  10  16
BRANCH  11  18
ATOM     18  O   UNL     1      28.081 -24.292 -14.423  0.00  0.00    -0.379 OA
ATOM     19  H   UNL     1      28.014 -24.928 -15.153  0.00  0.00    +0.211 HD
ENDBRANCH  11  18
BRANCH  13  20
ATOM     20  C   UNL     1      28.625 -22.301 -16.537  0.00  0.00    +0.169 C 
BRANCH  20  21
ATOM     21  O   UNL     1      27.671 -23.034 -17.286  0.00  0.00    -0.379 OA
ATOM     22  H   UNL     1      26.955 -23.326 -16.700  0.00  0.00    +0.211 HD
ENDBRANCH  20  21
ENDBRANCH  13  20
ENDBRANCH   2  12
BRANCH   5  23
ATOM     23  C   UNL     1      35.546 -22.016 -18.801  0.00  0.00    +0.053 C 
BRANCH  23  24
ATOM     24  C   UNL     1      35.092 -20.796 -19.574  0.00  0.00    -0.018 C 
ATOM     25  C   UNL     1      34.262 -18.564 -20.984  0.00  0.00    +0.138 C 
ATOM     26  C   UNL     1      36.032 -19.864 -19.976  0.00  0.00    -0.001 C 
ATOM     27  C   UNL     1      33.747 -20.640 -19.859  0.00  0.00    -0.001 C 
ATOM     28  C   UNL     1      35.614 -18.739 -20.687  0.00  0.00    +0.037 C 
ATOM     29  C   UNL     1      33.329 -19.515 -20.570  0.00  0.00    +0.037 C 
BRANCH  25  30
ATOM     30  O   UNL     1      33.855 -17.467 -21.679  0.00  0.00    -0.476 OA
BRANCH  30  32
ATOM     31  O   UNL     1      33.357 -14.504 -22.096  0.00  0.00    -0.350 OA
ATOM     32  C   UNL     1      34.768 -16.378 -21.763  0.00  0.00    +0.198 C 
ATOM     33  C   UNL     1      34.900 -15.925 -23.196  0.00  0.00    +0.078 C 
ATOM     34  C   UNL     1      34.152 -15.165 -21.096  0.00  0.00    +0.185 C 
ATOM     35  C   UNL     1      33.659 -15.074 -23.375  0.00  0.00    +0.146 C 
ENDBRANCH  30  32
ENDBRANCH  25  30
ENDBRANCH  23  24
ENDBRANCH   5  23
TORSDOF 10
ENDMDL
MODEL 4
REMARK VINA RESULT:      -9.6      2.421      4.644
REMARK  Name = 11949646
REMARK  10 active torsions:
REMARK  status: ('A' for Active; 'I' for Inactive)
REMARK    1  A    between atoms: C_2  and  C_12
REMARK    2  A    between atoms: C_5  and  C_23
REMARK    3  A    between atoms: C_9  and  O_14
REMARK    4  A    between atoms: C_10  and  O_16
REMARK    5  A    between atoms: C_11  and  O_18
REMARK    6  A    between atoms: C_13  and  C_20
REMARK    7  A    between atoms: C_20  and  O_21
REMARK    8  A    between atoms: C_23  and  C_24
REMARK    9  A    between atoms: C_25  and  O_30
REMARK   10  A    between atoms: O_30  and  C_32
REMARK                            x       y       z     vdW  Elec       q    Type
REMARK                         _______ _______ _______ _____ _____    ______ ____
ROOT
ATOM      1 CL   UNL     1      32.058 -19.790 -21.183  0.00  0.00    -0.083 Cl
ATOM      2  C   UNL     1      33.845 -22.091 -17.735  0.00  0.00    +0.007 C 
ATOM      3  C   UNL     1      34.653 -21.737 -18.815  0.00  0.00    -0.005 C 
ATOM      4  C   UNL     1      32.497 -21.735 -17.724  0.00  0.00    -0.001 C 
ATOM      5  C   UNL     1      34.111 -21.026 -19.886  0.00  0.00    -0.007 C 
ATOM      6  C   UNL     1      31.955 -21.024 -18.795  0.00  0.00    +0.011 C 
ATOM      7  C   UNL     1      32.762 -20.669 -19.876  0.00  0.00    +0.054 C 
ENDROOT
BRANCH   2  12
ATOM      8  O   UNL     1      33.409 -23.001 -15.580  0.00  0.00    -0.347 OA
ATOM      9  C   UNL     1      36.151 -22.879 -14.718  0.00  0.00    +0.169 C 
ATOM     10  C   UNL     1      35.671 -22.168 -15.986  0.00  0.00    +0.171 C 
ATOM     11  C   UNL     1      34.994 -23.129 -13.750  0.00  0.00    +0.169 C 
ATOM     12  C   UNL     1      34.433 -22.864 -16.572  0.00  0.00    +0.167 C 
ATOM     13  C   UNL     1      33.821 -23.797 -14.468  0.00  0.00    +0.174 C 
BRANCH   9  14
ATOM     14  O   UNL     1      37.114 -22.061 -14.051  0.00  0.00    -0.379 OA
ATOM     15  H   UNL     1      37.131 -21.183 -14.461  0.00  0.00    +0.211 HD
ENDBRANCH   9  14
BRANCH  10  16
ATOM     16  O   UNL     1      36.715 -22.200 -16.959  0.00  0.00    -0.379 OA
ATOM     17  H   UNL     1      36.334 -22.092 -17.845  0.00  0.00    +0.211 HD
ENDBRANCH  10  16
BRANCH  11  18
ATOM     18  O   UNL     1      35.440 -23.973 -12.691  0.00  0.00    -0.379 OA
ATOM     19  H   UNL     1      36.313 -24.335 -12.912  0.00  0.00    +0.211 HD
ENDBRANCH  11  18
BRANCH  13  20
ATOM     20  C   UNL     1      32.614 -23.958 -13.549  0.00  0.00    +0.169 C 
BRANCH  20  21
ATOM     21  O   UNL     1      32.715 -23.010 -12.500  0.00  0.00    -0.379 OA
ATOM     22  H   UNL     1      33.575 -22.567 -12.548  0.00  0.00    +0.211 HD
ENDBRANCH  20  21
ENDBRANCH  13  20
ENDBRANCH   2  12
BRANCH   5  23
ATOM     23  C   UNL     1      35.008 -20.665 -21.025  0.00  0.00    +0.053 C 
BRANCH  23  24
ATOM     24  C   UNL     1      34.883 -19.223 -21.470  0.00  0.00    -0.018 C 
ATOM     25  C   UNL     1      34.656 -16.588 -22.283  0.00  0.00    +0.138 C 
ATOM     26  C   UNL     1      34.597 -18.948 -22.795  0.00  0.00    -0.001 C 
ATOM     27  C   UNL     1      35.059 -18.213 -20.541  0.00  0.00    -0.001 C 
ATOM     28  C   UNL     1      34.482 -17.619 -23.205  0.00  0.00    +0.037 C 
ATOM     29  C   UNL     1      34.944 -16.884 -20.950  0.00  0.00    +0.037 C 
BRANCH  25  30
ATOM     30  O   UNL     1      34.543 -15.292 -22.683  0.00  0.00    -0.476 OA
BRANCH  30  32
ATOM     31  O   UNL     1      33.594 -12.523 -23.482  0.00  0.00    -0.350 OA
ATOM     32  C   UNL     1      33.235 -14.731 -22.698  0.00  0.00    +0.198 C 
ATOM     33  C   UNL     1      33.071 -13.777 -21.541  0.00  0.00    +0.078 C 
ATOM     34  C   UNL     1      33.106 -13.812 -23.895  0.00  0.00    +0.185 C 
ATOM     35  C   UNL     1      33.758 -12.528 -22.058  0.00  0.00    +0.146 C 
ENDBRANCH  30  32
ENDBRANCH  25  30
ENDBRANCH  23  24
ENDBRANCH   5  23
TORSDOF 10
ENDMDL
MODEL 5
REMARK VINA RESULT:      -9.3     10.062     16.985
REMARK  Name = 11949646
REMARK  10 active torsions:
REMARK  status: ('A' for Active; 'I' for Inactive)
REMARK    1  A    between atoms: C_2  and  C_12
REMARK    2  A    between atoms: C_5  and  C_23
REMARK    3  A    between atoms: C_9  and  O_14
REMARK    4  A    between atoms: C_10  and  O_16
REMARK    5  A    between atoms: C_11  and  O_18
REMARK    6  A    between atoms: C_13  and  C_20
REMARK    7  A    between atoms: C_20  and  O_21
REMARK    8  A    between atoms: C_23  and  C_24
REMARK    9  A    between atoms: C_25  and  O_30
REMARK   10  A    between atoms: O_30  and  C_32
REMARK                            x       y       z     vdW  Elec       q    Type
REMARK                         _______ _______ _______ _____ _____    ______ ____
ROOT
ATOM      1 CL   UNL     1      31.168  -9.638 -18.743  0.00  0.00    -0.083 Cl
ATOM      2  C   UNL     1      32.297  -6.567 -21.852  0.00  0.00    +0.007 C 
ATOM      3  C   UNL     1      31.618  -7.721 -22.243  0.00  0.00    -0.005 C 
ATOM      4  C   UNL     1      32.622  -6.367 -20.512  0.00  0.00    -0.001 C 
ATOM      5  C   UNL     1      31.265  -8.676 -21.290  0.00  0.00    -0.007 C 
ATOM      6  C   UNL     1      32.269  -7.323 -19.559  0.00  0.00    +0.011 C 
ATOM      7  C   UNL     1      31.590  -8.477 -19.948  0.00  0.00    +0.054 C 
ENDROOT
BRANCH   2  12
ATOM      8  O   UNL     1      31.651  -4.534 -22.908  0.00  0.00    -0.347 OA
ATOM      9  C   UNL     1      33.099  -5.063 -25.336  0.00  0.00    +0.169 C 
ATOM     10  C   UNL     1      32.870  -6.147 -24.281  0.00  0.00    +0.171 C 
ATOM     11  C   UNL     1      32.055  -3.951 -25.226  0.00  0.00    +0.169 C 
ATOM     12  C   UNL     1      32.681  -5.528 -22.887  0.00  0.00    +0.167 C 
ATOM     13  C   UNL     1      31.949  -3.448 -23.785  0.00  0.00    +0.174 C 
BRANCH   9  14
ATOM     14  O   UNL     1      32.994  -5.638 -26.639  0.00  0.00    -0.379 OA
ATOM     15  H   UNL     1      32.921  -4.932 -27.299  0.00  0.00    +0.211 HD
ENDBRANCH   9  14
BRANCH  10  16
ATOM     16  O   UNL     1      34.008  -7.009 -24.246  0.00  0.00    -0.379 OA
ATOM     17  H   UNL     1      34.280  -7.147 -23.325  0.00  0.00    +0.211 HD
ENDBRANCH  10  16
BRANCH  11  18
ATOM     18  O   UNL     1      32.428  -2.869 -26.075  0.00  0.00    -0.379 OA
ATOM     19  H   UNL     1      32.269  -3.114 -27.001  0.00  0.00    +0.211 HD
ENDBRANCH  11  18
BRANCH  13  20
ATOM     20  C   UNL     1      30.838  -2.415 -23.629  0.00  0.00    +0.169 C 
BRANCH  20  21
ATOM     21  O   UNL     1      29.893  -2.606 -24.667  0.00  0.00    -0.379 OA
ATOM     22  H   UNL     1      29.021  -2.303 -24.370  0.00  0.00    +0.211 HD
ENDBRANCH  20  21
ENDBRANCH  13  20
ENDBRANCH   2  12
BRANCH   5  23
ATOM     23  C   UNL     1      30.538  -9.900 -21.747  0.00  0.00    +0.053 C 
BRANCH  23  24
ATOM     24  C   UNL     1      31.408 -11.137 -21.818  0.00  0.00    -0.018 C 
ATOM     25  C   UNL     1      32.999 -13.398 -21.946  0.00  0.00    +0.138 C 
ATOM     26  C   UNL     1      31.271 -12.115 -20.849  0.00  0.00    -0.001 C 
ATOM     27  C   UNL     1      32.322 -11.262 -22.850  0.00  0.00    -0.001 C 
ATOM     28  C   UNL     1      32.073 -13.255 -20.914  0.00  0.00    +0.037 C 
ATOM     29  C   UNL     1      33.124 -12.401 -22.915  0.00  0.00    +0.037 C 
BRANCH  25  30
ATOM     30  O   UNL     1      33.781 -14.510 -22.010  0.00  0.00    -0.476 OA
BRANCH  30  32
ATOM     31  O   UNL     1      33.076 -16.476 -24.210  0.00  0.00    -0.350 OA
ATOM     32  C   UNL     1      34.424 -14.780 -23.251  0.00  0.00    +0.198 C 
ATOM     33  C   UNL     1      35.169 -16.089 -23.171  0.00  0.00    +0.078 C 
ATOM     34  C   UNL     1      33.371 -15.071 -24.299  0.00  0.00    +0.185 C 
ATOM     35  C   UNL     1      34.058 -17.100 -23.374  0.00  0.00    +0.146 C 
ENDBRANCH  30  32
ENDBRANCH  25  30
ENDBRANCH  23  24
ENDBRANCH   5  23
TORSDOF 10
ENDMDL
MODEL 6
REMARK VINA RESULT:      -9.2      2.014      3.131
REMARK  Name = 11949646
REMARK  10 active torsions:
REMARK  status: ('A' for Active; 'I' for Inactive)
REMARK    1  A    between atoms: C_2  and  C_12
REMARK    2  A    between atoms: C_5  and  C_23
REMARK    3  A    between atoms: C_9  and  O_14
REMARK    4  A    between atoms: C_10  and  O_16
REMARK    5  A    between atoms: C_11  and  O_18
REMARK    6  A    between atoms: C_13  and  C_20
REMARK    7  A    between atoms: C_20  and  O_21
REMARK    8  A    between atoms: C_23  and  C_24
REMARK    9  A    between atoms: C_25  and  O_30
REMARK   10  A    between atoms: O_30  and  C_32
REMARK                            x       y       z     vdW  Elec       q    Type
REMARK                         _______ _______ _______ _____ _____    ______ ____
ROOT
ATOM      1 CL   UNL     1      32.274 -21.428 -20.234  0.00  0.00    -0.083 Cl
ATOM      2  C   UNL     1      34.379 -22.343 -16.348  0.00  0.00    +0.007 C 
ATOM      3  C   UNL     1      35.134 -22.067 -17.488  0.00  0.00    -0.005 C 
ATOM      4  C   UNL     1      32.988 -22.335 -16.412  0.00  0.00    -0.001 C 
ATOM      5  C   UNL     1      34.493 -21.783 -18.695  0.00  0.00    -0.007 C 
ATOM      6  C   UNL     1      32.347 -22.051 -17.618  0.00  0.00    +0.011 C 
ATOM      7  C   UNL     1      33.099 -21.775 -18.760  0.00  0.00    +0.054 C 
ENDROOT
BRANCH   2  12
ATOM      8  O   UNL     1      36.224 -23.454 -15.335  0.00  0.00    -0.347 OA
ATOM      9  C   UNL     1      34.913 -23.816 -12.800  0.00  0.00    +0.169 C 
ATOM     10  C   UNL     1      34.146 -23.373 -14.049  0.00  0.00    +0.171 C 
ATOM     11  C   UNL     1      36.204 -24.546 -13.171  0.00  0.00    +0.169 C 
ATOM     12  C   UNL     1      35.075 -22.652 -15.038  0.00  0.00    +0.167 C 
ATOM     13  C   UNL     1      37.016 -23.734 -14.180  0.00  0.00    +0.174 C 
BRANCH   9  14
ATOM     14  O   UNL     1      34.102 -24.713 -12.039  0.00  0.00    -0.379 OA
ATOM     15  H   UNL     1      34.231 -24.541 -11.093  0.00  0.00    +0.211 HD
ENDBRANCH   9  14
BRANCH  10  16
ATOM     16  O   UNL     1      33.107 -22.474 -13.662  0.00  0.00    -0.379 OA
ATOM     17  H   UNL     1      32.264 -22.952 -13.624  0.00  0.00    +0.211 HD
ENDBRANCH  10  16
BRANCH  11  18
ATOM     18  O   UNL     1      36.984 -24.749 -11.995  0.00  0.00    -0.379 OA
ATOM     19  H   UNL     1      37.621 -24.023 -11.899  0.00  0.00    +0.211 HD
ENDBRANCH  11  18
BRANCH  13  20
ATOM     20  C   UNL     1      38.256 -24.490 -14.648  0.00  0.00    +0.169 C 
BRANCH  20  21
ATOM     21  O   UNL     1      37.879 -25.817 -14.973  0.00  0.00    -0.379 OA
ATOM     22  H   UNL     1      38.127 -26.410 -14.247  0.00  0.00    +0.211 HD
ENDBRANCH  20  21
ENDBRANCH  13  20
ENDBRANCH   2  12
BRANCH   5  23
ATOM     23  C   UNL     1      35.335 -21.493 -19.895  0.00  0.00    +0.053 C 
BRANCH  23  24
ATOM     24  C   UNL     1      35.254 -20.056 -20.366  0.00  0.00    -0.018 C 
ATOM     25  C   UNL     1      35.107 -17.430 -21.225  0.00  0.00    +0.138 C 
ATOM     26  C   UNL     1      36.422 -19.330 -20.520  0.00  0.00    -0.001 C 
ATOM     27  C   UNL     1      34.015 -19.502 -20.630  0.00  0.00    -0.001 C 
ATOM     28  C   UNL     1      36.348 -18.006 -20.953  0.00  0.00    +0.037 C 
ATOM     29  C   UNL     1      33.940 -18.178 -21.064  0.00  0.00    +0.037 C 
BRANCH  25  30
ATOM     30  O   UNL     1      35.035 -16.139 -21.649  0.00  0.00    -0.476 OA
BRANCH  30  32
ATOM     31  O   UNL     1      34.182 -13.458 -22.784  0.00  0.00    -0.350 OA
ATOM     32  C   UNL     1      33.737 -15.610 -21.897  0.00  0.00    +0.198 C 
ATOM     33  C   UNL     1      33.392 -14.578 -20.852  0.00  0.00    +0.078 C 
ATOM     34  C   UNL     1      33.775 -14.784 -23.166  0.00  0.00    +0.185 C 
ATOM     35  C   UNL     1      34.133 -13.356 -21.356  0.00  0.00    +0.146 C 
ENDBRANCH  30  32
ENDBRANCH  25  30
ENDBRANCH  23  24
ENDBRANCH   5  23
TORSDOF 10
ENDMDL
MODEL 7
REMARK VINA RESULT:      -9.2      9.749     16.720
REMARK  Name = 11949646
REMARK  10 active torsions:
REMARK  status: ('A' for Active; 'I' for Inactive)
REMARK    1  A    between atoms: C_2  and  C_12
REMARK    2  A    between atoms: C_5  and  C_23
REMARK    3  A    between atoms: C_9  and  O_14
REMARK    4  A    between atoms: C_10  and  O_16
REMARK    5  A    between atoms: C_11  and  O_18
REMARK    6  A    between atoms: C_13  and  C_20
REMARK    7  A    between atoms: C_20  and  O_21
REMARK    8  A    between atoms: C_23  and  C_24
REMARK    9  A    between atoms: C_25  and  O_30
REMARK   10  A    between atoms: O_30  and  C_32
REMARK                            x       y       z     vdW  Elec       q    Type
REMARK                         _______ _______ _______ _____ _____    ______ ____
ROOT
ATOM      1 CL   UNL     1      31.575  -9.692 -18.743  0.00  0.00    -0.083 Cl
ATOM      2  C   UNL     1      31.668  -7.052 -22.403  0.00  0.00    +0.007 C 
ATOM      3  C   UNL     1      31.124  -8.333 -22.495  0.00  0.00    -0.005 C 
ATOM      4  C   UNL     1      32.177  -6.595 -21.190  0.00  0.00    -0.001 C 
ATOM      5  C   UNL     1      31.091  -9.157 -21.370  0.00  0.00    -0.007 C 
ATOM      6  C   UNL     1      32.144  -7.419 -20.064  0.00  0.00    +0.011 C 
ATOM      7  C   UNL     1      31.600  -8.700 -20.154  0.00  0.00    +0.054 C 
ENDROOT
BRANCH   2  12
ATOM      8  O   UNL     1      33.016  -6.253 -24.194  0.00  0.00    -0.347 OA
ATOM      9  C   UNL     1      31.565  -3.788 -24.495  0.00  0.00    +0.169 C 
ATOM     10  C   UNL     1      31.365  -4.699 -23.281  0.00  0.00    +0.171 C 
ATOM     11  C   UNL     1      32.924  -4.028 -25.152  0.00  0.00    +0.169 C 
ATOM     12  C   UNL     1      31.705  -6.157 -23.626  0.00  0.00    +0.167 C 
ATOM     13  C   UNL     1      33.145  -5.519 -25.413  0.00  0.00    +0.174 C 
BRANCH   9  14
ATOM     14  O   UNL     1      31.513  -2.422 -24.078  0.00  0.00    -0.379 OA
ATOM     15  H   UNL     1      30.775  -1.977 -24.522  0.00  0.00    +0.211 HD
ENDBRANCH   9  14
BRANCH  10  16
ATOM     16  O   UNL     1      29.999  -4.634 -22.872  0.00  0.00    -0.379 OA
ATOM     17  H   UNL     1      29.929  -4.100 -22.065  0.00  0.00    +0.211 HD
ENDBRANCH  10  16
BRANCH  11  18
ATOM     18  O   UNL     1      32.980  -3.322 -26.390  0.00  0.00    -0.379 OA
ATOM     19  H   UNL     1      32.377  -2.563 -26.356  0.00  0.00    +0.211 HD
ENDBRANCH  11  18
BRANCH  13  20
ATOM     20  C   UNL     1      34.538  -5.796 -25.968  0.00  0.00    +0.169 C 
BRANCH  20  21
ATOM     21  O   UNL     1      35.304  -4.607 -25.879  0.00  0.00    -0.379 OA
ATOM     22  H   UNL     1      35.161  -4.195 -25.013  0.00  0.00    +0.211 HD
ENDBRANCH  20  21
ENDBRANCH  13  20
ENDBRANCH   2  12
BRANCH   5  23
ATOM     23  C   UNL     1      30.500 -10.523 -21.508  0.00  0.00    +0.053 C 
BRANCH  23  24
ATOM     24  C   UNL     1      31.530 -11.625 -21.638  0.00  0.00    -0.018 C 
ATOM     25  C   UNL     1      33.415 -13.637 -21.875  0.00  0.00    +0.138 C 
ATOM     26  C   UNL     1      31.624 -12.582 -20.644  0.00  0.00    -0.001 C 
ATOM     27  C   UNL     1      32.356 -11.649 -22.748  0.00  0.00    -0.001 C 
ATOM     28  C   UNL     1      32.574 -13.597 -20.763  0.00  0.00    +0.037 C 
ATOM     29  C   UNL     1      33.306 -12.664 -22.868  0.00  0.00    +0.037 C 
BRANCH  25  30
ATOM     30  O   UNL     1      34.340 -14.628 -21.991  0.00  0.00    -0.476 OA
BRANCH  30  32
ATOM     31  O   UNL     1      35.514 -17.190 -20.868  0.00  0.00    -0.350 OA
ATOM     32  C   UNL     1      33.855 -15.966 -22.036  0.00  0.00    +0.198 C 
ATOM     33  C   UNL     1      34.651 -16.770 -23.034  0.00  0.00    +0.078 C 
ATOM     34  C   UNL     1      34.186 -16.654 -20.728  0.00  0.00    +0.185 C 
ATOM     35  C   UNL     1      35.901 -17.107 -22.245  0.00  0.00    +0.146 C 
ENDBRANCH  30  32
ENDBRANCH  25  30
ENDBRANCH  23  24
ENDBRANCH   5  23
TORSDOF 10
ENDMDL
MODEL 8
REMARK VINA RESULT:      -9.2      8.836     15.886
REMARK  Name = 11949646
REMARK  10 active torsions:
REMARK  status: ('A' for Active; 'I' for Inactive)
REMARK    1  A    between atoms: C_2  and  C_12
REMARK    2  A    between atoms: C_5  and  C_23
REMARK    3  A    between atoms: C_9  and  O_14
REMARK    4  A    between atoms: C_10  and  O_16
REMARK    5  A    between atoms: C_11  and  O_18
REMARK    6  A    between atoms: C_13  and  C_20
REMARK    7  A    between atoms: C_20  and  O_21
REMARK    8  A    between atoms: C_23  and  C_24
REMARK    9  A    between atoms: C_25  and  O_30
REMARK   10  A    between atoms: O_30  and  C_32
REMARK                            x       y       z     vdW  Elec       q    Type
REMARK                         _______ _______ _______ _____ _____    ______ ____
ROOT
ATOM      1 CL   UNL     1      31.071 -12.759 -21.472  0.00  0.00    -0.083 Cl
ATOM      2  C   UNL     1      32.033  -8.400 -22.137  0.00  0.00    +0.007 C 
ATOM      3  C   UNL     1      32.594  -9.361 -22.977  0.00  0.00    -0.005 C 
ATOM      4  C   UNL     1      31.183  -8.785 -21.103  0.00  0.00    -0.001 C 
ATOM      5  C   UNL     1      32.304 -10.711 -22.780  0.00  0.00    -0.007 C 
ATOM      6  C   UNL     1      30.892 -10.135 -20.906  0.00  0.00    +0.011 C 
ATOM      7  C   UNL     1      31.453 -11.099 -21.744  0.00  0.00    +0.054 C 
ENDROOT
BRANCH   2  12
ATOM      8  O   UNL     1      31.144  -6.192 -22.123  0.00  0.00    -0.347 OA
ATOM      9  C   UNL     1      33.058  -5.159 -24.006  0.00  0.00    +0.169 C 
ATOM     10  C   UNL     1      32.899  -6.661 -23.759  0.00  0.00    +0.171 C 
ATOM     11  C   UNL     1      31.793  -4.394 -23.614  0.00  0.00    +0.169 C 
ATOM     12  C   UNL     1      32.349  -6.932 -22.351  0.00  0.00    +0.167 C 
ATOM     13  C   UNL     1      31.340  -4.780 -22.205  0.00  0.00    +0.174 C 
BRANCH   9  14
ATOM     14  O   UNL     1      33.300  -4.928 -25.394  0.00  0.00    -0.379 OA
ATOM     15  H   UNL     1      33.915  -5.599 -25.730  0.00  0.00    +0.211 HD
ENDBRANCH   9  14
BRANCH  10  16
ATOM     16  O   UNL     1      34.175  -7.289 -23.879  0.00  0.00    -0.379 OA
ATOM     17  H   UNL     1      34.493  -7.545 -22.999  0.00  0.00    +0.211 HD
ENDBRANCH  10  16
BRANCH  11  18
ATOM     18  O   UNL     1      32.057  -2.994 -23.656  0.00  0.00    -0.379 OA
ATOM     19  H   UNL     1      32.034  -2.688 -24.577  0.00  0.00    +0.211 HD
ENDBRANCH  11  18
BRANCH  13  20
ATOM     20  C   UNL     1      30.020  -4.112 -21.834  0.00  0.00    +0.169 C 
BRANCH  20  21
ATOM     21  O   UNL     1      30.261  -2.737 -21.591  0.00  0.00    -0.379 OA
ATOM     22  H   UNL     1      29.928  -2.215 -22.336  0.00  0.00    +0.211 HD
ENDBRANCH  20  21
ENDBRANCH  13  20
ENDBRANCH   2  12
BRANCH   5  23
ATOM     23  C   UNL     1      32.925 -11.713 -23.700  0.00  0.00    +0.053 C 
BRANCH  23  24
ATOM     24  C   UNL     1      33.400 -12.970 -23.004  0.00  0.00    -0.018 C 
ATOM     25  C   UNL     1      34.273 -15.268 -21.733  0.00  0.00    +0.138 C 
ATOM     26  C   UNL     1      33.728 -12.916 -21.661  0.00  0.00    -0.001 C 
ATOM     27  C   UNL     1      33.499 -14.146 -23.728  0.00  0.00    -0.001 C 
ATOM     28  C   UNL     1      34.167 -14.074 -21.020  0.00  0.00    +0.037 C 
ATOM     29  C   UNL     1      33.938 -15.304 -23.087  0.00  0.00    +0.037 C 
BRANCH  25  30
ATOM     30  O   UNL     1      34.700 -16.399 -21.107  0.00  0.00    -0.476 OA
BRANCH  30  32
ATOM     31  O   UNL     1      35.162 -19.290 -20.313  0.00  0.00    -0.350 OA
ATOM     32  C   UNL     1      34.851 -17.565 -21.909  0.00  0.00    +0.198 C 
ATOM     33  C   UNL     1      36.298 -17.989 -21.934  0.00  0.00    +0.078 C 
ATOM     34  C   UNL     1      34.185 -18.733 -21.210  0.00  0.00    +0.185 C 
ATOM     35  C   UNL     1      36.440 -18.716 -20.612  0.00  0.00    +0.146 C 
ENDBRANCH  30  32
ENDBRANCH  25  30
ENDBRANCH  23  24
ENDBRANCH   5  23
TORSDOF 10
ENDMDL
MODEL 9
REMARK VINA RESULT:      -9.1      3.210      8.054
REMARK  Name = 11949646
REMARK  10 active torsions:
REMARK  status: ('A' for Active; 'I' for Inactive)
REMARK    1  A    between atoms: C_2  and  C_12
REMARK    2  A    between atoms: C_5  and  C_23
REMARK    3  A    between atoms: C_9  and  O_14
REMARK    4  A    between atoms: C_10  and  O_16
REMARK    5  A    between atoms: C_11  and  O_18
REMARK    6  A    between atoms: C_13  and  C_20
REMARK    7  A    between atoms: C_20  and  O_21
REMARK    8  A    between atoms: C_23  and  C_24
REMARK    9  A    between atoms: C_25  and  O_30
REMARK   10  A    between atoms: O_30  and  C_32
REMARK                            x       y       z     vdW  Elec       q    Type
REMARK                         _______ _______ _______ _____ _____    ______ ____
ROOT
ATOM      1 CL   UNL     1      35.743 -19.945 -20.285  0.00  0.00    -0.083 Cl
ATOM      2  C   UNL     1      32.927 -22.231 -17.599  0.00  0.00    +0.007 C 
ATOM      3  C   UNL     1      34.276 -22.139 -17.258  0.00  0.00    -0.005 C 
ATOM      4  C   UNL     1      32.456 -21.621 -18.760  0.00  0.00    -0.001 C 
ATOM      5  C   UNL     1      35.155 -21.435 -18.081  0.00  0.00    -0.007 C 
ATOM      6  C   UNL     1      33.335 -20.917 -19.583  0.00  0.00    +0.011 C 
ATOM      7  C   UNL     1      34.685 -20.824 -19.244  0.00  0.00    +0.054 C 
ENDROOT
BRANCH   2  12
ATOM      8  O   UNL     1      30.706 -22.328 -16.750  0.00  0.00    -0.347 OA
ATOM      9  C   UNL     1      31.436 -23.725 -14.345  0.00  0.00    +0.169 C 
ATOM     10  C   UNL     1      32.487 -23.092 -15.261  0.00  0.00    +0.171 C 
ATOM     11  C   UNL     1      30.068 -23.071 -14.533  0.00  0.00    +0.169 C 
ATOM     12  C   UNL     1      31.971 -22.996 -16.705  0.00  0.00    +0.167 C 
ATOM     13  C   UNL     1      29.692 -23.014 -16.014  0.00  0.00    +0.174 C 
BRANCH   9  14
ATOM     14  O   UNL     1      31.826 -23.549 -12.982  0.00  0.00    -0.379 OA
ATOM     15  H   UNL     1      31.099 -23.138 -12.489  0.00  0.00    +0.211 HD
ENDBRANCH   9  14
BRANCH  10  16
ATOM     16  O   UNL     1      33.662 -23.902 -15.249  0.00  0.00    -0.379 OA
ATOM     17  H   UNL     1      34.357 -23.470 -15.770  0.00  0.00    +0.211 HD
ENDBRANCH  10  16
BRANCH  11  18
ATOM     18  O   UNL     1      29.084 -23.824 -13.827  0.00  0.00    -0.379 OA
ATOM     19  H   UNL     1      28.233 -23.756 -14.288  0.00  0.00    +0.211 HD
ENDBRANCH  11  18
BRANCH  13  20
ATOM     20  C   UNL     1      28.381 -22.267 -16.236  0.00  0.00    +0.169 C 
BRANCH  20  21
ATOM     21  O   UNL     1      28.076 -21.531 -15.065  0.00  0.00    -0.379 OA
ATOM     22  H   UNL     1      27.242 -21.853 -14.689  0.00  0.00    +0.211 HD
ENDBRANCH  20  21
ENDBRANCH  13  20
ENDBRANCH   2  12
BRANCH   5  23
ATOM     23  C   UNL     1      36.594 -21.359 -17.682  0.00  0.00    +0.053 C 
BRANCH  23  24
ATOM     24  C   UNL     1      36.874 -21.899 -16.296  0.00  0.00    -0.018 C 
ATOM     25  C   UNL     1      37.385 -22.889 -13.763  0.00  0.00    +0.138 C 
ATOM     26  C   UNL     1      37.875 -22.839 -16.128  0.00  0.00    -0.001 C 
ATOM     27  C   UNL     1      36.122 -21.441 -15.229  0.00  0.00    -0.001 C 
ATOM     28  C   UNL     1      38.133 -23.338 -14.851  0.00  0.00    +0.037 C 
ATOM     29  C   UNL     1      36.379 -21.940 -13.952  0.00  0.00    +0.037 C 
BRANCH  25  30
ATOM     30  O   UNL     1      37.637 -23.374 -12.517  0.00  0.00    -0.476 OA
BRANCH  30  32
ATOM     31  O   UNL     1      34.776 -24.370 -12.366  0.00  0.00    -0.350 OA
ATOM     32  C   UNL     1      37.122 -24.665 -12.208  0.00  0.00    +0.198 C 
ATOM     33  C   UNL     1      36.541 -24.668 -10.816  0.00  0.00    +0.078 C 
ATOM     34  C   UNL     1      35.902 -24.927 -13.067  0.00  0.00    +0.185 C 
ATOM     35  C   UNL     1      35.184 -24.031 -11.035  0.00  0.00    +0.146 C 
ENDBRANCH  30  32
ENDBRANCH  25  30
ENDBRANCH  23  24
ENDBRANCH   5  23
TORSDOF 10
ENDMDL
