MODEL 1
REMARK VINA RESULT:     -10.3      0.000      0.000
REMARK  Name = 46937137
REMARK  13 active torsions:
REMARK  status: ('A' for Active; 'I' for Inactive)
REMARK    1  A    between atoms: C_1  and  C_2
REMARK    2  A    between atoms: C_1  and  C_23
REMARK    3  A    between atoms: C_1  and  N_24
REMARK    4  A    between atoms: C_5  and  C_8
REMARK    5  A    between atoms: C_11  and  S_14
REMARK    6  A    between atoms: S_14  and  N_17
REMARK    7  A    between atoms: N_24  and  C_27
REMARK    8  A    between atoms: C_27  and  C_30
REMARK    9  A    between atoms: C_27  and  C_38
REMARK   10  A    between atoms: N_29  and  C_32
REMARK   11  A    between atoms: C_32  and  C_33
REMARK   12  A    between atoms: C_33  and  N_34
REMARK   13  A    between atoms: C_38  and  C_39
REMARK                            x       y       z     vdW  Elec       q    Type
REMARK                         _______ _______ _______ _____ _____    ______ ____
ROOT
ATOM      1  C   UNL     1      34.484 -17.919 -22.847  0.00  0.00    +0.059 C 
ENDROOT
BRANCH   1   2
ATOM      2  C   UNL     1      34.652 -18.795 -21.620  0.00  0.00    -0.034 C 
ATOM      3  C   UNL     1      35.908 -18.933 -21.028  0.00  0.00    -0.006 C 
ATOM      4  C   UNL     1      33.552 -19.462 -21.083  0.00  0.00    -0.006 C 
ATOM      5  C   UNL     1      34.962 -20.405 -19.362  0.00  0.00    -0.000 C 
ATOM      6  C   UNL     1      36.063 -19.737 -19.900  0.00  0.00    -0.000 C 
ATOM      7  C   UNL     1      33.706 -20.267 -19.955  0.00  0.00    -0.000 C 
BRANCH   5   8
ATOM      8  C   UNL     1      35.123 -21.240 -18.193  0.00  0.00    +0.000 C 
ATOM      9  C   UNL     1      36.337 -21.253 -17.505  0.00  0.00    +0.001 C 
ATOM     10  C   UNL     1      34.064 -22.035 -17.752  0.00  0.00    +0.001 C 
ATOM     11  C   UNL     1      35.433 -22.853 -15.937  0.00  0.00    +0.122 C 
ATOM     12  C   UNL     1      36.492 -22.058 -16.378  0.00  0.00    +0.020 C 
ATOM     13  C   UNL     1      34.220 -22.841 -16.624  0.00  0.00    +0.020 C 
BRANCH  11  14
ATOM     14  S   UNL     1      35.627 -23.862 -14.526  0.00  0.00    +0.057 S 
ATOM     15  O   UNL     1      36.589 -23.228 -13.635  0.00  0.00    -0.153 OA
ATOM     16  O   UNL     1      34.306 -24.217 -14.026  0.00  0.00    -0.153 OA
BRANCH  14  17
ATOM     17  N   UNL     1      36.344 -25.251 -15.214  0.00  0.00    -0.203 NA
ATOM     18  H   UNL     1      37.214 -24.990 -15.677  0.00  0.00    +0.144 HD
ATOM     19  H   UNL     1      35.705 -25.660 -15.896  0.00  0.00    +0.144 HD
ENDBRANCH  14  17
ENDBRANCH  11  14
ENDBRANCH   5   8
ENDBRANCH   1   2
BRANCH   1  23
ATOM     20  F   UNL     1      32.620 -18.891 -23.940  0.00  0.00    -0.172 F 
ATOM     21  F   UNL     1      34.161 -18.006 -25.197  0.00  0.00    -0.172 F 
ATOM     22  F   UNL     1      34.537 -19.903 -24.184  0.00  0.00    -0.172 F 
ATOM     23  C   UNL     1      33.955 -18.692 -24.050  0.00  0.00    +0.384 C 
ENDBRANCH   1  23
BRANCH   1  24
ATOM     24  N   UNL     1      33.643 -16.766 -22.570  0.00  0.00    +0.400 N 
ATOM     25  H   UNL     1      33.106 -16.535 -23.407  0.00  0.00    -0.083 HD
ATOM     26  H   UNL     1      33.015 -16.994 -21.800  0.00  0.00    -0.083 HD
BRANCH  24  27
ATOM     27  C   UNL     1      34.459 -15.611 -22.187  0.00  0.00    +0.018 C 
BRANCH  27  30
ATOM     28  O   UNL     1      34.066 -15.460 -19.805  0.00  0.00    -0.277 OA
ATOM     29  N   UNL     1      32.925 -14.008 -21.212  0.00  0.00    -0.308 N 
ATOM     30  C   UNL     1      33.804 -15.044 -20.932  0.00  0.00    +0.202 C 
ATOM     31  H   UNL     1      32.785 -13.752 -22.152  0.00  0.00    +0.149 HD
BRANCH  29  32
ATOM     32  C   UNL     1      32.203 -13.290 -20.187  0.00  0.00    +0.066 C 
BRANCH  32  33
ATOM     33  C   UNL     1      31.942 -11.850 -20.603  0.00  0.00    -0.065 C 
BRANCH  33  34
ATOM     34  N   UNL     1      30.798 -11.784 -21.505  0.00  0.00    +0.382 N 
ATOM     35  H   UNL     1      29.936 -11.877 -20.967  0.00  0.00    -0.089 HD
ATOM     36  H   UNL     1      30.857 -12.541 -22.185  0.00  0.00    -0.089 HD
ATOM     37  H   UNL     1      30.800 -10.887 -21.992  0.00  0.00    -0.089 HD
ENDBRANCH  33  34
ENDBRANCH  32  33
ENDBRANCH  29  32
ENDBRANCH  27  30
BRANCH  27  38
ATOM     38  C   UNL     1      34.503 -14.591 -23.336  0.00  0.00    -0.012 C 
BRANCH  38  39
ATOM     39  C   UNL     1      33.146 -14.349 -24.029  0.00  0.00    -0.002 C 
ATOM     40  C   UNL     1      33.122 -15.062 -25.384  0.00  0.00    -0.000 C 
ATOM     41  C   UNL     1      32.845 -12.861 -24.225  0.00  0.00    -0.000 C 
ENDBRANCH  38  39
ENDBRANCH  27  38
ENDBRANCH  24  27
ENDBRANCH   1  24
TORSDOF 13
ENDMDL
MODEL 2
REMARK VINA RESULT:     -10.2      6.103      9.425
REMARK  Name = 46937137
REMARK  13 active torsions:
REMARK  status: ('A' for Active; 'I' for Inactive)
REMARK    1  A    between atoms: C_1  and  C_2
REMARK    2  A    between atoms: C_1  and  C_23
REMARK    3  A    between atoms: C_1  and  N_24
REMARK    4  A    between atoms: C_5  and  C_8
REMARK    5  A    between atoms: C_11  and  S_14
REMARK    6  A    between atoms: S_14  and  N_17
REMARK    7  A    between atoms: N_24  and  C_27
REMARK    8  A    between atoms: C_27  and  C_30
REMARK    9  A    between atoms: C_27  and  C_38
REMARK   10  A    between atoms: N_29  and  C_32
REMARK   11  A    between atoms: C_32  and  C_33
REMARK   12  A    between atoms: C_33  and  N_34
REMARK   13  A    between atoms: C_38  and  C_39
REMARK                            x       y       z     vdW  Elec       q    Type
REMARK                         _______ _______ _______ _____ _____    ______ ____
ROOT
ATOM      1  C   UNL     1      31.827  -8.921 -23.085  0.00  0.00    +0.059 C 
ENDROOT
BRANCH   1   2
ATOM      2  C   UNL     1      32.345 -10.330 -22.867  0.00  0.00    -0.034 C 
ATOM      3  C   UNL     1      31.973 -11.041 -21.726  0.00  0.00    -0.006 C 
ATOM      4  C   UNL     1      33.193 -10.915 -23.807  0.00  0.00    -0.006 C 
ATOM      5  C   UNL     1      33.297 -12.922 -22.466  0.00  0.00    -0.000 C 
ATOM      6  C   UNL     1      32.448 -12.336 -21.526  0.00  0.00    -0.000 C 
ATOM      7  C   UNL     1      33.669 -12.210 -23.607  0.00  0.00    -0.000 C 
BRANCH   5   8
ATOM      8  C   UNL     1      33.791 -14.265 -22.258  0.00  0.00    +0.000 C 
ATOM      9  C   UNL     1      34.182 -15.042 -23.348  0.00  0.00    +0.001 C 
ATOM     10  C   UNL     1      33.876 -14.784 -20.965  0.00  0.00    +0.001 C 
ATOM     11  C   UNL     1      34.742 -16.857 -21.854  0.00  0.00    +0.122 C 
ATOM     12  C   UNL     1      34.658 -16.337 -23.147  0.00  0.00    +0.020 C 
ATOM     13  C   UNL     1      34.351 -16.081 -20.764  0.00  0.00    +0.020 C 
BRANCH  11  14
ATOM     14  S   UNL     1      35.338 -18.478 -21.602  0.00  0.00    +0.057 S 
ATOM     15  O   UNL     1      34.823 -18.965 -20.330  0.00  0.00    -0.153 OA
ATOM     16  O   UNL     1      35.107 -19.249 -22.816  0.00  0.00    -0.153 OA
BRANCH  14  17
ATOM     17  N   UNL     1      37.014 -18.190 -21.446  0.00  0.00    -0.203 NA
ATOM     18  H   UNL     1      37.492 -19.067 -21.240  0.00  0.00    +0.144 HD
ATOM     19  H   UNL     1      37.175 -17.528 -20.686  0.00  0.00    +0.144 HD
ENDBRANCH  14  17
ENDBRANCH  11  14
ENDBRANCH   5   8
ENDBRANCH   1   2
BRANCH   1  23
ATOM     20  F   UNL     1      30.772  -8.180 -21.097  0.00  0.00    -0.172 F 
ATOM     21  F   UNL     1      29.778  -7.726 -22.980  0.00  0.00    -0.172 F 
ATOM     22  F   UNL     1      29.768  -9.767 -22.206  0.00  0.00    -0.172 F 
ATOM     23  C   UNL     1      30.523  -8.656 -22.341  0.00  0.00    +0.384 C 
ENDBRANCH   1  23
BRANCH   1  24
ATOM     24  N   UNL     1      32.825  -7.923 -22.738  0.00  0.00    +0.400 N 
ATOM     25  H   UNL     1      32.869  -7.833 -21.723  0.00  0.00    -0.083 HD
ATOM     26  H   UNL     1      33.729  -8.222 -23.105  0.00  0.00    -0.083 HD
BRANCH  24  27
ATOM     27  C   UNL     1      32.483  -6.624 -23.323  0.00  0.00    +0.018 C 
BRANCH  27  30
ATOM     28  O   UNL     1      34.440  -6.983 -24.699  0.00  0.00    -0.277 OA
ATOM     29  N   UNL     1      32.616  -5.888 -25.628  0.00  0.00    -0.308 N 
ATOM     30  C   UNL     1      33.304  -6.522 -24.604  0.00  0.00    +0.202 C 
ATOM     31  H   UNL     1      31.709  -5.553 -25.448  0.00  0.00    +0.149 HD
BRANCH  29  32
ATOM     32  C   UNL     1      33.172  -5.696 -26.948  0.00  0.00    +0.066 C 
BRANCH  32  33
ATOM     33  C   UNL     1      34.062  -4.464 -26.997  0.00  0.00    -0.065 C 
BRANCH  33  34
ATOM     34  N   UNL     1      35.460  -4.842 -26.827  0.00  0.00    +0.382 N 
ATOM     35  H   UNL     1      35.714  -4.770 -25.842  0.00  0.00    -0.089 HD
ATOM     36  H   UNL     1      36.050  -4.219 -27.377  0.00  0.00    -0.089 HD
ATOM     37  H   UNL     1      35.593  -5.804 -27.143  0.00  0.00    -0.089 HD
ENDBRANCH  33  34
ENDBRANCH  32  33
ENDBRANCH  29  32
ENDBRANCH  27  30
BRANCH  27  38
ATOM     38  C   UNL     1      32.805  -5.496 -22.330  0.00  0.00    -0.012 C 
BRANCH  38  39
ATOM     39  C   UNL     1      31.614  -4.569 -22.007  0.00  0.00    -0.002 C 
ATOM     40  C   UNL     1      30.990  -4.977 -20.670  0.00  0.00    -0.000 C 
ATOM     41  C   UNL     1      30.545  -4.586 -23.101  0.00  0.00    -0.000 C 
ENDBRANCH  38  39
ENDBRANCH  27  38
ENDBRANCH  24  27
ENDBRANCH   1  24
TORSDOF 13
ENDMDL
MODEL 3
REMARK VINA RESULT:     -10.0      4.598     10.383
REMARK  Name = 46937137
REMARK  13 active torsions:
REMARK  status: ('A' for Active; 'I' for Inactive)
REMARK    1  A    between atoms: C_1  and  C_2
REMARK    2  A    between atoms: C_1  and  C_23
REMARK    3  A    between atoms: C_1  and  N_24
REMARK    4  A    between atoms: C_5  and  C_8
REMARK    5  A    between atoms: C_11  and  S_14
REMARK    6  A    between atoms: S_14  and  N_17
REMARK    7  A    between atoms: N_24  and  C_27
REMARK    8  A    between atoms: C_27  and  C_30
REMARK    9  A    between atoms: C_27  and  C_38
REMARK   10  A    between atoms: N_29  and  C_32
REMARK   11  A    between atoms: C_32  and  C_33
REMARK   12  A    between atoms: C_33  and  N_34
REMARK   13  A    between atoms: C_38  and  C_39
REMARK                            x       y       z     vdW  Elec       q    Type
REMARK                         _______ _______ _______ _____ _____    ______ ____
ROOT
ATOM      1  C   UNL     1      35.855 -22.230 -16.754  0.00  0.00    +0.059 C 
ENDROOT
BRANCH   1   2
ATOM      2  C   UNL     1      35.525 -21.316 -17.919  0.00  0.00    -0.034 C 
ATOM      3  C   UNL     1      36.488 -20.432 -18.406  0.00  0.00    -0.006 C 
ATOM      4  C   UNL     1      34.260 -21.359 -18.504  0.00  0.00    -0.006 C 
ATOM      5  C   UNL     1      34.921 -19.635 -20.062  0.00  0.00    -0.000 C 
ATOM      6  C   UNL     1      36.187 -19.592 -19.477  0.00  0.00    -0.000 C 
ATOM      7  C   UNL     1      33.958 -20.519 -19.575  0.00  0.00    -0.000 C 
BRANCH   5   8
ATOM      8  C   UNL     1      34.607 -18.763 -21.173  0.00  0.00    +0.000 C 
ATOM      9  C   UNL     1      34.026 -19.285 -22.328  0.00  0.00    +0.001 C 
ATOM     10  C   UNL     1      34.887 -17.398 -21.089  0.00  0.00    +0.001 C 
ATOM     11  C   UNL     1      34.004 -17.080 -23.315  0.00  0.00    +0.122 C 
ATOM     12  C   UNL     1      33.724 -18.444 -23.399  0.00  0.00    +0.020 C 
ATOM     13  C   UNL     1      34.585 -16.557 -22.160  0.00  0.00    +0.020 C 
BRANCH  11  14
ATOM     14  S   UNL     1      33.627 -16.027 -24.655  0.00  0.00    +0.057 S 
ATOM     15  O   UNL     1      34.866 -15.699 -25.346  0.00  0.00    -0.153 OA
ATOM     16  O   UNL     1      32.517 -16.606 -25.400  0.00  0.00    -0.153 OA
BRANCH  14  17
ATOM     17  N   UNL     1      33.070 -14.638 -23.832  0.00  0.00    -0.203 NA
ATOM     18  H   UNL     1      32.212 -14.304 -24.271  0.00  0.00    +0.144 HD
ATOM     19  H   UNL     1      33.781 -13.908 -23.877  0.00  0.00    +0.144 HD
ENDBRANCH  14  17
ENDBRANCH  11  14
ENDBRANCH   5   8
ENDBRANCH   1   2
BRANCH   1  23
ATOM     20  F   UNL     1      37.021 -21.808 -14.736  0.00  0.00    -0.172 F 
ATOM     21  F   UNL     1      38.121 -22.797 -16.332  0.00  0.00    -0.172 F 
ATOM     22  F   UNL     1      37.650 -20.671 -16.487  0.00  0.00    -0.172 F 
ATOM     23  C   UNL     1      37.173 -21.867 -16.080  0.00  0.00    +0.384 C 
ENDBRANCH   1  23
BRANCH   1  24
ATOM     24  N   UNL     1      34.776 -22.267 -15.781  0.00  0.00    +0.400 N 
ATOM     25  H   UNL     1      35.141 -21.997 -14.867  0.00  0.00    -0.083 HD
ATOM     26  H   UNL     1      34.046 -21.619 -16.074  0.00  0.00    -0.083 HD
BRANCH  24  27
ATOM     27  C   UNL     1      34.205 -23.613 -15.693  0.00  0.00    +0.018 C 
BRANCH  27  30
ATOM     28  O   UNL     1      32.057 -23.123 -16.692  0.00  0.00    -0.277 OA
ATOM     29  N   UNL     1      32.137 -23.639 -14.430  0.00  0.00    -0.308 N 
ATOM     30  C   UNL     1      32.693 -23.418 -15.681  0.00  0.00    +0.202 C 
ATOM     31  H   UNL     1      32.736 -23.870 -13.684  0.00  0.00    +0.149 HD
BRANCH  29  32
ATOM     32  C   UNL     1      30.719 -23.543 -14.170  0.00  0.00    +0.066 C 
BRANCH  32  33
ATOM     33  C   UNL     1      30.236 -24.703 -13.313  0.00  0.00    -0.065 C 
BRANCH  33  34
ATOM     34  N   UNL     1      29.009 -25.264 -13.867  0.00  0.00    +0.382 N 
ATOM     35  H   UNL     1      28.650 -25.981 -13.237  0.00  0.00    -0.089 HD
ATOM     36  H   UNL     1      29.205 -25.678 -14.777  0.00  0.00    -0.089 HD
ATOM     37  H   UNL     1      28.313 -24.524 -13.971  0.00  0.00    -0.089 HD
ENDBRANCH  33  34
ENDBRANCH  32  33
ENDBRANCH  29  32
ENDBRANCH  27  30
BRANCH  27  38
ATOM     38  C   UNL     1      34.713 -24.321 -14.427  0.00  0.00    -0.012 C 
BRANCH  38  39
ATOM     39  C   UNL     1      36.149 -24.877 -14.537  0.00  0.00    -0.002 C 
ATOM     40  C   UNL     1      36.106 -26.322 -15.042  0.00  0.00    -0.000 C 
ATOM     41  C   UNL     1      36.904 -24.819 -13.208  0.00  0.00    -0.000 C 
ENDBRANCH  38  39
ENDBRANCH  27  38
ENDBRANCH  24  27
ENDBRANCH   1  24
TORSDOF 13
ENDMDL
MODEL 4
REMARK VINA RESULT:     -10.0      6.196      9.420
REMARK  Name = 46937137
REMARK  13 active torsions:
REMARK  status: ('A' for Active; 'I' for Inactive)
REMARK    1  A    between atoms: C_1  and  C_2
REMARK    2  A    between atoms: C_1  and  C_23
REMARK    3  A    between atoms: C_1  and  N_24
REMARK    4  A    between atoms: C_5  and  C_8
REMARK    5  A    between atoms: C_11  and  S_14
REMARK    6  A    between atoms: S_14  and  N_17
REMARK    7  A    between atoms: N_24  and  C_27
REMARK    8  A    between atoms: C_27  and  C_30
REMARK    9  A    between atoms: C_27  and  C_38
REMARK   10  A    between atoms: N_29  and  C_32
REMARK   11  A    between atoms: C_32  and  C_33
REMARK   12  A    between atoms: C_33  and  N_34
REMARK   13  A    between atoms: C_38  and  C_39
REMARK                            x       y       z     vdW  Elec       q    Type
REMARK                         _______ _______ _______ _____ _____    ______ ____
ROOT
ATOM      1  C   UNL     1      31.114  -8.819 -22.027  0.00  0.00    +0.059 C 
ENDROOT
BRANCH   1   2
ATOM      2  C   UNL     1      31.736 -10.202 -22.004  0.00  0.00    -0.034 C 
ATOM      3  C   UNL     1      31.425 -11.089 -20.973  0.00  0.00    -0.006 C 
ATOM      4  C   UNL     1      32.617 -10.588 -23.013  0.00  0.00    -0.006 C 
ATOM      5  C   UNL     1      32.877 -12.748 -21.961  0.00  0.00    -0.000 C 
ATOM      6  C   UNL     1      31.995 -12.361 -20.951  0.00  0.00    -0.000 C 
ATOM      7  C   UNL     1      33.188 -11.860 -22.992  0.00  0.00    -0.000 C 
BRANCH   5   8
ATOM      8  C   UNL     1      33.469 -14.067 -21.938  0.00  0.00    +0.000 C 
ATOM      9  C   UNL     1      33.720 -14.699 -20.720  0.00  0.00    +0.001 C 
ATOM     10  C   UNL     1      33.790 -14.708 -23.135  0.00  0.00    +0.001 C 
ATOM     11  C   UNL     1      34.613 -16.612 -21.896  0.00  0.00    +0.122 C 
ATOM     12  C   UNL     1      34.291 -15.971 -20.699  0.00  0.00    +0.020 C 
ATOM     13  C   UNL     1      34.363 -15.981 -23.113  0.00  0.00    +0.020 C 
BRANCH  11  14
ATOM     14  S   UNL     1      35.329 -18.204 -21.869  0.00  0.00    +0.057 S 
ATOM     15  O   UNL     1      35.154 -18.764 -20.536  0.00  0.00    -0.153 OA
ATOM     16  O   UNL     1      34.855 -18.943 -23.030  0.00  0.00    -0.153 OA
BRANCH  14  17
ATOM     17  N   UNL     1      36.978 -17.824 -22.096  0.00  0.00    -0.203 NA
ATOM     18  H   UNL     1      37.082 -17.244 -22.929  0.00  0.00    +0.144 HD
ATOM     19  H   UNL     1      37.512 -18.685 -22.214  0.00  0.00    +0.144 HD
ENDBRANCH  14  17
ENDBRANCH  11  14
ENDBRANCH   5   8
ENDBRANCH   1   2
BRANCH   1  23
ATOM     20  F   UNL     1      30.686  -8.767 -19.698  0.00  0.00    -0.172 F 
ATOM     21  F   UNL     1      32.585  -7.951 -20.379  0.00  0.00    -0.172 F 
ATOM     22  F   UNL     1      30.735  -6.846 -20.728  0.00  0.00    -0.172 F 
ATOM     23  C   UNL     1      31.279  -8.081 -20.704  0.00  0.00    +0.384 C 
ENDBRANCH   1  23
BRANCH   1  24
ATOM     24  N   UNL     1      31.629  -8.019 -23.126  0.00  0.00    +0.400 N 
ATOM     25  H   UNL     1      32.331  -8.559 -23.634  0.00  0.00    -0.083 HD
ATOM     26  H   UNL     1      30.857  -7.775 -23.746  0.00  0.00    -0.083 HD
BRANCH  24  27
ATOM     27  C   UNL     1      32.241  -6.785 -22.626  0.00  0.00    +0.018 C 
BRANCH  27  30
ATOM     28  O   UNL     1      30.379  -5.810 -23.823  0.00  0.00    -0.277 OA
ATOM     29  N   UNL     1      32.149  -4.436 -23.215  0.00  0.00    -0.308 N 
ATOM     30  C   UNL     1      31.479  -5.648 -23.297  0.00  0.00    +0.202 C 
ATOM     31  H   UNL     1      33.028  -4.415 -22.772  0.00  0.00    +0.149 HD
BRANCH  29  32
ATOM     32  C   UNL     1      31.617  -3.204 -23.751  0.00  0.00    +0.066 C 
BRANCH  32  33
ATOM     33  C   UNL     1      31.043  -2.327 -22.649  0.00  0.00    -0.065 C 
BRANCH  33  34
ATOM     34  N   UNL     1      29.973  -3.028 -21.950  0.00  0.00    +0.382 N 
ATOM     35  H   UNL     1      29.955  -2.733 -20.974  0.00  0.00    -0.089 HD
ATOM     36  H   UNL     1      30.136  -4.033 -21.999  0.00  0.00    -0.089 HD
ATOM     37  H   UNL     1      29.078  -2.806 -22.388  0.00  0.00    -0.089 HD
ENDBRANCH  33  34
ENDBRANCH  32  33
ENDBRANCH  29  32
ENDBRANCH  27  30
BRANCH  27  38
ATOM     38  C   UNL     1      33.740  -6.764 -22.964  0.00  0.00    -0.012 C 
BRANCH  38  39
ATOM     39  C   UNL     1      34.089  -7.314 -24.364  0.00  0.00    -0.002 C 
ATOM     40  C   UNL     1      35.183  -8.377 -24.244  0.00  0.00    -0.000 C 
ATOM     41  C   UNL     1      34.542  -6.216 -25.328  0.00  0.00    -0.000 C 
ENDBRANCH  38  39
ENDBRANCH  27  38
ENDBRANCH  24  27
ENDBRANCH   1  24
TORSDOF 13
ENDMDL
MODEL 5
REMARK VINA RESULT:      -9.8      6.410      9.750
REMARK  Name = 46937137
REMARK  13 active torsions:
REMARK  status: ('A' for Active; 'I' for Inactive)
REMARK    1  A    between atoms: C_1  and  C_2
REMARK    2  A    between atoms: C_1  and  C_23
REMARK    3  A    between atoms: C_1  and  N_24
REMARK    4  A    between atoms: C_5  and  C_8
REMARK    5  A    between atoms: C_11  and  S_14
REMARK    6  A    between atoms: S_14  and  N_17
REMARK    7  A    between atoms: N_24  and  C_27
REMARK    8  A    between atoms: C_27  and  C_30
REMARK    9  A    between atoms: C_27  and  C_38
REMARK   10  A    between atoms: N_29  and  C_32
REMARK   11  A    between atoms: C_32  and  C_33
REMARK   12  A    between atoms: C_33  and  N_34
REMARK   13  A    between atoms: C_38  and  C_39
REMARK                            x       y       z     vdW  Elec       q    Type
REMARK                         _______ _______ _______ _____ _____    ______ ____
ROOT
ATOM      1  C   UNL     1      31.541  -8.734 -22.284  0.00  0.00    +0.059 C 
ENDROOT
BRANCH   1   2
ATOM      2  C   UNL     1      32.081 -10.151 -22.273  0.00  0.00    -0.034 C 
ATOM      3  C   UNL     1      32.979 -10.563 -23.258  0.00  0.00    -0.006 C 
ATOM      4  C   UNL     1      31.681 -11.043 -21.278  0.00  0.00    -0.006 C 
ATOM      5  C   UNL     1      33.076 -12.758 -22.252  0.00  0.00    -0.000 C 
ATOM      6  C   UNL     1      33.477 -11.865 -23.248  0.00  0.00    -0.000 C 
ATOM      7  C   UNL     1      32.178 -12.345 -21.267  0.00  0.00    -0.000 C 
BRANCH   5   8
ATOM      8  C   UNL     1      33.592 -14.109 -22.242  0.00  0.00    +0.000 C 
ATOM      9  C   UNL     1      33.880 -14.737 -21.031  0.00  0.00    +0.001 C 
ATOM     10  C   UNL     1      33.801 -14.785 -23.445  0.00  0.00    +0.001 C 
ATOM     11  C   UNL     1      34.588 -16.716 -22.224  0.00  0.00    +0.122 C 
ATOM     12  C   UNL     1      34.377 -16.040 -21.021  0.00  0.00    +0.020 C 
ATOM     13  C   UNL     1      34.299 -16.088 -23.435  0.00  0.00    +0.020 C 
BRANCH  11  14
ATOM     14  S   UNL     1      35.210 -18.346 -22.213  0.00  0.00    +0.057 S 
ATOM     15  O   UNL     1      34.522 -19.109 -23.245  0.00  0.00    -0.153 OA
ATOM     16  O   UNL     1      36.665 -18.285 -22.209  0.00  0.00    -0.153 OA
BRANCH  14  17
ATOM     17  N   UNL     1      34.680 -18.887 -20.681  0.00  0.00    -0.203 NA
ATOM     18  H   UNL     1      34.806 -18.143 -19.996  0.00  0.00    +0.144 HD
ATOM     19  H   UNL     1      35.226 -19.702 -20.401  0.00  0.00    +0.144 HD
ENDBRANCH  14  17
ENDBRANCH  11  14
ENDBRANCH   5   8
ENDBRANCH   1   2
BRANCH   1  23
ATOM     20  F   UNL     1      30.574  -7.047 -20.930  0.00  0.00    -0.172 F 
ATOM     21  F   UNL     1      30.614  -9.069 -20.124  0.00  0.00    -0.172 F 
ATOM     22  F   UNL     1      32.456  -7.903 -20.236  0.00  0.00    -0.172 F 
ATOM     23  C   UNL     1      31.305  -8.187 -20.881  0.00  0.00    +0.384 C 
ENDBRANCH   1  23
BRANCH   1  24
ATOM     24  N   UNL     1      32.399  -7.840 -23.044  0.00  0.00    +0.400 N 
ATOM     25  H   UNL     1      33.233  -7.630 -22.495  0.00  0.00    -0.083 HD
ATOM     26  H   UNL     1      32.659  -8.298 -23.918  0.00  0.00    -0.083 HD
BRANCH  24  27
ATOM     27  C   UNL     1      31.699  -6.591 -23.355  0.00  0.00    +0.018 C 
BRANCH  27  30
ATOM     28  O   UNL     1      30.540  -6.999 -25.437  0.00  0.00    -0.277 OA
ATOM     29  N   UNL     1      32.636  -6.005 -25.511  0.00  0.00    -0.308 N 
ATOM     30  C   UNL     1      31.545  -6.574 -24.872  0.00  0.00    +0.202 C 
ATOM     31  H   UNL     1      33.393  -5.696 -24.964  0.00  0.00    +0.149 HD
BRANCH  29  32
ATOM     32  C   UNL     1      32.714  -5.849 -26.946  0.00  0.00    +0.066 C 
BRANCH  32  33
ATOM     33  C   UNL     1      33.336  -4.513 -27.322  0.00  0.00    -0.065 C 
BRANCH  33  34
ATOM     34  N   UNL     1      32.372  -3.435 -27.137  0.00  0.00    +0.382 N 
ATOM     35  H   UNL     1      32.795  -2.692 -26.581  0.00  0.00    -0.089 HD
ATOM     36  H   UNL     1      31.549  -3.795 -26.652  0.00  0.00    -0.089 HD
ATOM     37  H   UNL     1      32.096  -3.065 -28.047  0.00  0.00    -0.089 HD
ENDBRANCH  33  34
ENDBRANCH  32  33
ENDBRANCH  29  32
ENDBRANCH  27  30
BRANCH  27  38
ATOM     38  C   UNL     1      32.506  -5.390 -22.835  0.00  0.00    -0.012 C 
BRANCH  38  39
ATOM     39  C   UNL     1      31.658  -4.141 -22.515  0.00  0.00    -0.002 C 
ATOM     40  C   UNL     1      30.198  -4.548 -22.299  0.00  0.00    -0.000 C 
ATOM     41  C   UNL     1      31.739  -3.080 -23.615  0.00  0.00    -0.000 C 
ENDBRANCH  38  39
ENDBRANCH  27  38
ENDBRANCH  24  27
ENDBRANCH   1  24
TORSDOF 13
ENDMDL
MODEL 6
REMARK VINA RESULT:      -9.5      5.415     11.286
REMARK  Name = 46937137
REMARK  13 active torsions:
REMARK  status: ('A' for Active; 'I' for Inactive)
REMARK    1  A    between atoms: C_1  and  C_2
REMARK    2  A    between atoms: C_1  and  C_23
REMARK    3  A    between atoms: C_1  and  N_24
REMARK    4  A    between atoms: C_5  and  C_8
REMARK    5  A    between atoms: C_11  and  S_14
REMARK    6  A    between atoms: S_14  and  N_17
REMARK    7  A    between atoms: N_24  and  C_27
REMARK    8  A    between atoms: C_27  and  C_30
REMARK    9  A    between atoms: C_27  and  C_38
REMARK   10  A    between atoms: N_29  and  C_32
REMARK   11  A    between atoms: C_32  and  C_33
REMARK   12  A    between atoms: C_33  and  N_34
REMARK   13  A    between atoms: C_38  and  C_39
REMARK                            x       y       z     vdW  Elec       q    Type
REMARK                         _______ _______ _______ _____ _____    ______ ____
ROOT
ATOM      1  C   UNL     1      32.921 -23.766 -14.128  0.00  0.00    +0.059 C 
ENDROOT
BRANCH   1   2
ATOM      2  C   UNL     1      33.175 -23.017 -15.422  0.00  0.00    -0.034 C 
ATOM      3  C   UNL     1      32.125 -22.786 -16.311  0.00  0.00    -0.006 C 
ATOM      4  C   UNL     1      34.456 -22.558 -15.723  0.00  0.00    -0.006 C 
ATOM      5  C   UNL     1      33.639 -21.637 -17.802  0.00  0.00    -0.000 C 
ATOM      6  C   UNL     1      32.356 -22.097 -17.500  0.00  0.00    -0.000 C 
ATOM      7  C   UNL     1      34.689 -21.869 -16.912  0.00  0.00    -0.000 C 
BRANCH   5   8
ATOM      8  C   UNL     1      33.880 -20.923 -19.036  0.00  0.00    +0.000 C 
ATOM      9  C   UNL     1      32.807 -20.441 -19.785  0.00  0.00    +0.001 C 
ATOM     10  C   UNL     1      35.188 -20.715 -19.478  0.00  0.00    +0.001 C 
ATOM     11  C   UNL     1      34.347 -19.545 -21.418  0.00  0.00    +0.122 C 
ATOM     12  C   UNL     1      33.040 -19.752 -20.975  0.00  0.00    +0.020 C 
ATOM     13  C   UNL     1      35.420 -20.026 -20.669  0.00  0.00    +0.020 C 
BRANCH  11  14
ATOM     14  S   UNL     1      34.638 -18.684 -22.907  0.00  0.00    +0.057 S 
ATOM     15  O   UNL     1      34.522 -19.624 -24.013  0.00  0.00    -0.153 OA
ATOM     16  O   UNL     1      33.833 -17.470 -22.905  0.00  0.00    -0.153 OA
BRANCH  14  17
ATOM     17  N   UNL     1      36.280 -18.253 -22.719  0.00  0.00    -0.203 NA
ATOM     18  H   UNL     1      36.403 -17.269 -22.960  0.00  0.00    +0.144 HD
ATOM     19  H   UNL     1      36.855 -18.828 -23.335  0.00  0.00    +0.144 HD
ENDBRANCH  14  17
ENDBRANCH  11  14
ENDBRANCH   5   8
ENDBRANCH   1   2
BRANCH   1  23
ATOM     20  F   UNL     1      31.332 -25.088 -12.969  0.00  0.00    -0.172 F 
ATOM     21  F   UNL     1      30.685 -23.125 -13.652  0.00  0.00    -0.172 F 
ATOM     22  F   UNL     1      30.961 -24.744 -15.091  0.00  0.00    -0.172 F 
ATOM     23  C   UNL     1      31.464 -24.184 -13.970  0.00  0.00    +0.384 C 
ENDBRANCH   1  23
BRANCH   1  24
ATOM     24  N   UNL     1      33.800 -24.916 -13.994  0.00  0.00    +0.400 N 
ATOM     25  H   UNL     1      33.436 -25.533 -13.266  0.00  0.00    -0.083 HD
ATOM     26  H   UNL     1      33.837 -25.408 -14.886  0.00  0.00    -0.083 HD
BRANCH  24  27
ATOM     27  C   UNL     1      35.155 -24.492 -13.633  0.00  0.00    +0.018 C 
BRANCH  27  30
ATOM     28  O   UNL     1      35.703 -26.091 -15.363  0.00  0.00    -0.277 OA
ATOM     29  N   UNL     1      37.409 -25.300 -14.003  0.00  0.00    -0.308 N 
ATOM     30  C   UNL     1      36.093 -25.392 -14.430  0.00  0.00    +0.202 C 
ATOM     31  H   UNL     1      37.617 -24.709 -13.243  0.00  0.00    +0.149 HD
BRANCH  29  32
ATOM     32  C   UNL     1      38.490 -26.035 -14.620  0.00  0.00    +0.066 C 
BRANCH  32  33
ATOM     33  C   UNL     1      39.839 -25.414 -14.288  0.00  0.00    -0.065 C 
BRANCH  33  34
ATOM     34  N   UNL     1      40.785 -26.446 -13.882  0.00  0.00    +0.382 N 
ATOM     35  H   UNL     1      41.445 -26.618 -14.640  0.00  0.00    -0.089 HD
ATOM     36  H   UNL     1      40.279 -27.306 -13.671  0.00  0.00    -0.089 HD
ATOM     37  H   UNL     1      41.292 -26.136 -13.053  0.00  0.00    -0.089 HD
ENDBRANCH  33  34
ENDBRANCH  32  33
ENDBRANCH  29  32
ENDBRANCH  27  30
BRANCH  27  38
ATOM     38  C   UNL     1      35.364 -24.627 -12.116  0.00  0.00    -0.012 C 
BRANCH  38  39
ATOM     39  C   UNL     1      35.489 -23.284 -11.365  0.00  0.00    -0.002 C 
ATOM     40  C   UNL     1      36.677 -22.492 -11.918  0.00  0.00    -0.000 C 
ATOM     41  C   UNL     1      35.653 -23.469  -9.855  0.00  0.00    -0.000 C 
ENDBRANCH  38  39
ENDBRANCH  27  38
ENDBRANCH  24  27
ENDBRANCH   1  24
TORSDOF 13
ENDMDL
MODEL 7
REMARK VINA RESULT:      -9.1      1.613      2.579
REMARK  Name = 46937137
REMARK  13 active torsions:
REMARK  status: ('A' for Active; 'I' for Inactive)
REMARK    1  A    between atoms: C_1  and  C_2
REMARK    2  A    between atoms: C_1  and  C_23
REMARK    3  A    between atoms: C_1  and  N_24
REMARK    4  A    between atoms: C_5  and  C_8
REMARK    5  A    between atoms: C_11  and  S_14
REMARK    6  A    between atoms: S_14  and  N_17
REMARK    7  A    between atoms: N_24  and  C_27
REMARK    8  A    between atoms: C_27  and  C_30
REMARK    9  A    between atoms: C_27  and  C_38
REMARK   10  A    between atoms: N_29  and  C_32
REMARK   11  A    between atoms: C_32  and  C_33
REMARK   12  A    between atoms: C_33  and  N_34
REMARK   13  A    between atoms: C_38  and  C_39
REMARK                            x       y       z     vdW  Elec       q    Type
REMARK                         _______ _______ _______ _____ _____    ______ ____
ROOT
ATOM      1  C   UNL     1      35.209 -18.166 -22.945  0.00  0.00    +0.059 C 
ENDROOT
BRANCH   1   2
ATOM      2  C   UNL     1      35.079 -19.018 -21.696  0.00  0.00    -0.034 C 
ATOM      3  C   UNL     1      36.202 -19.276 -20.909  0.00  0.00    -0.006 C 
ATOM      4  C   UNL     1      33.838 -19.540 -21.334  0.00  0.00    -0.006 C 
ATOM      5  C   UNL     1      34.842 -20.581 -19.398  0.00  0.00    -0.000 C 
ATOM      6  C   UNL     1      36.083 -20.057 -19.761  0.00  0.00    -0.000 C 
ATOM      7  C   UNL     1      33.719 -20.323 -20.186  0.00  0.00    -0.000 C 
BRANCH   5   8
ATOM      8  C   UNL     1      34.719 -21.393 -18.207  0.00  0.00    +0.000 C 
ATOM      9  C   UNL     1      33.526 -22.065 -17.939  0.00  0.00    +0.001 C 
ATOM     10  C   UNL     1      35.794 -21.504 -17.324  0.00  0.00    +0.001 C 
ATOM     11  C   UNL     1      34.483 -22.957 -15.908  0.00  0.00    +0.122 C 
ATOM     12  C   UNL     1      33.408 -22.847 -16.791  0.00  0.00    +0.020 C 
ATOM     13  C   UNL     1      35.676 -22.286 -16.175  0.00  0.00    +0.020 C 
BRANCH  11  14
ATOM     14  S   UNL     1      34.335 -23.935 -14.470  0.00  0.00    +0.057 S 
ATOM     15  O   UNL     1      32.919 -24.111 -14.177  0.00  0.00    -0.153 OA
ATOM     16  O   UNL     1      35.193 -25.103 -14.616  0.00  0.00    -0.153 OA
BRANCH  14  17
ATOM     17  N   UNL     1      35.017 -22.897 -13.298  0.00  0.00    -0.203 NA
ATOM     18  H   UNL     1      34.820 -21.928 -13.546  0.00  0.00    +0.144 HD
ATOM     19  H   UNL     1      36.027 -23.041 -13.263  0.00  0.00    +0.144 HD
ENDBRANCH  14  17
ENDBRANCH  11  14
ENDBRANCH   5   8
ENDBRANCH   1   2
BRANCH   1  23
ATOM     20  F   UNL     1      34.023 -19.543 -24.466  0.00  0.00    -0.172 F 
ATOM     21  F   UNL     1      32.850 -18.206 -23.211  0.00  0.00    -0.172 F 
ATOM     22  F   UNL     1      34.016 -17.400 -24.872  0.00  0.00    -0.172 F 
ATOM     23  C   UNL     1      34.018 -18.320 -23.884  0.00  0.00    +0.384 C 
ENDBRANCH   1  23
BRANCH   1  24
ATOM     24  N   UNL     1      35.426 -16.766 -22.618  0.00  0.00    +0.400 N 
ATOM     25  H   UNL     1      35.965 -16.704 -21.754  0.00  0.00    -0.083 HD
ATOM     26  H   UNL     1      35.935 -16.326 -23.384  0.00  0.00    -0.083 HD
BRANCH  24  27
ATOM     27  C   UNL     1      34.148 -16.073 -22.439  0.00  0.00    +0.018 C 
BRANCH  27  30
ATOM     28  O   UNL     1      35.105 -14.709 -24.193  0.00  0.00    -0.277 OA
ATOM     29  N   UNL     1      32.898 -14.335 -23.576  0.00  0.00    -0.308 N 
ATOM     30  C   UNL     1      34.129 -14.969 -23.492  0.00  0.00    +0.202 C 
ATOM     31  H   UNL     1      32.180 -14.620 -22.965  0.00  0.00    +0.149 HD
BRANCH  29  32
ATOM     32  C   UNL     1      32.622 -13.275 -24.518  0.00  0.00    +0.066 C 
BRANCH  32  33
ATOM     33  C   UNL     1      32.495 -11.932 -23.814  0.00  0.00    -0.065 C 
BRANCH  33  34
ATOM     34  N   UNL     1      33.801 -11.295 -23.701  0.00  0.00    +0.382 N 
ATOM     35  H   UNL     1      34.430 -11.902 -23.175  0.00  0.00    -0.089 HD
ATOM     36  H   UNL     1      33.704 -10.404 -23.215  0.00  0.00    -0.089 HD
ATOM     37  H   UNL     1      34.184 -11.135 -24.633  0.00  0.00    -0.089 HD
ENDBRANCH  33  34
ENDBRANCH  32  33
ENDBRANCH  29  32
ENDBRANCH  27  30
BRANCH  27  38
ATOM     38  C   UNL     1      34.043 -15.520 -21.009  0.00  0.00    -0.012 C 
BRANCH  38  39
ATOM     39  C   UNL     1      33.227 -14.215 -20.886  0.00  0.00    -0.002 C 
ATOM     40  C   UNL     1      34.163 -13.051 -20.552  0.00  0.00    -0.000 C 
ATOM     41  C   UNL     1      32.126 -14.309 -19.828  0.00  0.00    -0.000 C 
ENDBRANCH  38  39
ENDBRANCH  27  38
ENDBRANCH  24  27
ENDBRANCH   1  24
TORSDOF 13
ENDMDL
MODEL 8
REMARK VINA RESULT:      -8.8      2.428      3.987
REMARK  Name = 46937137
REMARK  13 active torsions:
REMARK  status: ('A' for Active; 'I' for Inactive)
REMARK    1  A    between atoms: C_1  and  C_2
REMARK    2  A    between atoms: C_1  and  C_23
REMARK    3  A    between atoms: C_1  and  N_24
REMARK    4  A    between atoms: C_5  and  C_8
REMARK    5  A    between atoms: C_11  and  S_14
REMARK    6  A    between atoms: S_14  and  N_17
REMARK    7  A    between atoms: N_24  and  C_27
REMARK    8  A    between atoms: C_27  and  C_30
REMARK    9  A    between atoms: C_27  and  C_38
REMARK   10  A    between atoms: N_29  and  C_32
REMARK   11  A    between atoms: C_32  and  C_33
REMARK   12  A    between atoms: C_33  and  N_34
REMARK   13  A    between atoms: C_38  and  C_39
REMARK                            x       y       z     vdW  Elec       q    Type
REMARK                         _______ _______ _______ _____ _____    ______ ____
ROOT
ATOM      1  C   UNL     1      33.857 -20.202 -20.220  0.00  0.00    +0.059 C 
ENDROOT
BRANCH   1   2
ATOM      2  C   UNL     1      34.433 -20.926 -19.017  0.00  0.00    -0.034 C 
ATOM      3  C   UNL     1      33.613 -21.740 -18.235  0.00  0.00    -0.006 C 
ATOM      4  C   UNL     1      35.781 -20.778 -18.694  0.00  0.00    -0.006 C 
ATOM      5  C   UNL     1      35.491 -22.258 -16.806  0.00  0.00    -0.000 C 
ATOM      6  C   UNL     1      34.142 -22.406 -17.131  0.00  0.00    -0.000 C 
ATOM      7  C   UNL     1      36.310 -21.443 -17.589  0.00  0.00    -0.000 C 
BRANCH   5   8
ATOM      8  C   UNL     1      36.040 -22.948 -15.660  0.00  0.00    +0.000 C 
ATOM      9  C   UNL     1      37.409 -22.895 -15.402  0.00  0.00    +0.001 C 
ATOM     10  C   UNL     1      35.198 -23.668 -14.811  0.00  0.00    +0.001 C 
ATOM     11  C   UNL     1      37.096 -24.281 -13.448  0.00  0.00    +0.122 C 
ATOM     12  C   UNL     1      37.937 -23.560 -14.296  0.00  0.00    +0.020 C 
ATOM     13  C   UNL     1      35.727 -24.335 -13.705  0.00  0.00    +0.020 C 
BRANCH  11  14
ATOM     14  S   UNL     1      37.757 -25.115 -12.064  0.00  0.00    +0.057 S 
ATOM     15  O   UNL     1      38.937 -25.854 -12.493  0.00  0.00    -0.153 OA
ATOM     16  O   UNL     1      37.860 -24.170 -10.961  0.00  0.00    -0.153 OA
BRANCH  14  17
ATOM     17  N   UNL     1      36.504 -26.224 -11.722  0.00  0.00    -0.203 NA
ATOM     18  H   UNL     1      35.801 -25.773 -11.137  0.00  0.00    +0.144 HD
ATOM     19  H   UNL     1      36.889 -27.030 -11.230  0.00  0.00    +0.144 HD
ENDBRANCH  14  17
ENDBRANCH  11  14
ENDBRANCH   5   8
ENDBRANCH   1   2
BRANCH   1  23
ATOM     20  F   UNL     1      31.944 -21.600 -20.243  0.00  0.00    -0.172 F 
ATOM     21  F   UNL     1      31.757 -19.674 -19.247  0.00  0.00    -0.172 F 
ATOM     22  F   UNL     1      31.836 -19.771 -21.426  0.00  0.00    -0.172 F 
ATOM     23  C   UNL     1      32.338 -20.305 -20.292  0.00  0.00    +0.384 C 
ENDBRANCH   1  23
BRANCH   1  24
ATOM     24  N   UNL     1      34.278 -18.812 -20.261  0.00  0.00    +0.400 N 
ATOM     25  H   UNL     1      33.511 -18.220 -19.938  0.00  0.00    -0.083 HD
ATOM     26  H   UNL     1      35.090 -18.696 -19.655  0.00  0.00    -0.083 HD
BRANCH  24  27
ATOM     27  C   UNL     1      34.646 -18.422 -21.624  0.00  0.00    +0.018 C 
BRANCH  27  30
ATOM     28  O   UNL     1      34.631 -16.231 -20.601  0.00  0.00    -0.277 OA
ATOM     29  N   UNL     1      34.646 -16.373 -22.918  0.00  0.00    -0.308 N 
ATOM     30  C   UNL     1      34.630 -16.897 -21.634  0.00  0.00    +0.202 C 
ATOM     31  H   UNL     1      34.644 -16.996 -23.680  0.00  0.00    +0.149 HD
BRANCH  29  32
ATOM     32  C   UNL     1      34.664 -14.954 -23.188  0.00  0.00    +0.066 C 
BRANCH  32  33
ATOM     33  C   UNL     1      33.255 -14.409 -23.368  0.00  0.00    -0.065 C 
BRANCH  33  34
ATOM     34  N   UNL     1      32.814 -14.592 -24.745  0.00  0.00    +0.382 N 
ATOM     35  H   UNL     1      32.840 -15.584 -24.981  0.00  0.00    -0.089 HD
ATOM     36  H   UNL     1      33.433 -14.078 -25.372  0.00  0.00    -0.089 HD
ATOM     37  H   UNL     1      31.860 -14.244 -24.846  0.00  0.00    -0.089 HD
ENDBRANCH  33  34
ENDBRANCH  32  33
ENDBRANCH  29  32
ENDBRANCH  27  30
BRANCH  27  38
ATOM     38  C   UNL     1      33.654 -19.024 -22.632  0.00  0.00    -0.012 C 
BRANCH  38  39
ATOM     39  C   UNL     1      34.052 -18.837 -24.111  0.00  0.00    -0.002 C 
ATOM     40  C   UNL     1      32.873 -18.253 -24.894  0.00  0.00    -0.000 C 
ATOM     41  C   UNL     1      34.507 -20.143 -24.765  0.00  0.00    -0.000 C 
ENDBRANCH  38  39
ENDBRANCH  27  38
ENDBRANCH  24  27
ENDBRANCH   1  24
TORSDOF 13
ENDMDL
MODEL 9
REMARK VINA RESULT:      -8.6      4.437      9.996
REMARK  Name = 46937137
REMARK  13 active torsions:
REMARK  status: ('A' for Active; 'I' for Inactive)
REMARK    1  A    between atoms: C_1  and  C_2
REMARK    2  A    between atoms: C_1  and  C_23
REMARK    3  A    between atoms: C_1  and  N_24
REMARK    4  A    between atoms: C_5  and  C_8
REMARK    5  A    between atoms: C_11  and  S_14
REMARK    6  A    between atoms: S_14  and  N_17
REMARK    7  A    between atoms: N_24  and  C_27
REMARK    8  A    between atoms: C_27  and  C_30
REMARK    9  A    between atoms: C_27  and  C_38
REMARK   10  A    between atoms: N_29  and  C_32
REMARK   11  A    between atoms: C_32  and  C_33
REMARK   12  A    between atoms: C_33  and  N_34
REMARK   13  A    between atoms: C_38  and  C_39
REMARK                            x       y       z     vdW  Elec       q    Type
REMARK                         _______ _______ _______ _____ _____    ______ ____
ROOT
ATOM      1  C   UNL     1      35.075 -18.418 -21.578  0.00  0.00    +0.059 C 
ENDROOT
BRANCH   1   2
ATOM      2  C   UNL     1      34.549 -17.002 -21.713  0.00  0.00    -0.034 C 
ATOM      3  C   UNL     1      34.314 -16.463 -22.978  0.00  0.00    -0.006 C 
ATOM      4  C   UNL     1      34.299 -16.239 -20.573  0.00  0.00    -0.006 C 
ATOM      5  C   UNL     1      33.579 -14.398 -21.963  0.00  0.00    -0.000 C 
ATOM      6  C   UNL     1      33.829 -15.163 -23.104  0.00  0.00    -0.000 C 
ATOM      7  C   UNL     1      33.815 -14.937 -20.698  0.00  0.00    -0.000 C 
BRANCH   5   8
ATOM      8  C   UNL     1      33.078 -13.048 -22.093  0.00  0.00    +0.000 C 
ATOM      9  C   UNL     1      33.469 -12.258 -23.174  0.00  0.00    +0.001 C 
ATOM     10  C   UNL     1      32.201 -12.535 -21.136  0.00  0.00    +0.001 C 
ATOM     11  C   UNL     1      32.109 -10.442 -22.341  0.00  0.00    +0.122 C 
ATOM     12  C   UNL     1      32.986 -10.956 -23.298  0.00  0.00    +0.020 C 
ATOM     13  C   UNL     1      31.717 -11.232 -21.261  0.00  0.00    +0.020 C 
BRANCH  11  14
ATOM     14  S   UNL     1      31.504  -8.813 -22.497  0.00  0.00    +0.057 S 
ATOM     15  O   UNL     1      32.431  -8.055 -23.326  0.00  0.00    -0.153 OA
ATOM     16  O   UNL     1      30.095  -8.876 -22.861  0.00  0.00    -0.153 OA
BRANCH  14  17
ATOM     17  N   UNL     1      31.630  -8.263 -20.885  0.00  0.00    -0.203 NA
ATOM     18  H   UNL     1      30.937  -8.740 -20.308  0.00  0.00    +0.144 HD
ATOM     19  H   UNL     1      31.462  -7.257 -20.855  0.00  0.00    +0.144 HD
ENDBRANCH  14  17
ENDBRANCH  11  14
ENDBRANCH   5   8
ENDBRANCH   1   2
BRANCH   1  23
ATOM     20  F   UNL     1      36.725 -18.905 -23.207  0.00  0.00    -0.172 F 
ATOM     21  F   UNL     1      37.179 -17.335 -21.770  0.00  0.00    -0.172 F 
ATOM     22  F   UNL     1      37.201 -19.426 -21.144  0.00  0.00    -0.172 F 
ATOM     23  C   UNL     1      36.557 -18.527 -21.918  0.00  0.00    +0.384 C 
ENDBRANCH   1  23
BRANCH   1  24
ATOM     24  N   UNL     1      34.812 -18.963 -20.256  0.00  0.00    +0.400 N 
ATOM     25  H   UNL     1      35.614 -18.779 -19.653  0.00  0.00    -0.083 HD
ATOM     26  H   UNL     1      33.977 -18.518 -19.877  0.00  0.00    -0.083 HD
BRANCH  24  27
ATOM     27  C   UNL     1      34.586 -20.409 -20.328  0.00  0.00    +0.018 C 
BRANCH  27  30
ATOM     28  O   UNL     1      32.183 -20.144 -20.265  0.00  0.00    -0.277 OA
ATOM     29  N   UNL     1      33.196 -21.465 -18.648  0.00  0.00    -0.308 N 
ATOM     30  C   UNL     1      33.190 -20.635 -19.759  0.00  0.00    +0.202 C 
ATOM     31  H   UNL     1      34.059 -21.806 -18.320  0.00  0.00    +0.149 HD
BRANCH  29  32
ATOM     32  C   UNL     1      31.993 -21.852 -17.947  0.00  0.00    +0.066 C 
BRANCH  32  33
ATOM     33  C   UNL     1      32.305 -22.790 -16.792  0.00  0.00    -0.065 C 
BRANCH  33  34
ATOM     34  N   UNL     1      31.121 -22.983 -15.963  0.00  0.00    +0.382 N 
ATOM     35  H   UNL     1      30.342 -23.284 -16.548  0.00  0.00    -0.089 HD
ATOM     36  H   UNL     1      30.881 -22.104 -15.504  0.00  0.00    -0.089 HD
ATOM     37  H   UNL     1      31.312 -23.695 -15.257  0.00  0.00    -0.089 HD
ENDBRANCH  33  34
ENDBRANCH  32  33
ENDBRANCH  29  32
ENDBRANCH  27  30
BRANCH  27  38
ATOM     38  C   UNL     1      35.670 -21.154 -19.533  0.00  0.00    -0.012 C 
BRANCH  38  39
ATOM     39  C   UNL     1      35.804 -20.707 -18.061  0.00  0.00    -0.002 C 
ATOM     40  C   UNL     1      36.970 -19.725 -17.924  0.00  0.00    -0.000 C 
ATOM     41  C   UNL     1      36.009 -21.886 -17.107  0.00  0.00    -0.000 C 
ENDBRANCH  38  39
ENDBRANCH  27  38
ENDBRANCH  24  27
ENDBRANCH   1  24
TORSDOF 13
ENDMDL
