MODEL 1
REMARK VINA RESULT:     -10.4      0.000      0.000
REMARK  Name = 11519070
REMARK  9 active torsions:
REMARK  status: ('A' for Active; 'I' for Inactive)
REMARK    1  A    between atoms: N_1  and  C_24
REMARK    2  A    between atoms: C_2  and  C_9
REMARK    3  A    between atoms: C_9  and  C_10
REMARK    4  A    between atoms: C_9  and  C_16
REMARK    5  A    between atoms: C_9  and  O_22
REMARK    6  A    between atoms: C_24  and  C_25
REMARK    7  A    between atoms: C_25  and  O_26
REMARK    8  A    between atoms: O_26  and  C_27
REMARK    9  A    between atoms: C_27  and  C_28
REMARK                            x       y       z     vdW  Elec       q    Type
REMARK                         _______ _______ _______ _____ _____    ______ ____
ROOT
ATOM      1  N   UNL     1      31.135  -9.386 -21.995  0.00  0.00    +0.392 N 
ATOM      2  C   UNL     1      32.143  -7.126 -22.764  0.00  0.00    +0.024 C 
ATOM      3  C   UNL     1      32.942  -8.309 -23.341  0.00  0.00    -0.020 C 
ATOM      4  C   UNL     1      30.682  -7.265 -23.234  0.00  0.00    -0.020 C 
ATOM      5  C   UNL     1      32.162  -7.242 -21.229  0.00  0.00    -0.020 C 
ATOM      6  C   UNL     1      32.353  -9.645 -22.887  0.00  0.00    -0.073 C 
ATOM      7  C   UNL     1      30.084  -8.598 -22.784  0.00  0.00    -0.073 C 
ATOM      8  C   UNL     1      31.566  -8.572 -20.770  0.00  0.00    -0.073 C 
ENDROOT
BRANCH   2   9
ATOM      9  C   UNL     1      32.738  -5.792 -23.219  0.00  0.00    +0.125 C 
BRANCH   9  10
ATOM     10  C   UNL     1      31.789  -4.648 -22.824  0.00  0.00    +0.006 C 
ATOM     11  C   UNL     1      30.957  -4.833 -21.748  0.00  0.00    -0.002 C 
ATOM     12  C   UNL     1      31.816  -3.494 -23.566  0.00  0.00    -0.002 C 
ATOM     13  C   UNL     1      30.096  -3.796 -21.390  0.00  0.00    -0.000 C 
ATOM     14  C   UNL     1      30.956  -2.456 -23.208  0.00  0.00    -0.000 C 
ATOM     15  C   UNL     1      30.096  -2.608 -22.121  0.00  0.00    -0.000 C 
ENDBRANCH   9  10
BRANCH   9  16
ATOM     16  C   UNL     1      33.101  -5.707 -24.711  0.00  0.00    +0.006 C 
ATOM     17  C   UNL     1      34.403  -5.435 -25.050  0.00  0.00    -0.002 C 
ATOM     18  C   UNL     1      32.106  -5.906 -25.635  0.00  0.00    -0.002 C 
ATOM     19  C   UNL     1      34.731  -5.358 -26.403  0.00  0.00    -0.000 C 
ATOM     20  C   UNL     1      32.435  -5.828 -26.988  0.00  0.00    -0.000 C 
ATOM     21  C   UNL     1      33.747  -5.554 -27.372  0.00  0.00    -0.000 C 
ENDBRANCH   9  16
BRANCH   9  22
ATOM     22  O   UNL     1      33.973  -5.676 -22.482  0.00  0.00    -0.379 OA
ATOM     23  H   UNL     1      33.785  -5.699 -21.531  0.00  0.00    +0.211 HD
ENDBRANCH   9  22
ENDBRANCH   2   9
BRANCH   1  24
ATOM     24  C   UNL     1      30.543 -10.714 -21.543  0.00  0.00    -0.040 C 
BRANCH  24  25
ATOM     25  C   UNL     1      31.557 -11.447 -20.687  0.00  0.00    +0.121 C 
BRANCH  25  26
ATOM     26  O   UNL     1      31.774 -12.748 -21.217  0.00  0.00    -0.351 OA
BRANCH  26  27
ATOM     27  C   UNL     1      33.127 -13.155 -21.060  0.00  0.00    +0.168 C 
BRANCH  27  28
ATOM     28  C   UNL     1      33.475 -14.128 -22.149  0.00  0.00    +0.007 C 
ATOM     29  C   UNL     1      33.030 -13.897 -23.445  0.00  0.00    -0.002 C 
ATOM     30  C   UNL     1      34.240 -15.250 -21.852  0.00  0.00    -0.002 C 
ATOM     31  C   UNL     1      33.353 -14.800 -24.458  0.00  0.00    -0.000 C 
ATOM     32  C   UNL     1      34.563 -16.153 -22.865  0.00  0.00    -0.000 C 
ATOM     33  C   UNL     1      34.120 -15.928 -24.168  0.00  0.00    -0.000 C 
ENDBRANCH  27  28
ENDBRANCH  26  27
ENDBRANCH  25  26
ENDBRANCH  24  25
ENDBRANCH   1  24
TORSDOF 9
ENDMDL
MODEL 2
REMARK VINA RESULT:     -10.4      0.501      1.749
REMARK  Name = 11519070
REMARK  9 active torsions:
REMARK  status: ('A' for Active; 'I' for Inactive)
REMARK    1  A    between atoms: N_1  and  C_24
REMARK    2  A    between atoms: C_2  and  C_9
REMARK    3  A    between atoms: C_9  and  C_10
REMARK    4  A    between atoms: C_9  and  C_16
REMARK    5  A    between atoms: C_9  and  O_22
REMARK    6  A    between atoms: C_24  and  C_25
REMARK    7  A    between atoms: C_25  and  O_26
REMARK    8  A    between atoms: O_26  and  C_27
REMARK    9  A    between atoms: C_27  and  C_28
REMARK                            x       y       z     vdW  Elec       q    Type
REMARK                         _______ _______ _______ _____ _____    ______ ____
ROOT
ATOM      1  N   UNL     1      31.169  -9.595 -21.989  0.00  0.00    +0.392 N 
ATOM      2  C   UNL     1      32.142  -7.287 -22.661  0.00  0.00    +0.024 C 
ATOM      3  C   UNL     1      32.146  -7.462 -21.131  0.00  0.00    -0.020 C 
ATOM      4  C   UNL     1      32.971  -8.433 -23.271  0.00  0.00    -0.020 C 
ATOM      5  C   UNL     1      30.690  -7.437 -23.152  0.00  0.00    -0.020 C 
ATOM      6  C   UNL     1      31.570  -8.820 -20.729  0.00  0.00    -0.073 C 
ATOM      7  C   UNL     1      32.402  -9.796 -22.876  0.00  0.00    -0.073 C 
ATOM      8  C   UNL     1      30.113  -8.797 -22.761  0.00  0.00    -0.073 C 
ENDROOT
BRANCH   2   9
ATOM      9  C   UNL     1      32.716  -5.927 -23.056  0.00  0.00    +0.125 C 
BRANCH   9  10
ATOM     10  C   UNL     1      31.738  -4.817 -22.635  0.00  0.00    +0.006 C 
ATOM     11  C   UNL     1      31.689  -3.671 -23.389  0.00  0.00    -0.002 C 
ATOM     12  C   UNL     1      30.959  -5.022 -21.525  0.00  0.00    -0.002 C 
ATOM     13  C   UNL     1      30.803  -2.664 -23.007  0.00  0.00    -0.000 C 
ATOM     14  C   UNL     1      30.071  -4.016 -21.143  0.00  0.00    -0.000 C 
ATOM     15  C   UNL     1      29.994  -2.837 -21.883  0.00  0.00    -0.000 C 
ENDBRANCH   9  10
BRANCH   9  16
ATOM     16  C   UNL     1      33.100  -5.779 -24.538  0.00  0.00    +0.006 C 
ATOM     17  C   UNL     1      32.124  -5.962 -25.486  0.00  0.00    -0.002 C 
ATOM     18  C   UNL     1      34.403  -5.473 -24.845  0.00  0.00    -0.002 C 
ATOM     19  C   UNL     1      32.474  -5.828 -26.829  0.00  0.00    -0.000 C 
ATOM     20  C   UNL     1      34.751  -5.339 -26.189  0.00  0.00    -0.000 C 
ATOM     21  C   UNL     1      33.787  -5.517 -27.180  0.00  0.00    -0.000 C 
ENDBRANCH   9  16
BRANCH   9  22
ATOM     22  O   UNL     1      33.937  -5.813 -22.296  0.00  0.00    -0.379 OA
ATOM     23  H   UNL     1      33.724  -5.657 -21.363  0.00  0.00    +0.211 HD
ENDBRANCH   9  22
ENDBRANCH   2   9
BRANCH   1  24
ATOM     24  C   UNL     1      30.598 -10.949 -21.595  0.00  0.00    -0.040 C 
BRANCH  24  25
ATOM     25  C   UNL     1      31.551 -11.634 -20.636  0.00  0.00    +0.121 C 
BRANCH  25  26
ATOM     26  O   UNL     1      32.021 -12.844 -21.216  0.00  0.00    -0.351 OA
BRANCH  26  27
ATOM     27  C   UNL     1      33.440 -12.921 -21.182  0.00  0.00    +0.168 C 
BRANCH  27  28
ATOM     28  C   UNL     1      33.868 -14.272 -21.677  0.00  0.00    +0.007 C 
ATOM     29  C   UNL     1      33.997 -14.494 -23.044  0.00  0.00    -0.002 C 
ATOM     30  C   UNL     1      34.135 -15.287 -20.766  0.00  0.00    -0.002 C 
ATOM     31  C   UNL     1      34.395 -15.748 -23.505  0.00  0.00    -0.000 C 
ATOM     32  C   UNL     1      34.533 -16.542 -21.228  0.00  0.00    -0.000 C 
ATOM     33  C   UNL     1      34.664 -16.772 -22.597  0.00  0.00    -0.000 C 
ENDBRANCH  27  28
ENDBRANCH  26  27
ENDBRANCH  25  26
ENDBRANCH  24  25
ENDBRANCH   1  24
TORSDOF 9
ENDMDL
MODEL 3
REMARK VINA RESULT:     -10.3      0.612      1.552
REMARK  Name = 11519070
REMARK  9 active torsions:
REMARK  status: ('A' for Active; 'I' for Inactive)
REMARK    1  A    between atoms: N_1  and  C_24
REMARK    2  A    between atoms: C_2  and  C_9
REMARK    3  A    between atoms: C_9  and  C_10
REMARK    4  A    between atoms: C_9  and  C_16
REMARK    5  A    between atoms: C_9  and  O_22
REMARK    6  A    between atoms: C_24  and  C_25
REMARK    7  A    between atoms: C_25  and  O_26
REMARK    8  A    between atoms: O_26  and  C_27
REMARK    9  A    between atoms: C_27  and  C_28
REMARK                            x       y       z     vdW  Elec       q    Type
REMARK                         _______ _______ _______ _____ _____    ______ ____
ROOT
ATOM      1  N   UNL     1      31.229  -9.734 -21.981  0.00  0.00    +0.392 N 
ATOM      2  C   UNL     1      32.130  -7.412 -22.703  0.00  0.00    +0.024 C 
ATOM      3  C   UNL     1      30.658  -7.586 -23.120  0.00  0.00    -0.020 C 
ATOM      4  C   UNL     1      32.212  -7.583 -21.174  0.00  0.00    -0.020 C 
ATOM      5  C   UNL     1      32.946  -8.545 -23.352  0.00  0.00    -0.020 C 
ATOM      6  C   UNL     1      30.123  -8.955 -22.700  0.00  0.00    -0.073 C 
ATOM      7  C   UNL     1      31.680  -8.950 -20.743  0.00  0.00    -0.073 C 
ATOM      8  C   UNL     1      32.421  -9.916 -22.928  0.00  0.00    -0.073 C 
ENDROOT
BRANCH   2   9
ATOM      9  C   UNL     1      32.660  -6.043 -23.128  0.00  0.00    +0.125 C 
BRANCH   9  10
ATOM     10  C   UNL     1      31.686  -4.949 -22.659  0.00  0.00    +0.006 C 
ATOM     11  C   UNL     1      31.171  -5.036 -21.390  0.00  0.00    -0.002 C 
ATOM     12  C   UNL     1      31.375  -3.936 -23.530  0.00  0.00    -0.002 C 
ATOM     13  C   UNL     1      30.287  -4.045 -20.964  0.00  0.00    -0.000 C 
ATOM     14  C   UNL     1      30.492  -2.943 -23.105  0.00  0.00    -0.000 C 
ATOM     15  C   UNL     1      29.948  -2.999 -21.823  0.00  0.00    -0.000 C 
ENDBRANCH   9  10
BRANCH   9  16
ATOM     16  C   UNL     1      32.966  -5.891 -24.627  0.00  0.00    +0.006 C 
ATOM     17  C   UNL     1      34.249  -5.577 -25.002  0.00  0.00    -0.002 C 
ATOM     18  C   UNL     1      31.942  -6.076 -25.523  0.00  0.00    -0.002 C 
ATOM     19  C   UNL     1      34.526  -5.440 -26.362  0.00  0.00    -0.000 C 
ATOM     20  C   UNL     1      32.220  -5.938 -26.882  0.00  0.00    -0.000 C 
ATOM     21  C   UNL     1      33.511  -5.620 -27.302  0.00  0.00    -0.000 C 
ENDBRANCH   9  16
BRANCH   9  22
ATOM     22  O   UNL     1      33.916  -5.907 -22.430  0.00  0.00    -0.379 OA
ATOM     23  H   UNL     1      33.949  -6.542 -21.698  0.00  0.00    +0.211 HD
ENDBRANCH   9  22
ENDBRANCH   2   9
BRANCH   1  24
ATOM     24  C   UNL     1      30.701 -11.096 -21.558  0.00  0.00    -0.040 C 
BRANCH  24  25
ATOM     25  C   UNL     1      31.753 -11.804 -20.726  0.00  0.00    +0.121 C 
BRANCH  25  26
ATOM     26  O   UNL     1      32.266 -12.913 -21.452  0.00  0.00    -0.351 OA
BRANCH  26  27
ATOM     27  C   UNL     1      33.618 -13.182 -21.104  0.00  0.00    +0.168 C 
BRANCH  27  28
ATOM     28  C   UNL     1      33.992 -14.545 -21.612  0.00  0.00    +0.007 C 
ATOM     29  C   UNL     1      34.188 -15.584 -20.709  0.00  0.00    -0.002 C 
ATOM     30  C   UNL     1      34.138 -14.755 -22.978  0.00  0.00    -0.002 C 
ATOM     31  C   UNL     1      34.535 -16.851 -21.179  0.00  0.00    -0.000 C 
ATOM     32  C   UNL     1      34.485 -16.022 -23.448  0.00  0.00    -0.000 C 
ATOM     33  C   UNL     1      34.683 -17.069 -22.549  0.00  0.00    -0.000 C 
ENDBRANCH  27  28
ENDBRANCH  26  27
ENDBRANCH  25  26
ENDBRANCH  24  25
ENDBRANCH   1  24
TORSDOF 9
ENDMDL
MODEL 4
REMARK VINA RESULT:      -9.6      1.158      3.626
REMARK  Name = 11519070
REMARK  9 active torsions:
REMARK  status: ('A' for Active; 'I' for Inactive)
REMARK    1  A    between atoms: N_1  and  C_24
REMARK    2  A    between atoms: C_2  and  C_9
REMARK    3  A    between atoms: C_9  and  C_10
REMARK    4  A    between atoms: C_9  and  C_16
REMARK    5  A    between atoms: C_9  and  O_22
REMARK    6  A    between atoms: C_24  and  C_25
REMARK    7  A    between atoms: C_25  and  O_26
REMARK    8  A    between atoms: O_26  and  C_27
REMARK    9  A    between atoms: C_27  and  C_28
REMARK                            x       y       z     vdW  Elec       q    Type
REMARK                         _______ _______ _______ _____ _____    ______ ____
ROOT
ATOM      1  N   UNL     1      31.650  -9.260 -21.787  0.00  0.00    +0.392 N 
ATOM      2  C   UNL     1      31.404  -7.109 -23.214  0.00  0.00    +0.024 C 
ATOM      3  C   UNL     1      31.751  -6.765 -21.753  0.00  0.00    -0.020 C 
ATOM      4  C   UNL     1      32.525  -8.011 -23.766  0.00  0.00    -0.020 C 
ATOM      5  C   UNL     1      30.096  -7.922 -23.213  0.00  0.00    -0.020 C 
ATOM      6  C   UNL     1      31.893  -8.030 -20.907  0.00  0.00    -0.073 C 
ATOM      7  C   UNL     1      32.675  -9.280 -22.927  0.00  0.00    -0.073 C 
ATOM      8  C   UNL     1      30.237  -9.192 -22.376  0.00  0.00    -0.073 C 
ENDROOT
BRANCH   2   9
ATOM      9  C   UNL     1      31.260  -5.841 -24.055  0.00  0.00    +0.125 C 
BRANCH   9  10
ATOM     10  C   UNL     1      32.559  -5.599 -24.843  0.00  0.00    +0.006 C 
ATOM     11  C   UNL     1      32.547  -5.813 -26.198  0.00  0.00    -0.002 C 
ATOM     12  C   UNL     1      33.670  -5.182 -24.155  0.00  0.00    -0.002 C 
ATOM     13  C   UNL     1      33.725  -5.595 -26.913  0.00  0.00    -0.000 C 
ATOM     14  C   UNL     1      34.848  -4.962 -24.869  0.00  0.00    -0.000 C 
ATOM     15  C   UNL     1      34.875  -5.169 -26.248  0.00  0.00    -0.000 C 
ENDBRANCH   9  10
BRANCH   9  16
ATOM     16  C   UNL     1      30.853  -4.578 -23.278  0.00  0.00    +0.006 C 
ATOM     17  C   UNL     1      30.052  -4.722 -22.172  0.00  0.00    -0.002 C 
ATOM     18  C   UNL     1      31.308  -3.362 -23.726  0.00  0.00    -0.002 C 
ATOM     19  C   UNL     1      29.683  -3.576 -21.469  0.00  0.00    -0.000 C 
ATOM     20  C   UNL     1      30.938  -2.217 -23.022  0.00  0.00    -0.000 C 
ATOM     21  C   UNL     1      30.126  -2.324 -21.894  0.00  0.00    -0.000 C 
ENDBRANCH   9  16
BRANCH   9  22
ATOM     22  O   UNL     1      30.183  -6.133 -24.970  0.00  0.00    -0.379 OA
ATOM     23  H   UNL     1      29.756  -6.964 -24.712  0.00  0.00    +0.211 HD
ENDBRANCH   9  22
ENDBRANCH   2   9
BRANCH   1  24
ATOM     24  C   UNL     1      31.794 -10.522 -20.949  0.00  0.00    -0.040 C 
BRANCH  24  25
ATOM     25  C   UNL     1      31.606 -11.736 -21.838  0.00  0.00    +0.121 C 
BRANCH  25  26
ATOM     26  O   UNL     1      32.518 -12.755 -21.450  0.00  0.00    -0.351 OA
BRANCH  26  27
ATOM     27  C   UNL     1      33.535 -12.943 -22.425  0.00  0.00    +0.168 C 
BRANCH  27  28
ATOM     28  C   UNL     1      33.933 -14.391 -22.444  0.00  0.00    +0.007 C 
ATOM     29  C   UNL     1      34.085 -15.046 -23.661  0.00  0.00    -0.002 C 
ATOM     30  C   UNL     1      34.149 -15.061 -21.246  0.00  0.00    -0.002 C 
ATOM     31  C   UNL     1      34.456 -16.391 -23.679  0.00  0.00    -0.000 C 
ATOM     32  C   UNL     1      34.520 -16.406 -21.265  0.00  0.00    -0.000 C 
ATOM     33  C   UNL     1      34.673 -17.070 -22.481  0.00  0.00    -0.000 C 
ENDBRANCH  27  28
ENDBRANCH  26  27
ENDBRANCH  25  26
ENDBRANCH  24  25
ENDBRANCH   1  24
TORSDOF 9
ENDMDL
MODEL 5
REMARK VINA RESULT:      -8.8      8.358     15.664
REMARK  Name = 11519070
REMARK  9 active torsions:
REMARK  status: ('A' for Active; 'I' for Inactive)
REMARK    1  A    between atoms: N_1  and  C_24
REMARK    2  A    between atoms: C_2  and  C_9
REMARK    3  A    between atoms: C_9  and  C_10
REMARK    4  A    between atoms: C_9  and  C_16
REMARK    5  A    between atoms: C_9  and  O_22
REMARK    6  A    between atoms: C_24  and  C_25
REMARK    7  A    between atoms: C_25  and  O_26
REMARK    8  A    between atoms: O_26  and  C_27
REMARK    9  A    between atoms: C_27  and  C_28
REMARK                            x       y       z     vdW  Elec       q    Type
REMARK                         _______ _______ _______ _____ _____    ______ ____
ROOT
ATOM      1  N   UNL     1      34.058 -20.924 -19.825  0.00  0.00    +0.392 N 
ATOM      2  C   UNL     1      33.611 -22.432 -17.764  0.00  0.00    +0.024 C 
ATOM      3  C   UNL     1      32.468 -21.420 -17.964  0.00  0.00    -0.020 C 
ATOM      4  C   UNL     1      33.727 -23.275 -19.049  0.00  0.00    -0.020 C 
ATOM      5  C   UNL     1      34.922 -21.643 -17.594  0.00  0.00    -0.020 C 
ATOM      6  C   UNL     1      32.729 -20.525 -19.175  0.00  0.00    -0.073 C 
ATOM      7  C   UNL     1      33.988 -22.390 -20.267  0.00  0.00    -0.073 C 
ATOM      8  C   UNL     1      35.191 -20.754 -18.808  0.00  0.00    -0.073 C 
ENDROOT
BRANCH   2   9
ATOM      9  C   UNL     1      33.347 -23.322 -16.549  0.00  0.00    +0.125 C 
BRANCH   9  10
ATOM     10  C   UNL     1      32.020 -22.907 -15.891  0.00  0.00    +0.006 C 
ATOM     11  C   UNL     1      32.050 -22.454 -14.596  0.00  0.00    -0.002 C 
ATOM     12  C   UNL     1      30.867 -23.009 -16.627  0.00  0.00    -0.002 C 
ATOM     13  C   UNL     1      30.847 -22.078 -13.998  0.00  0.00    -0.000 C 
ATOM     14  C   UNL     1      29.664 -22.632 -16.030  0.00  0.00    -0.000 C 
ATOM     15  C   UNL     1      29.654 -22.168 -14.716  0.00  0.00    -0.000 C 
ENDBRANCH   9  10
BRANCH   9  16
ATOM     16  C   UNL     1      34.478 -23.371 -15.509  0.00  0.00    +0.006 C 
ATOM     17  C   UNL     1      34.998 -22.184 -15.055  0.00  0.00    -0.002 C 
ATOM     18  C   UNL     1      34.919 -24.599 -15.083  0.00  0.00    -0.002 C 
ATOM     19  C   UNL     1      36.024 -22.229 -14.112  0.00  0.00    -0.000 C 
ATOM     20  C   UNL     1      35.945 -24.643 -14.141  0.00  0.00    -0.000 C 
ATOM     21  C   UNL     1      36.498 -23.459 -13.655  0.00  0.00    -0.000 C 
ENDBRANCH   9  16
BRANCH   9  22
ATOM     22  O   UNL     1      33.224 -24.653 -17.094  0.00  0.00    -0.379 OA
ATOM     23  H   UNL     1      32.291 -24.841 -17.280  0.00  0.00    +0.211 HD
ENDBRANCH   9  22
ENDBRANCH   2   9
BRANCH   1  24
ATOM     24  C   UNL     1      34.320 -20.038 -21.034  0.00  0.00    -0.040 C 
BRANCH  24  25
ATOM     25  C   UNL     1      35.536 -19.172 -20.766  0.00  0.00    +0.121 C 
BRANCH  25  26
ATOM     26  O   UNL     1      35.150 -17.804 -20.748  0.00  0.00    -0.351 OA
BRANCH  26  27
ATOM     27  C   UNL     1      35.068 -17.269 -22.062  0.00  0.00    +0.168 C 
BRANCH  27  28
ATOM     28  C   UNL     1      34.515 -15.875 -21.989  0.00  0.00    +0.007 C 
ATOM     29  C   UNL     1      34.134 -15.350 -20.760  0.00  0.00    -0.002 C 
ATOM     30  C   UNL     1      34.391 -15.123 -23.151  0.00  0.00    -0.002 C 
ATOM     31  C   UNL     1      33.620 -14.055 -20.691  0.00  0.00    -0.000 C 
ATOM     32  C   UNL     1      33.877 -13.827 -23.083  0.00  0.00    -0.000 C 
ATOM     33  C   UNL     1      33.492 -13.294 -21.853  0.00  0.00    -0.000 C 
ENDBRANCH  27  28
ENDBRANCH  26  27
ENDBRANCH  25  26
ENDBRANCH  24  25
ENDBRANCH   1  24
TORSDOF 9
ENDMDL
MODEL 6
REMARK VINA RESULT:      -8.5      1.614      4.032
REMARK  Name = 11519070
REMARK  9 active torsions:
REMARK  status: ('A' for Active; 'I' for Inactive)
REMARK    1  A    between atoms: N_1  and  C_24
REMARK    2  A    between atoms: C_2  and  C_9
REMARK    3  A    between atoms: C_9  and  C_10
REMARK    4  A    between atoms: C_9  and  C_16
REMARK    5  A    between atoms: C_9  and  O_22
REMARK    6  A    between atoms: C_24  and  C_25
REMARK    7  A    between atoms: C_25  and  O_26
REMARK    8  A    between atoms: O_26  and  C_27
REMARK    9  A    between atoms: C_27  and  C_28
REMARK                            x       y       z     vdW  Elec       q    Type
REMARK                         _______ _______ _______ _____ _____    ______ ____
ROOT
ATOM      1  N   UNL     1      31.706 -10.984 -21.684  0.00  0.00    +0.392 N 
ATOM      2  C   UNL     1      31.339  -8.592 -22.614  0.00  0.00    +0.024 C 
ATOM      3  C   UNL     1      32.036  -8.548 -21.242  0.00  0.00    -0.020 C 
ATOM      4  C   UNL     1      32.220  -9.424 -23.566  0.00  0.00    -0.020 C 
ATOM      5  C   UNL     1      29.997  -9.327 -22.443  0.00  0.00    -0.020 C 
ATOM      6  C   UNL     1      32.251  -9.956 -20.687  0.00  0.00    -0.073 C 
ATOM      7  C   UNL     1      32.440 -10.835 -23.021  0.00  0.00    -0.073 C 
ATOM      8  C   UNL     1      30.208 -10.739 -21.897  0.00  0.00    -0.073 C 
ENDROOT
BRANCH   2   9
ATOM      9  C   UNL     1      31.124  -7.181 -23.163  0.00  0.00    +0.125 C 
BRANCH   9  10
ATOM     10  C   UNL     1      32.290  -6.812 -24.096  0.00  0.00    +0.006 C 
ATOM     11  C   UNL     1      33.571  -7.036 -23.658  0.00  0.00    -0.002 C 
ATOM     12  C   UNL     1      31.996  -6.275 -25.324  0.00  0.00    -0.002 C 
ATOM     13  C   UNL     1      34.628  -6.702 -24.504  0.00  0.00    -0.000 C 
ATOM     14  C   UNL     1      33.053  -5.941 -26.171  0.00  0.00    -0.000 C 
ATOM     15  C   UNL     1      34.368  -6.154 -25.761  0.00  0.00    -0.000 C 
ENDBRANCH   9  10
BRANCH   9  16
ATOM     16  C   UNL     1      30.910  -6.088 -22.103  0.00  0.00    +0.006 C 
ATOM     17  C   UNL     1      29.851  -5.227 -22.259  0.00  0.00    -0.002 C 
ATOM     18  C   UNL     1      31.787  -6.021 -21.049  0.00  0.00    -0.002 C 
ATOM     19  C   UNL     1      29.658  -4.236 -21.298  0.00  0.00    -0.000 C 
ATOM     20  C   UNL     1      31.593  -5.029 -20.089  0.00  0.00    -0.000 C 
ATOM     21  C   UNL     1      30.529  -4.137 -20.213  0.00  0.00    -0.000 C 
ENDBRANCH   9  16
BRANCH   9  22
ATOM     22  O   UNL     1      29.901  -7.270 -23.924  0.00  0.00    -0.379 OA
ATOM     23  H   UNL     1      29.200  -6.782 -23.466  0.00  0.00    +0.211 HD
ENDBRANCH   9  22
ENDBRANCH   2   9
BRANCH   1  24
ATOM     24  C   UNL     1      31.920 -12.388 -21.137  0.00  0.00    -0.040 C 
BRANCH  24  25
ATOM     25  C   UNL     1      33.257 -12.914 -21.621  0.00  0.00    +0.121 C 
BRANCH  25  26
ATOM     26  O   UNL     1      33.100 -14.243 -22.101  0.00  0.00    -0.351 OA
BRANCH  26  27
ATOM     27  C   UNL     1      34.280 -14.709 -22.740  0.00  0.00    +0.168 C 
BRANCH  27  28
ATOM     28  C   UNL     1      34.359 -16.202 -22.594  0.00  0.00    +0.007 C 
ATOM     29  C   UNL     1      33.958 -17.017 -23.647  0.00  0.00    -0.002 C 
ATOM     30  C   UNL     1      34.832 -16.754 -21.410  0.00  0.00    -0.002 C 
ATOM     31  C   UNL     1      34.031 -18.403 -23.513  0.00  0.00    -0.000 C 
ATOM     32  C   UNL     1      34.905 -18.141 -21.276  0.00  0.00    -0.000 C 
ATOM     33  C   UNL     1      34.505 -18.965 -22.328  0.00  0.00    -0.000 C 
ENDBRANCH  27  28
ENDBRANCH  26  27
ENDBRANCH  25  26
ENDBRANCH  24  25
ENDBRANCH   1  24
TORSDOF 9
ENDMDL
MODEL 7
REMARK VINA RESULT:      -8.4     11.468     18.079
REMARK  Name = 11519070
REMARK  9 active torsions:
REMARK  status: ('A' for Active; 'I' for Inactive)
REMARK    1  A    between atoms: N_1  and  C_24
REMARK    2  A    between atoms: C_2  and  C_9
REMARK    3  A    between atoms: C_9  and  C_10
REMARK    4  A    between atoms: C_9  and  C_16
REMARK    5  A    between atoms: C_9  and  O_22
REMARK    6  A    between atoms: C_24  and  C_25
REMARK    7  A    between atoms: C_25  and  O_26
REMARK    8  A    between atoms: O_26  and  C_27
REMARK    9  A    between atoms: C_27  and  C_28
REMARK                            x       y       z     vdW  Elec       q    Type
REMARK                         _______ _______ _______ _____ _____    ______ ____
ROOT
ATOM      1  N   UNL     1      33.883 -22.891 -16.454  0.00  0.00    +0.392 N 
ATOM      2  C   UNL     1      35.662 -22.971 -14.570  0.00  0.00    +0.024 C 
ATOM      3  C   UNL     1      34.332 -22.396 -14.048  0.00  0.00    -0.020 C 
ATOM      4  C   UNL     1      35.383 -24.381 -15.125  0.00  0.00    -0.020 C 
ATOM      5  C   UNL     1      36.137 -22.087 -15.738  0.00  0.00    -0.020 C 
ATOM      6  C   UNL     1      33.281 -22.343 -15.156  0.00  0.00    -0.073 C 
ATOM      7  C   UNL     1      34.333 -24.339 -16.235  0.00  0.00    -0.073 C 
ATOM      8  C   UNL     1      35.092 -22.038 -16.852  0.00  0.00    -0.073 C 
ENDROOT
BRANCH   2   9
ATOM      9  C   UNL     1      36.710 -23.019 -13.459  0.00  0.00    +0.125 C 
BRANCH   9  10
ATOM     10  C   UNL     1      37.850 -23.967 -13.871  0.00  0.00    +0.006 C 
ATOM     11  C   UNL     1      38.572 -23.666 -14.998  0.00  0.00    -0.002 C 
ATOM     12  C   UNL     1      38.092 -25.070 -13.093  0.00  0.00    -0.002 C 
ATOM     13  C   UNL     1      39.604 -24.525 -15.372  0.00  0.00    -0.000 C 
ATOM     14  C   UNL     1      39.125 -25.930 -13.466  0.00  0.00    -0.000 C 
ATOM     15  C   UNL     1      39.880 -25.658 -14.606  0.00  0.00    -0.000 C 
ENDBRANCH   9  10
BRANCH   9  16
ATOM     16  C   UNL     1      36.176 -23.385 -12.064  0.00  0.00    +0.006 C 
ATOM     17  C   UNL     1      36.467 -22.549 -11.014  0.00  0.00    -0.002 C 
ATOM     18  C   UNL     1      35.433 -24.532 -11.932  0.00  0.00    -0.002 C 
ATOM     19  C   UNL     1      35.982 -22.883  -9.750  0.00  0.00    -0.000 C 
ATOM     20  C   UNL     1      34.949 -24.864 -10.667  0.00  0.00    -0.000 C 
ATOM     21  C   UNL     1      35.223 -24.040  -9.576  0.00  0.00    -0.000 C 
ENDBRANCH   9  16
BRANCH   9  22
ATOM     22  O   UNL     1      37.209 -21.667 -13.372  0.00  0.00    -0.379 OA
ATOM     23  H   UNL     1      38.177 -21.683 -13.316  0.00  0.00    +0.211 HD
ENDBRANCH   9  22
ENDBRANCH   2   9
BRANCH   1  24
ATOM     24  C   UNL     1      32.839 -22.843 -17.560  0.00  0.00    -0.040 C 
BRANCH  24  25
ATOM     25  C   UNL     1      33.472 -22.292 -18.823  0.00  0.00    +0.121 C 
BRANCH  25  26
ATOM     26  O   UNL     1      33.220 -20.896 -18.911  0.00  0.00    -0.351 OA
BRANCH  26  27
ATOM     27  C   UNL     1      32.936 -20.501 -20.246  0.00  0.00    +0.168 C 
BRANCH  27  28
ATOM     28  C   UNL     1      34.096 -19.710 -20.780  0.00  0.00    +0.007 C 
ATOM     29  C   UNL     1      33.941 -18.961 -21.941  0.00  0.00    -0.002 C 
ATOM     30  C   UNL     1      35.312 -19.734 -20.108  0.00  0.00    -0.002 C 
ATOM     31  C   UNL     1      35.017 -18.226 -22.437  0.00  0.00    -0.000 C 
ATOM     32  C   UNL     1      36.389 -18.998 -20.605  0.00  0.00    -0.000 C 
ATOM     33  C   UNL     1      36.241 -18.244 -21.769  0.00  0.00    -0.000 C 
ENDBRANCH  27  28
ENDBRANCH  26  27
ENDBRANCH  25  26
ENDBRANCH  24  25
ENDBRANCH   1  24
TORSDOF 9
ENDMDL
MODEL 8
REMARK VINA RESULT:      -8.1     11.237     18.046
REMARK  Name = 11519070
REMARK  9 active torsions:
REMARK  status: ('A' for Active; 'I' for Inactive)
REMARK    1  A    between atoms: N_1  and  C_24
REMARK    2  A    between atoms: C_2  and  C_9
REMARK    3  A    between atoms: C_9  and  C_10
REMARK    4  A    between atoms: C_9  and  C_16
REMARK    5  A    between atoms: C_9  and  O_22
REMARK    6  A    between atoms: C_24  and  C_25
REMARK    7  A    between atoms: C_25  and  O_26
REMARK    8  A    between atoms: O_26  and  C_27
REMARK    9  A    between atoms: C_27  and  C_28
REMARK                            x       y       z     vdW  Elec       q    Type
REMARK                         _______ _______ _______ _____ _____    ______ ____
ROOT
ATOM      1  N   UNL     1      33.625 -22.819 -16.208  0.00  0.00    +0.392 N 
ATOM      2  C   UNL     1      35.217 -24.014 -14.547  0.00  0.00    +0.024 C 
ATOM      3  C   UNL     1      35.910 -22.803 -15.200  0.00  0.00    -0.020 C 
ATOM      4  C   UNL     1      33.953 -23.505 -13.828  0.00  0.00    -0.020 C 
ATOM      5  C   UNL     1      34.773 -24.970 -15.669  0.00  0.00    -0.020 C 
ATOM      6  C   UNL     1      34.976 -22.098 -16.184  0.00  0.00    -0.073 C 
ATOM      7  C   UNL     1      33.012 -22.798 -14.803  0.00  0.00    -0.073 C 
ATOM      8  C   UNL     1      33.832 -24.271 -16.650  0.00  0.00    -0.073 C 
ENDROOT
BRANCH   2   9
ATOM      9  C   UNL     1      36.156 -24.718 -13.568  0.00  0.00    +0.125 C 
BRANCH   9  10
ATOM     10  C   UNL     1      36.011 -24.083 -12.174  0.00  0.00    +0.006 C 
ATOM     11  C   UNL     1      36.601 -22.865 -11.948  0.00  0.00    -0.002 C 
ATOM     12  C   UNL     1      35.298 -24.764 -11.220  0.00  0.00    -0.002 C 
ATOM     13  C   UNL     1      36.469 -22.290 -10.685  0.00  0.00    -0.000 C 
ATOM     14  C   UNL     1      35.165 -24.189  -9.956  0.00  0.00    -0.000 C 
ATOM     15  C   UNL     1      35.751 -22.952  -9.689  0.00  0.00    -0.000 C 
ENDBRANCH   9  10
BRANCH   9  16
ATOM     16  C   UNL     1      37.634 -24.766 -13.991  0.00  0.00    +0.006 C 
ATOM     17  C   UNL     1      38.447 -25.709 -13.412  0.00  0.00    -0.002 C 
ATOM     18  C   UNL     1      38.073 -23.864 -14.928  0.00  0.00    -0.002 C 
ATOM     19  C   UNL     1      39.787 -25.752 -13.796  0.00  0.00    -0.000 C 
ATOM     20  C   UNL     1      39.413 -23.907 -15.311  0.00  0.00    -0.000 C 
ATOM     21  C   UNL     1      40.270 -24.851 -14.746  0.00  0.00    -0.000 C 
ENDBRANCH   9  16
BRANCH   9  22
ATOM     22  O   UNL     1      35.688 -26.082 -13.532  0.00  0.00    -0.379 OA
ATOM     23  H   UNL     1      35.195 -26.233 -12.711  0.00  0.00    +0.211 HD
ENDBRANCH   9  22
ENDBRANCH   2   9
BRANCH   1  24
ATOM     24  C   UNL     1      32.690 -22.118 -17.183  0.00  0.00    -0.040 C 
BRANCH  24  25
ATOM     25  C   UNL     1      33.225 -22.279 -18.592  0.00  0.00    +0.121 C 
BRANCH  25  26
ATOM     26  O   UNL     1      33.525 -21.000 -19.137  0.00  0.00    -0.351 OA
BRANCH  26  27
ATOM     27  C   UNL     1      34.899 -20.890 -19.483  0.00  0.00    +0.168 C 
BRANCH  27  28
ATOM     28  C   UNL     1      35.058 -19.814 -20.518  0.00  0.00    +0.007 C 
ATOM     29  C   UNL     1      36.249 -19.101 -20.590  0.00  0.00    -0.002 C 
ATOM     30  C   UNL     1      34.015 -19.542 -21.394  0.00  0.00    -0.002 C 
ATOM     31  C   UNL     1      36.399 -18.101 -21.551  0.00  0.00    -0.000 C 
ATOM     32  C   UNL     1      34.164 -18.542 -22.356  0.00  0.00    -0.000 C 
ATOM     33  C   UNL     1      35.356 -17.822 -22.434  0.00  0.00    -0.000 C 
ENDBRANCH  27  28
ENDBRANCH  26  27
ENDBRANCH  25  26
ENDBRANCH  24  25
ENDBRANCH   1  24
TORSDOF 9
ENDMDL
MODEL 9
REMARK VINA RESULT:      -8.0     10.310     17.395
REMARK  Name = 11519070
REMARK  9 active torsions:
REMARK  status: ('A' for Active; 'I' for Inactive)
REMARK    1  A    between atoms: N_1  and  C_24
REMARK    2  A    between atoms: C_2  and  C_9
REMARK    3  A    between atoms: C_9  and  C_10
REMARK    4  A    between atoms: C_9  and  C_16
REMARK    5  A    between atoms: C_9  and  O_22
REMARK    6  A    between atoms: C_24  and  C_25
REMARK    7  A    between atoms: C_25  and  O_26
REMARK    8  A    between atoms: O_26  and  C_27
REMARK    9  A    between atoms: C_27  and  C_28
REMARK                            x       y       z     vdW  Elec       q    Type
REMARK                         _______ _______ _______ _____ _____    ______ ____
ROOT
ATOM      1  N   UNL     1      35.940 -21.603 -16.859  0.00  0.00    +0.392 N 
ATOM      2  C   UNL     1      34.936 -23.209 -15.089  0.00  0.00    +0.024 C 
ATOM      3  C   UNL     1      34.140 -23.274 -16.405  0.00  0.00    -0.020 C 
ATOM      4  C   UNL     1      36.399 -23.580 -15.401  0.00  0.00    -0.020 C 
ATOM      5  C   UNL     1      34.911 -21.753 -14.588  0.00  0.00    -0.020 C 
ATOM      6  C   UNL     1      34.726 -22.326 -17.451  0.00  0.00    -0.073 C 
ATOM      7  C   UNL     1      36.994 -22.637 -16.446  0.00  0.00    -0.073 C 
ATOM      8  C   UNL     1      35.504 -20.803 -15.627  0.00  0.00    -0.073 C 
ENDROOT
BRANCH   2   9
ATOM      9  C   UNL     1      34.344 -24.157 -14.045  0.00  0.00    +0.125 C 
BRANCH   9  10
ATOM     10  C   UNL     1      32.847 -23.851 -13.867  0.00  0.00    +0.006 C 
ATOM     11  C   UNL     1      32.390 -22.607 -14.224  0.00  0.00    -0.002 C 
ATOM     12  C   UNL     1      32.037 -24.835 -13.360  0.00  0.00    -0.002 C 
ATOM     13  C   UNL     1      31.033 -22.329 -14.063  0.00  0.00    -0.000 C 
ATOM     14  C   UNL     1      30.679 -24.558 -13.199  0.00  0.00    -0.000 C 
ATOM     15  C   UNL     1      30.178 -23.305 -13.550  0.00  0.00    -0.000 C 
ENDBRANCH   9  10
BRANCH   9  16
ATOM     16  C   UNL     1      35.061 -24.171 -12.685  0.00  0.00    +0.006 C 
ATOM     17  C   UNL     1      34.579 -23.363 -11.685  0.00  0.00    -0.002 C 
ATOM     18  C   UNL     1      36.153 -24.989 -12.533  0.00  0.00    -0.002 C 
ATOM     19  C   UNL     1      35.230 -23.376 -10.452  0.00  0.00    -0.000 C 
ATOM     20  C   UNL     1      36.804 -25.001 -11.300  0.00  0.00    -0.000 C 
ATOM     21  C   UNL     1      36.343 -24.195 -10.260  0.00  0.00    -0.000 C 
ENDBRANCH   9  16
BRANCH   9  22
ATOM     22  O   UNL     1      34.507 -25.472 -14.616  0.00  0.00    -0.379 OA
ATOM     23  H   UNL     1      34.230 -26.141 -13.971  0.00  0.00    +0.211 HD
ENDBRANCH   9  22
ENDBRANCH   2   9
BRANCH   1  24
ATOM     24  C   UNL     1      36.529 -20.661 -17.898  0.00  0.00    -0.040 C 
BRANCH  24  25
ATOM     25  C   UNL     1      35.871 -20.920 -19.239  0.00  0.00    +0.121 C 
BRANCH  25  26
ATOM     26  O   UNL     1      35.577 -19.682 -19.872  0.00  0.00    -0.351 OA
BRANCH  26  27
ATOM     27  C   UNL     1      34.425 -19.780 -20.698  0.00  0.00    +0.168 C 
BRANCH  27  28
ATOM     28  C   UNL     1      34.398 -18.613 -21.642  0.00  0.00    +0.007 C 
ATOM     29  C   UNL     1      34.802 -17.360 -21.197  0.00  0.00    -0.002 C 
ATOM     30  C   UNL     1      33.971 -18.796 -22.952  0.00  0.00    -0.002 C 
ATOM     31  C   UNL     1      34.778 -16.274 -22.073  0.00  0.00    -0.000 C 
ATOM     32  C   UNL     1      33.947 -17.711 -23.828  0.00  0.00    -0.000 C 
ATOM     33  C   UNL     1      34.350 -16.451 -23.389  0.00  0.00    -0.000 C 
ENDBRANCH  27  28
ENDBRANCH  26  27
ENDBRANCH  25  26
ENDBRANCH  24  25
ENDBRANCH   1  24
TORSDOF 9
ENDMDL
