MODEL 1
REMARK VINA RESULT:     -11.7      0.000      0.000
REMARK  Name = 51001932
REMARK  5 active torsions:
REMARK  status: ('A' for Active; 'I' for Inactive)
REMARK    1  A    between atoms: C_8  and  C_18
REMARK    2  A    between atoms: C_11  and  C_26
REMARK    3  A    between atoms: N_15  and  C_21
REMARK    4  A    between atoms: N_24  and  C_29
REMARK    5  A    between atoms: C_29  and  C_34
REMARK                            x       y       z     vdW  Elec       q    Type
REMARK                         _______ _______ _______ _____ _____    ______ ____
ROOT
ATOM      1  O   UNL     1      31.564 -11.732 -20.802  0.00  0.00    -0.473 OA
ATOM      2  N   UNL     1      31.765  -8.894 -21.849  0.00  0.00    -0.273 N 
ATOM      3  N   UNL     1      33.073  -8.714 -23.616  0.00  0.00    -0.385 NA
ATOM      4  C   UNL     1      32.521  -9.584 -22.777  0.00  0.00    +0.186 C 
ATOM      5  C   UNL     1      30.977  -9.417 -20.752  0.00  0.00    +0.141 C 
ATOM      6  C   UNL     1      32.720 -11.045 -22.873  0.00  0.00    +0.078 C 
ATOM      7  C   UNL     1      32.278 -11.996 -21.938  0.00  0.00    +0.142 C 
ATOM      8  C   UNL     1      32.676  -7.469 -23.214  0.00  0.00    +0.177 C 
ATOM      9  C   UNL     1      30.484 -10.825 -20.994  0.00  0.00    +0.227 C 
ATOM     10  C   UNL     1      31.864  -7.554 -22.116  0.00  0.00    +0.157 C 
ATOM     11  C   UNL     1      33.333 -13.796 -23.190  0.00  0.00    +0.006 C 
ATOM     12  C   UNL     1      32.605 -13.355 -22.090  0.00  0.00    +0.037 C 
ATOM     13  C   UNL     1      33.453 -11.523 -23.981  0.00  0.00    +0.007 C 
ATOM     14  C   UNL     1      33.752 -12.879 -24.140  0.00  0.00    +0.000 C 
ENDROOT
BRANCH   8  18
ATOM     15  N   UNL     1      32.382  -5.085 -23.770  0.00  0.00    -0.175 N 
ATOM     16  N   UNL     1      34.193  -6.164 -24.658  0.00  0.00    -0.334 NA
ATOM     17  N   UNL     1      33.121  -4.265 -24.532  0.00  0.00    -0.114 NA
ATOM     18  C   UNL     1      33.073  -6.221 -23.877  0.00  0.00    +0.241 C 
ATOM     19  C   UNL     1      34.195  -4.913 -25.056  0.00  0.00    +0.082 C 
ATOM     20  C   UNL     1      35.189  -4.291 -25.926  0.00  0.00    +0.131 C 
BRANCH  15  21
ATOM     21  C   UNL     1      31.190  -4.688 -23.082  0.00  0.00    +0.100 C 
ATOM     22  C   UNL     1      31.502  -4.118 -21.695  0.00  0.00    +0.024 C 
ATOM     23  C   UNL     1      30.367  -3.696 -23.906  0.00  0.00    +0.024 C 
ENDBRANCH  15  21
ENDBRANCH   8  18
BRANCH  11  26
ATOM     24  N   UNL     1      34.296 -17.221 -22.871  0.00  0.00    -0.205 N 
ATOM     25  N   UNL     1      33.951 -17.295 -24.168  0.00  0.00    -0.176 NA
ATOM     26  C   UNL     1      33.646 -15.189 -23.338  0.00  0.00    +0.037 C 
ATOM     27  C   UNL     1      34.132 -15.981 -22.326  0.00  0.00    +0.086 C 
ATOM     28  C   UNL     1      33.556 -16.050 -24.447  0.00  0.00    +0.119 C 
BRANCH  24  29
ATOM     29  C   UNL     1      34.787 -18.396 -22.193  0.00  0.00    +0.147 C 
ATOM     30  C   UNL     1      33.799 -19.009 -21.174  0.00  0.00    +0.031 C 
ATOM     31  C   UNL     1      35.070 -19.484 -23.255  0.00  0.00    +0.031 C 
BRANCH  29  34
ATOM     32  O   UNL     1      36.130 -17.874 -20.218  0.00  0.00    -0.274 OA
ATOM     33  N   UNL     1      37.219 -18.029 -22.224  0.00  0.00    -0.327 N 
ATOM     34  C   UNL     1      36.092 -18.076 -21.430  0.00  0.00    +0.237 C 
ATOM     35  H   UNL     1      38.096 -17.831 -21.823  0.00  0.00    +0.145 HD
ATOM     36  H   UNL     1      37.146 -18.193 -23.192  0.00  0.00    +0.145 HD
ENDBRANCH  29  34
ENDBRANCH  24  29
ENDBRANCH  11  26
TORSDOF 5
ENDMDL
MODEL 2
REMARK VINA RESULT:     -11.6      6.910     14.477
REMARK  Name = 51001932
REMARK  5 active torsions:
REMARK  status: ('A' for Active; 'I' for Inactive)
REMARK    1  A    between atoms: C_8  and  C_18
REMARK    2  A    between atoms: C_11  and  C_26
REMARK    3  A    between atoms: N_15  and  C_21
REMARK    4  A    between atoms: N_24  and  C_29
REMARK    5  A    between atoms: C_29  and  C_34
REMARK                            x       y       z     vdW  Elec       q    Type
REMARK                         _______ _______ _______ _____ _____    ______ ____
ROOT
ATOM      1  O   UNL     1      32.214 -21.968 -18.590  0.00  0.00    -0.473 OA
ATOM      2  N   UNL     1      33.836 -23.085 -16.284  0.00  0.00    -0.273 N 
ATOM      3  N   UNL     1      35.979 -22.580 -16.409  0.00  0.00    -0.385 NA
ATOM      4  C   UNL     1      34.796 -22.372 -16.976  0.00  0.00    +0.186 C 
ATOM      5  C   UNL     1      32.410 -23.158 -16.528  0.00  0.00    +0.141 C 
ATOM      6  C   UNL     1      34.600 -21.504 -18.155  0.00  0.00    +0.078 C 
ATOM      7  C   UNL     1      33.404 -21.358 -18.878  0.00  0.00    +0.142 C 
ATOM      8  C   UNL     1      35.773 -23.434 -15.362  0.00  0.00    +0.177 C 
ATOM      9  C   UNL     1      31.860 -21.928 -17.212  0.00  0.00    +0.227 C 
ATOM     10  C   UNL     1      34.448 -23.765 -15.265  0.00  0.00    +0.157 C 
ATOM     11  C   UNL     1      34.488 -19.883 -20.480  0.00  0.00    +0.006 C 
ATOM     12  C   UNL     1      33.361 -20.571 -20.042  0.00  0.00    +0.037 C 
ATOM     13  C   UNL     1      35.726 -20.791 -18.623  0.00  0.00    +0.007 C 
ATOM     14  C   UNL     1      35.671 -19.988 -19.766  0.00  0.00    +0.000 C 
ENDROOT
BRANCH   8  18
ATOM     15  N   UNL     1      36.800 -23.776 -13.147  0.00  0.00    -0.175 N 
ATOM     16  N   UNL     1      37.932 -24.562 -14.972  0.00  0.00    -0.334 NA
ATOM     17  N   UNL     1      37.954 -24.364 -12.797  0.00  0.00    -0.114 NA
ATOM     18  C   UNL     1      36.833 -23.923 -14.473  0.00  0.00    +0.241 C 
ATOM     19  C   UNL     1      38.621 -24.828 -13.887  0.00  0.00    +0.082 C 
ATOM     20  C   UNL     1      39.907 -25.518 -13.834  0.00  0.00    +0.131 C 
BRANCH  15  21
ATOM     21  C   UNL     1      35.879 -23.194 -12.217  0.00  0.00    +0.100 C 
ATOM     22  C   UNL     1      34.948 -24.247 -11.611  0.00  0.00    +0.024 C 
ATOM     23  C   UNL     1      36.604 -22.412 -11.120  0.00  0.00    +0.024 C 
ENDBRANCH  15  21
ENDBRANCH   8  18
BRANCH  11  26
ATOM     24  N   UNL     1      34.242 -17.326 -22.963  0.00  0.00    -0.205 N 
ATOM     25  N   UNL     1      34.407 -18.342 -23.827  0.00  0.00    -0.176 NA
ATOM     26  C   UNL     1      34.424 -19.071 -21.662  0.00  0.00    +0.037 C 
ATOM     27  C   UNL     1      34.245 -17.709 -21.653  0.00  0.00    +0.086 C 
ATOM     28  C   UNL     1      34.517 -19.405 -23.026  0.00  0.00    +0.119 C 
BRANCH  24  29
ATOM     29  C   UNL     1      34.083 -15.981 -23.461  0.00  0.00    +0.147 C 
ATOM     30  C   UNL     1      33.505 -14.980 -22.435  0.00  0.00    +0.031 C 
ATOM     31  C   UNL     1      35.477 -15.451 -23.871  0.00  0.00    +0.031 C 
BRANCH  29  34
ATOM     32  O   UNL     1      33.183 -15.088 -25.551  0.00  0.00    -0.274 OA
ATOM     33  N   UNL     1      32.263 -17.022 -24.747  0.00  0.00    -0.327 N 
ATOM     34  C   UNL     1      33.149 -15.966 -24.691  0.00  0.00    +0.237 C 
ATOM     35  H   UNL     1      31.629 -17.095 -25.497  0.00  0.00    +0.145 HD
ATOM     36  H   UNL     1      32.265 -17.704 -24.036  0.00  0.00    +0.145 HD
ENDBRANCH  29  34
ENDBRANCH  24  29
ENDBRANCH  11  26
TORSDOF 5
ENDMDL
MODEL 3
REMARK VINA RESULT:     -11.3      2.781     11.535
REMARK  Name = 51001932
REMARK  5 active torsions:
REMARK  status: ('A' for Active; 'I' for Inactive)
REMARK    1  A    between atoms: C_8  and  C_18
REMARK    2  A    between atoms: C_11  and  C_26
REMARK    3  A    between atoms: N_15  and  C_21
REMARK    4  A    between atoms: N_24  and  C_29
REMARK    5  A    between atoms: C_29  and  C_34
REMARK                            x       y       z     vdW  Elec       q    Type
REMARK                         _______ _______ _______ _____ _____    ______ ____
ROOT
ATOM      1  O   UNL     1      34.097 -16.359 -24.563  0.00  0.00    -0.473 OA
ATOM      2  N   UNL     1      34.564 -18.652 -22.635  0.00  0.00    -0.273 N 
ATOM      3  N   UNL     1      34.635 -18.010 -20.527  0.00  0.00    -0.385 NA
ATOM      4  C   UNL     1      34.405 -17.591 -21.766  0.00  0.00    +0.186 C 
ATOM      5  C   UNL     1      34.408 -18.677 -24.075  0.00  0.00    +0.141 C 
ATOM      6  C   UNL     1      34.042 -16.198 -22.099  0.00  0.00    +0.078 C 
ATOM      7  C   UNL     1      33.925 -15.668 -23.395  0.00  0.00    +0.142 C 
ATOM      8  C   UNL     1      34.949 -19.338 -20.609  0.00  0.00    +0.177 C 
ATOM      9  C   UNL     1      33.449 -17.627 -24.586  0.00  0.00    +0.227 C 
ATOM     10  C   UNL     1      34.914 -19.761 -21.910  0.00  0.00    +0.157 C 
ATOM     11  C   UNL     1      33.464 -13.451 -22.506  0.00  0.00    +0.006 C 
ATOM     12  C   UNL     1      33.661 -14.301 -23.589  0.00  0.00    +0.037 C 
ATOM     13  C   UNL     1      33.833 -15.312 -21.019  0.00  0.00    +0.007 C 
ATOM     14  C   UNL     1      33.544 -13.958 -21.219  0.00  0.00    +0.000 C 
ENDROOT
BRANCH   8  18
ATOM     15  N   UNL     1      34.464 -21.131 -18.987  0.00  0.00    -0.175 N 
ATOM     16  N   UNL     1      36.459 -20.031 -18.784  0.00  0.00    -0.334 NA
ATOM     17  N   UNL     1      35.185 -21.602 -17.960  0.00  0.00    -0.114 NA
ATOM     18  C   UNL     1      35.278 -20.182 -19.454  0.00  0.00    +0.241 C 
ATOM     19  C   UNL     1      36.369 -20.944 -17.845  0.00  0.00    +0.082 C 
ATOM     20  C   UNL     1      37.375 -21.228 -16.826  0.00  0.00    +0.131 C 
BRANCH  15  21
ATOM     21  C   UNL     1      33.172 -21.627 -19.360  0.00  0.00    +0.100 C 
ATOM     22  C   UNL     1      32.661 -22.671 -18.363  0.00  0.00    +0.024 C 
ATOM     23  C   UNL     1      32.159 -20.492 -19.527  0.00  0.00    +0.024 C 
ENDBRANCH  15  21
ENDBRANCH   8  18
BRANCH  11  26
ATOM     24  N   UNL     1      32.271 -10.084 -22.529  0.00  0.00    -0.205 N 
ATOM     25  N   UNL     1      33.191  -9.911 -23.493  0.00  0.00    -0.176 NA
ATOM     26  C   UNL     1      33.180 -12.060 -22.720  0.00  0.00    +0.037 C 
ATOM     27  C   UNL     1      32.224 -11.353 -22.032  0.00  0.00    +0.086 C 
ATOM     28  C   UNL     1      33.742 -11.122 -23.606  0.00  0.00    +0.119 C 
BRANCH  24  29
ATOM     29  C   UNL     1      31.448  -8.972 -22.116  0.00  0.00    +0.147 C 
ATOM     30  C   UNL     1      30.595  -8.349 -23.244  0.00  0.00    +0.031 C 
ATOM     31  C   UNL     1      30.465  -9.476 -21.034  0.00  0.00    +0.031 C 
BRANCH  29  34
ATOM     32  O   UNL     1      32.330  -7.553 -20.330  0.00  0.00    -0.274 OA
ATOM     33  N   UNL     1      33.096  -7.177 -22.453  0.00  0.00    -0.327 N 
ATOM     34  C   UNL     1      32.322  -7.843 -21.525  0.00  0.00    +0.237 C 
ATOM     35  H   UNL     1      33.685  -6.441 -22.167  0.00  0.00    +0.145 HD
ATOM     36  H   UNL     1      33.059  -7.437 -23.402  0.00  0.00    +0.145 HD
ENDBRANCH  29  34
ENDBRANCH  24  29
ENDBRANCH  11  26
TORSDOF 5
ENDMDL
MODEL 4
REMARK VINA RESULT:     -11.1      1.482      2.495
REMARK  Name = 51001932
REMARK  5 active torsions:
REMARK  status: ('A' for Active; 'I' for Inactive)
REMARK    1  A    between atoms: C_8  and  C_18
REMARK    2  A    between atoms: C_11  and  C_26
REMARK    3  A    between atoms: N_15  and  C_21
REMARK    4  A    between atoms: N_24  and  C_29
REMARK    5  A    between atoms: C_29  and  C_34
REMARK                            x       y       z     vdW  Elec       q    Type
REMARK                         _______ _______ _______ _____ _____    ______ ____
ROOT
ATOM      1  O   UNL     1      31.957 -11.038 -20.186  0.00  0.00    -0.473 OA
ATOM      2  N   UNL     1      31.312  -8.302 -21.322  0.00  0.00    -0.273 N 
ATOM      3  N   UNL     1      31.891  -8.085 -23.439  0.00  0.00    -0.385 NA
ATOM      4  C   UNL     1      31.810  -8.951 -22.435  0.00  0.00    +0.186 C 
ATOM      5  C   UNL     1      31.045  -8.838 -20.003  0.00  0.00    +0.141 C 
ATOM      6  C   UNL     1      32.206 -10.370 -22.550  0.00  0.00    +0.078 C 
ATOM      7  C   UNL     1      32.275 -11.291 -21.492  0.00  0.00    +0.142 C 
ATOM      8  C   UNL     1      31.452  -6.881 -22.962  0.00  0.00    +0.177 C 
ATOM      9  C   UNL     1      30.741 -10.318 -20.015  0.00  0.00    +0.227 C 
ATOM     10  C   UNL     1      31.089  -6.989 -21.647  0.00  0.00    +0.157 C 
ATOM     11  C   UNL     1      33.125 -13.019 -22.979  0.00  0.00    +0.006 C 
ATOM     12  C   UNL     1      32.753 -12.596 -21.708  0.00  0.00    +0.037 C 
ATOM     13  C   UNL     1      32.587 -10.829 -23.831  0.00  0.00    +0.007 C 
ATOM     14  C   UNL     1      33.036 -12.136 -24.044  0.00  0.00    +0.000 C 
ENDROOT
BRANCH   8  18
ATOM     15  N   UNL     1      32.065  -5.479 -24.894  0.00  0.00    -0.175 N 
ATOM     16  N   UNL     1      30.610  -4.598 -23.365  0.00  0.00    -0.334 NA
ATOM     17  N   UNL     1      31.687  -4.237 -25.231  0.00  0.00    -0.114 NA
ATOM     18  C   UNL     1      31.385  -5.651 -23.759  0.00  0.00    +0.241 C 
ATOM     19  C   UNL     1      30.823  -3.720 -24.318  0.00  0.00    +0.082 C 
ATOM     20  C   UNL     1      30.231  -2.388 -24.405  0.00  0.00    +0.131 C 
BRANCH  15  21
ATOM     21  C   UNL     1      32.968  -6.282 -25.663  0.00  0.00    +0.100 C 
ATOM     22  C   UNL     1      32.925  -5.914 -27.149  0.00  0.00    +0.024 C 
ATOM     23  C   UNL     1      34.397  -6.197 -25.123  0.00  0.00    +0.024 C 
ENDBRANCH  15  21
ENDBRANCH   8  18
BRANCH  11  26
ATOM     24  N   UNL     1      34.394 -16.353 -22.788  0.00  0.00    -0.205 N 
ATOM     25  N   UNL     1      34.218 -16.348 -24.120  0.00  0.00    -0.176 NA
ATOM     26  C   UNL     1      33.597 -14.358 -23.186  0.00  0.00    +0.037 C 
ATOM     27  C   UNL     1      34.037 -15.184 -22.180  0.00  0.00    +0.086 C 
ATOM     28  C   UNL     1      33.732 -15.127 -24.358  0.00  0.00    +0.119 C 
BRANCH  24  29
ATOM     29  C   UNL     1      34.918 -17.530 -22.139  0.00  0.00    +0.147 C 
ATOM     30  C   UNL     1      36.386 -17.859 -22.491  0.00  0.00    +0.031 C 
ATOM     31  C   UNL     1      34.861 -17.303 -20.610  0.00  0.00    +0.031 C 
BRANCH  29  34
ATOM     32  O   UNL     1      33.301 -19.314 -21.712  0.00  0.00    -0.274 OA
ATOM     33  N   UNL     1      34.252 -19.226 -23.791  0.00  0.00    -0.327 N 
ATOM     34  C   UNL     1      34.071 -18.770 -22.502  0.00  0.00    +0.237 C 
ATOM     35  H   UNL     1      33.753 -20.013 -24.110  0.00  0.00    +0.145 HD
ATOM     36  H   UNL     1      34.880 -18.765 -24.393  0.00  0.00    +0.145 HD
ENDBRANCH  29  34
ENDBRANCH  24  29
ENDBRANCH  11  26
TORSDOF 5
ENDMDL
MODEL 5
REMARK VINA RESULT:     -10.4      2.671      4.840
REMARK  Name = 51001932
REMARK  5 active torsions:
REMARK  status: ('A' for Active; 'I' for Inactive)
REMARK    1  A    between atoms: C_8  and  C_18
REMARK    2  A    between atoms: C_11  and  C_26
REMARK    3  A    between atoms: N_15  and  C_21
REMARK    4  A    between atoms: N_24  and  C_29
REMARK    5  A    between atoms: C_29  and  C_34
REMARK                            x       y       z     vdW  Elec       q    Type
REMARK                         _______ _______ _______ _____ _____    ______ ____
ROOT
ATOM      1  O   UNL     1      33.296 -15.900 -24.829  0.00  0.00    -0.473 OA
ATOM      2  N   UNL     1      32.977 -12.899 -24.530  0.00  0.00    -0.273 N 
ATOM      3  N   UNL     1      33.281 -12.198 -22.461  0.00  0.00    -0.385 NA
ATOM      4  C   UNL     1      33.343 -13.266 -23.250  0.00  0.00    +0.186 C 
ATOM      5  C   UNL     1      32.904 -13.719 -25.723  0.00  0.00    +0.141 C 
ATOM      6  C   UNL     1      33.746 -14.605 -22.775  0.00  0.00    +0.078 C 
ATOM      7  C   UNL     1      33.695 -15.792 -23.525  0.00  0.00    +0.142 C 
ATOM      8  C   UNL     1      32.866 -11.154 -23.240  0.00  0.00    +0.177 C 
ATOM      9  C   UNL     1      33.842 -14.903 -25.687  0.00  0.00    +0.227 C 
ATOM     10  C   UNL     1      32.668 -11.564 -24.530  0.00  0.00    +0.157 C 
ATOM     11  C   UNL     1      34.443 -17.098 -21.614  0.00  0.00    +0.006 C 
ATOM     12  C   UNL     1      34.021 -17.027 -22.937  0.00  0.00    +0.037 C 
ATOM     13  C   UNL     1      34.182 -14.709 -21.435  0.00  0.00    +0.007 C 
ATOM     14  C   UNL     1      34.530 -15.936 -20.864  0.00  0.00    +0.000 C 
ENDROOT
BRANCH   8  18
ATOM     15  N   UNL     1      31.916  -9.497 -21.680  0.00  0.00    -0.175 N 
ATOM     16  N   UNL     1      33.240  -8.719 -23.376  0.00  0.00    -0.334 NA
ATOM     17  N   UNL     1      32.037  -8.162 -21.640  0.00  0.00    -0.114 NA
ATOM     18  C   UNL     1      32.664  -9.786 -22.748  0.00  0.00    +0.241 C 
ATOM     19  C   UNL     1      32.825  -7.707 -22.650  0.00  0.00    +0.082 C 
ATOM     20  C   UNL     1      33.148  -6.300 -22.874  0.00  0.00    +0.131 C 
BRANCH  15  21
ATOM     21  C   UNL     1      31.151 -10.265 -20.745  0.00  0.00    +0.100 C 
ATOM     22  C   UNL     1      30.986  -9.529 -19.412  0.00  0.00    +0.024 C 
ATOM     23  C   UNL     1      29.789 -10.660 -21.320  0.00  0.00    +0.024 C 
ENDBRANCH  15  21
ENDBRANCH   8  18
BRANCH  11  26
ATOM     24  N   UNL     1      34.607 -20.272 -19.984  0.00  0.00    -0.205 N 
ATOM     25  N   UNL     1      35.906 -20.225 -20.326  0.00  0.00    -0.176 NA
ATOM     26  C   UNL     1      34.786 -18.364 -21.032  0.00  0.00    +0.037 C 
ATOM     27  C   UNL     1      33.891 -19.182 -20.384  0.00  0.00    +0.086 C 
ATOM     28  C   UNL     1      36.009 -19.057 -20.965  0.00  0.00    +0.119 C 
BRANCH  24  29
ATOM     29  C   UNL     1      34.098 -21.412 -19.260  0.00  0.00    +0.147 C 
ATOM     30  C   UNL     1      32.614 -21.298 -18.843  0.00  0.00    +0.031 C 
ATOM     31  C   UNL     1      34.214 -22.655 -20.173  0.00  0.00    +0.031 C 
BRANCH  29  34
ATOM     32  O   UNL     1      34.586 -22.445 -17.098  0.00  0.00    -0.274 OA
ATOM     33  N   UNL     1      36.061 -20.878 -17.877  0.00  0.00    -0.327 N 
ATOM     34  C   UNL     1      34.919 -21.646 -17.972  0.00  0.00    +0.237 C 
ATOM     35  H   UNL     1      36.646 -20.960 -17.089  0.00  0.00    +0.145 HD
ATOM     36  H   UNL     1      36.291 -20.247 -18.597  0.00  0.00    +0.145 HD
ENDBRANCH  29  34
ENDBRANCH  24  29
ENDBRANCH  11  26
TORSDOF 5
ENDMDL
MODEL 6
REMARK VINA RESULT:      -9.8      2.659      4.546
REMARK  Name = 51001932
REMARK  5 active torsions:
REMARK  status: ('A' for Active; 'I' for Inactive)
REMARK    1  A    between atoms: C_8  and  C_18
REMARK    2  A    between atoms: C_11  and  C_26
REMARK    3  A    between atoms: N_15  and  C_21
REMARK    4  A    between atoms: N_24  and  C_29
REMARK    5  A    between atoms: C_29  and  C_34
REMARK                            x       y       z     vdW  Elec       q    Type
REMARK                         _______ _______ _______ _____ _____    ______ ____
ROOT
ATOM      1  O   UNL     1      33.269 -15.185 -24.701  0.00  0.00    -0.473 OA
ATOM      2  N   UNL     1      32.622 -12.293 -24.059  0.00  0.00    -0.273 N 
ATOM      3  N   UNL     1      32.789 -11.825 -21.910  0.00  0.00    -0.385 NA
ATOM      4  C   UNL     1      32.988 -12.775 -22.818  0.00  0.00    +0.186 C 
ATOM      5  C   UNL     1      32.672 -12.962 -25.343  0.00  0.00    +0.141 C 
ATOM      6  C   UNL     1      33.519 -14.114 -22.490  0.00  0.00    +0.078 C 
ATOM      7  C   UNL     1      33.617 -15.198 -23.378  0.00  0.00    +0.142 C 
ATOM      8  C   UNL     1      32.288 -10.740 -22.575  0.00  0.00    +0.177 C 
ATOM      9  C   UNL     1      33.730 -14.039 -25.410  0.00  0.00    +0.227 C 
ATOM     10  C   UNL     1      32.172 -11.007 -23.912  0.00  0.00    +0.157 C 
ATOM     11  C   UNL     1      34.445 -16.646 -21.607  0.00  0.00    +0.006 C 
ATOM     12  C   UNL     1      34.056 -16.456 -22.929  0.00  0.00    +0.037 C 
ATOM     13  C   UNL     1      33.924 -14.336 -21.155  0.00  0.00    +0.007 C 
ATOM     14  C   UNL     1      34.385 -15.583 -20.720  0.00  0.00    +0.000 C 
ENDROOT
BRANCH   8  18
ATOM     15  N   UNL     1      31.945  -8.299 -22.568  0.00  0.00    -0.175 N 
ATOM     16  N   UNL     1      31.549  -9.430 -20.620  0.00  0.00    -0.334 NA
ATOM     17  N   UNL     1      31.552  -7.472 -21.588  0.00  0.00    -0.114 NA
ATOM     18  C   UNL     1      31.926  -9.472 -21.932  0.00  0.00    +0.241 C 
ATOM     19  C   UNL     1      31.318  -8.151 -20.434  0.00  0.00    +0.082 C 
ATOM     20  C   UNL     1      30.877  -7.531 -19.188  0.00  0.00    +0.131 C 
BRANCH  15  21
ATOM     21  C   UNL     1      32.261  -7.877 -23.900  0.00  0.00    +0.100 C 
ATOM     22  C   UNL     1      31.118  -7.071 -24.522  0.00  0.00    +0.024 C 
ATOM     23  C   UNL     1      33.571  -7.086 -23.944  0.00  0.00    +0.024 C 
ENDBRANCH  15  21
ENDBRANCH   8  18
BRANCH  11  26
ATOM     24  N   UNL     1      34.921 -19.926 -20.275  0.00  0.00    -0.205 N 
ATOM     25  N   UNL     1      36.179 -19.774 -20.721  0.00  0.00    -0.176 NA
ATOM     26  C   UNL     1      34.904 -17.932 -21.167  0.00  0.00    +0.037 C 
ATOM     27  C   UNL     1      34.116 -18.851 -20.517  0.00  0.00    +0.086 C 
ATOM     28  C   UNL     1      36.163 -18.554 -21.264  0.00  0.00    +0.119 C 
BRANCH  24  29
ATOM     29  C   UNL     1      34.538 -21.149 -19.611  0.00  0.00    +0.147 C 
ATOM     30  C   UNL     1      33.027 -21.273 -19.312  0.00  0.00    +0.031 C 
ATOM     31  C   UNL     1      34.914 -22.335 -20.529  0.00  0.00    +0.031 C 
BRANCH  29  34
ATOM     32  O   UNL     1      34.965 -22.104 -17.401  0.00  0.00    -0.274 OA
ATOM     33  N   UNL     1      36.343 -20.418 -18.106  0.00  0.00    -0.327 N 
ATOM     34  C   UNL     1      35.285 -21.289 -18.265  0.00  0.00    +0.237 C 
ATOM     35  H   UNL     1      36.876 -20.436 -17.279  0.00  0.00    +0.145 HD
ATOM     36  H   UNL     1      36.565 -19.778 -18.821  0.00  0.00    +0.145 HD
ENDBRANCH  29  34
ENDBRANCH  24  29
ENDBRANCH  11  26
TORSDOF 5
ENDMDL
MODEL 7
REMARK VINA RESULT:      -9.5      2.555     11.342
REMARK  Name = 51001932
REMARK  5 active torsions:
REMARK  status: ('A' for Active; 'I' for Inactive)
REMARK    1  A    between atoms: C_8  and  C_18
REMARK    2  A    between atoms: C_11  and  C_26
REMARK    3  A    between atoms: N_15  and  C_21
REMARK    4  A    between atoms: N_24  and  C_29
REMARK    5  A    between atoms: C_29  and  C_34
REMARK                            x       y       z     vdW  Elec       q    Type
REMARK                         _______ _______ _______ _____ _____    ______ ____
ROOT
ATOM      1  O   UNL     1      33.952 -15.153 -24.493  0.00  0.00    -0.473 OA
ATOM      2  N   UNL     1      34.669 -17.561 -22.796  0.00  0.00    -0.273 N 
ATOM      3  N   UNL     1      34.596 -17.147 -20.631  0.00  0.00    -0.385 NA
ATOM      4  C   UNL     1      34.346 -16.630 -21.828  0.00  0.00    +0.186 C 
ATOM      5  C   UNL     1      34.558 -17.450 -24.236  0.00  0.00    +0.141 C 
ATOM      6  C   UNL     1      33.808 -15.269 -22.030  0.00  0.00    +0.078 C 
ATOM      7  C   UNL     1      33.657 -14.620 -23.268  0.00  0.00    +0.142 C 
ATOM      8  C   UNL     1      35.087 -18.406 -20.837  0.00  0.00    +0.177 C 
ATOM      9  C   UNL     1      33.481 -16.484 -24.675  0.00  0.00    +0.227 C 
ATOM     10  C   UNL     1      35.145 -18.686 -22.175  0.00  0.00    +0.157 C 
ATOM     11  C   UNL     1      32.878 -12.593 -22.173  0.00  0.00    +0.006 C 
ATOM     12  C   UNL     1      33.217 -13.287 -23.329  0.00  0.00    +0.037 C 
ATOM     13  C   UNL     1      33.453 -14.540 -20.874  0.00  0.00    +0.007 C 
ATOM     14  C   UNL     1      32.990 -13.222 -20.943  0.00  0.00    +0.000 C 
ENDROOT
BRANCH   8  18
ATOM     15  N   UNL     1      34.855 -20.461 -19.494  0.00  0.00    -0.175 N 
ATOM     16  N   UNL     1      36.569 -19.039 -18.969  0.00  0.00    -0.334 NA
ATOM     17  N   UNL     1      35.580 -20.921 -18.464  0.00  0.00    -0.114 NA
ATOM     18  C   UNL     1      35.494 -19.321 -19.764  0.00  0.00    +0.241 C 
ATOM     19  C   UNL     1      36.596 -20.071 -18.157  0.00  0.00    +0.082 C 
ATOM     20  C   UNL     1      37.562 -20.294 -17.085  0.00  0.00    +0.131 C 
BRANCH  15  21
ATOM     21  C   UNL     1      33.721 -21.139 -20.047  0.00  0.00    +0.100 C 
ATOM     22  C   UNL     1      33.563 -22.544 -19.460  0.00  0.00    +0.024 C 
ATOM     23  C   UNL     1      32.436 -20.327 -19.867  0.00  0.00    +0.024 C 
ENDBRANCH  15  21
ENDBRANCH   8  18
BRANCH  11  26
ATOM     24  N   UNL     1      32.341  -9.104 -22.721  0.00  0.00    -0.205 N 
ATOM     25  N   UNL     1      31.189  -9.319 -22.063  0.00  0.00    -0.176 NA
ATOM     26  C   UNL     1      32.417 -11.236 -22.253  0.00  0.00    +0.037 C 
ATOM     27  C   UNL     1      33.113 -10.220 -22.863  0.00  0.00    +0.086 C 
ATOM     28  C   UNL     1      31.242 -10.623 -21.780  0.00  0.00    +0.119 C 
BRANCH  24  29
ATOM     29  C   UNL     1      32.655  -7.780 -23.202  0.00  0.00    +0.147 C 
ATOM     30  C   UNL     1      34.120  -7.591 -23.655  0.00  0.00    +0.031 C 
ATOM     31  C   UNL     1      31.763  -7.489 -24.431  0.00  0.00    +0.031 C 
BRANCH  29  34
ATOM     32  O   UNL     1      33.165  -6.473 -21.199  0.00  0.00    -0.274 OA
ATOM     33  N   UNL     1      31.156  -6.091 -22.227  0.00  0.00    -0.327 N 
ATOM     34  C   UNL     1      32.375  -6.726 -22.107  0.00  0.00    +0.237 C 
ATOM     35  H   UNL     1      30.892  -5.403 -21.572  0.00  0.00    +0.145 HD
ATOM     36  H   UNL     1      30.550  -6.324 -22.966  0.00  0.00    +0.145 HD
ENDBRANCH  29  34
ENDBRANCH  24  29
ENDBRANCH  11  26
TORSDOF 5
ENDMDL
MODEL 8
REMARK VINA RESULT:      -9.2      7.533     15.390
REMARK  Name = 51001932
REMARK  5 active torsions:
REMARK  status: ('A' for Active; 'I' for Inactive)
REMARK    1  A    between atoms: C_8  and  C_18
REMARK    2  A    between atoms: C_11  and  C_26
REMARK    3  A    between atoms: N_15  and  C_21
REMARK    4  A    between atoms: N_24  and  C_29
REMARK    5  A    between atoms: C_29  and  C_34
REMARK                            x       y       z     vdW  Elec       q    Type
REMARK                         _______ _______ _______ _____ _____    ______ ____
ROOT
ATOM      1  O   UNL     1      32.064 -22.952 -16.655  0.00  0.00    -0.473 OA
ATOM      2  N   UNL     1      34.186 -24.026 -14.774  0.00  0.00    -0.273 N 
ATOM      3  N   UNL     1      36.240 -23.574 -15.438  0.00  0.00    -0.385 NA
ATOM      4  C   UNL     1      34.957 -23.358 -15.706  0.00  0.00    +0.186 C 
ATOM      5  C   UNL     1      32.743 -24.075 -14.659  0.00  0.00    +0.141 C 
ATOM      6  C   UNL     1      34.490 -22.528 -16.834  0.00  0.00    +0.078 C 
ATOM      7  C   UNL     1      33.156 -22.379 -17.248  0.00  0.00    +0.142 C 
ATOM      8  C   UNL     1      36.285 -24.387 -14.339  0.00  0.00    +0.177 C 
ATOM      9  C   UNL     1      32.059 -22.857 -15.235  0.00  0.00    +0.227 C 
ATOM     10  C   UNL     1      35.020 -24.685 -13.909  0.00  0.00    +0.157 C 
ATOM     11  C   UNL     1      33.834 -20.983 -19.122  0.00  0.00    +0.006 C 
ATOM     12  C   UNL     1      32.840 -21.631 -18.395  0.00  0.00    +0.037 C 
ATOM     13  C   UNL     1      35.477 -21.856 -17.590  0.00  0.00    +0.007 C 
ATOM     14  C   UNL     1      35.154 -21.091 -18.715  0.00  0.00    +0.000 C 
ENDROOT
BRANCH   8  18
ATOM     15  N   UNL     1      37.849 -24.621 -12.448  0.00  0.00    -0.175 N 
ATOM     16  N   UNL     1      38.427 -25.608 -14.428  0.00  0.00    -0.334 NA
ATOM     17  N   UNL     1      39.031 -25.248 -12.360  0.00  0.00    -0.114 NA
ATOM     18  C   UNL     1      37.524 -24.869 -13.718  0.00  0.00    +0.241 C 
ATOM     19  C   UNL     1      39.368 -25.832 -13.541  0.00  0.00    +0.082 C 
ATOM     20  C   UNL     1      40.595 -26.591 -13.764  0.00  0.00    +0.131 C 
BRANCH  15  21
ATOM     21  C   UNL     1      37.229 -23.916 -11.366  0.00  0.00    +0.100 C 
ATOM     22  C   UNL     1      36.967 -22.450 -11.724  0.00  0.00    +0.024 C 
ATOM     23  C   UNL     1      35.940 -24.603 -10.910  0.00  0.00    +0.024 C 
ENDBRANCH  15  21
ENDBRANCH   8  18
BRANCH  11  26
ATOM     24  N   UNL     1      33.691 -18.963 -22.064  0.00  0.00    -0.205 N 
ATOM     25  N   UNL     1      32.365 -19.151 -21.962  0.00  0.00    -0.176 NA
ATOM     26  C   UNL     1      33.494 -20.211 -20.283  0.00  0.00    +0.037 C 
ATOM     27  C   UNL     1      34.414 -19.577 -21.083  0.00  0.00    +0.086 C 
ATOM     28  C   UNL     1      32.251 -19.914 -20.872  0.00  0.00    +0.119 C 
BRANCH  24  29
ATOM     29  C   UNL     1      34.221 -18.168 -23.146  0.00  0.00    +0.147 C 
ATOM     30  C   UNL     1      35.639 -18.573 -23.608  0.00  0.00    +0.031 C 
ATOM     31  C   UNL     1      33.286 -18.331 -24.367  0.00  0.00    +0.031 C 
BRANCH  29  34
ATOM     32  O   UNL     1      34.659 -16.293 -21.639  0.00  0.00    -0.274 OA
ATOM     33  N   UNL     1      33.862 -15.805 -23.728  0.00  0.00    -0.327 N 
ATOM     34  C   UNL     1      34.279 -16.677 -22.744  0.00  0.00    +0.237 C 
ATOM     35  H   UNL     1      33.865 -14.834 -23.560  0.00  0.00    +0.145 HD
ATOM     36  H   UNL     1      33.562 -16.152 -24.599  0.00  0.00    +0.145 HD
ENDBRANCH  29  34
ENDBRANCH  24  29
ENDBRANCH  11  26
TORSDOF 5
ENDMDL
MODEL 9
REMARK VINA RESULT:      -8.9      7.147     14.650
REMARK  Name = 51001932
REMARK  5 active torsions:
REMARK  status: ('A' for Active; 'I' for Inactive)
REMARK    1  A    between atoms: C_8  and  C_18
REMARK    2  A    between atoms: C_11  and  C_26
REMARK    3  A    between atoms: N_15  and  C_21
REMARK    4  A    between atoms: N_24  and  C_29
REMARK    5  A    between atoms: C_29  and  C_34
REMARK                            x       y       z     vdW  Elec       q    Type
REMARK                         _______ _______ _______ _____ _____    ______ ____
ROOT
ATOM      1  O   UNL     1      31.864 -22.019 -18.486  0.00  0.00    -0.473 OA
ATOM      2  N   UNL     1      33.254 -23.221 -16.075  0.00  0.00    -0.273 N 
ATOM      3  N   UNL     1      35.430 -22.862 -16.062  0.00  0.00    -0.385 NA
ATOM      4  C   UNL     1      34.303 -22.580 -16.705  0.00  0.00    +0.186 C 
ATOM      5  C   UNL     1      31.845 -23.202 -16.410  0.00  0.00    +0.141 C 
ATOM      6  C   UNL     1      34.243 -21.712 -17.899  0.00  0.00    +0.078 C 
ATOM      7  C   UNL     1      33.108 -21.492 -18.698  0.00  0.00    +0.142 C 
ATOM      8  C   UNL     1      35.100 -23.692 -15.027  0.00  0.00    +0.177 C 
ATOM      9  C   UNL     1      31.425 -21.943 -17.134  0.00  0.00    +0.227 C 
ATOM     10  C   UNL     1      33.753 -23.932 -15.015  0.00  0.00    +0.157 C 
ATOM     11  C   UNL     1      34.389 -20.106 -20.233  0.00  0.00    +0.006 C 
ATOM     12  C   UNL     1      33.194 -20.714 -19.866  0.00  0.00    +0.037 C 
ATOM     13  C   UNL     1      35.442 -21.079 -18.295  0.00  0.00    +0.007 C 
ATOM     14  C   UNL     1      35.514 -20.284 -19.443  0.00  0.00    +0.000 C 
ENDROOT
BRANCH   8  18
ATOM     15  N   UNL     1      37.372 -24.338 -14.322  0.00  0.00    -0.175 N 
ATOM     16  N   UNL     1      35.662 -24.698 -12.845  0.00  0.00    -0.334 NA
ATOM     17  N   UNL     1      37.813 -24.888 -13.181  0.00  0.00    -0.114 NA
ATOM     18  C   UNL     1      36.065 -24.242 -14.069  0.00  0.00    +0.241 C 
ATOM     19  C   UNL     1      36.791 -25.099 -12.308  0.00  0.00    +0.082 C 
ATOM     20  C   UNL     1      36.950 -25.683 -10.980  0.00  0.00    +0.131 C 
BRANCH  15  21
ATOM     21  C   UNL     1      38.214 -23.997 -15.429  0.00  0.00    +0.100 C 
ATOM     22  C   UNL     1      38.241 -22.486 -15.673  0.00  0.00    +0.024 C 
ATOM     23  C   UNL     1      39.632 -24.545 -15.249  0.00  0.00    +0.024 C 
ENDBRANCH  15  21
ENDBRANCH   8  18
BRANCH  11  26
ATOM     24  N   UNL     1      34.322 -17.585 -22.763  0.00  0.00    -0.205 N 
ATOM     25  N   UNL     1      34.766 -18.570 -23.561  0.00  0.00    -0.176 NA
ATOM     26  C   UNL     1      34.457 -19.302 -21.420  0.00  0.00    +0.037 C 
ATOM     27  C   UNL     1      34.121 -17.971 -21.470  0.00  0.00    +0.086 C 
ATOM     28  C   UNL     1      34.846 -19.617 -22.736  0.00  0.00    +0.119 C 
BRANCH  24  29
ATOM     29  C   UNL     1      34.105 -16.266 -23.306  0.00  0.00    +0.147 C 
ATOM     30  C   UNL     1      33.414 -15.278 -22.339  0.00  0.00    +0.031 C 
ATOM     31  C   UNL     1      35.481 -15.658 -23.662  0.00  0.00    +0.031 C 
BRANCH  29  34
ATOM     32  O   UNL     1      33.240 -15.474 -25.452  0.00  0.00    -0.274 OA
ATOM     33  N   UNL     1      32.443 -17.469 -24.663  0.00  0.00    -0.327 N 
ATOM     34  C   UNL     1      33.235 -16.342 -24.581  0.00  0.00    +0.237 C 
ATOM     35  H   UNL     1      31.855 -17.602 -25.442  0.00  0.00    +0.145 HD
ATOM     36  H   UNL     1      32.465 -18.140 -23.943  0.00  0.00    +0.145 HD
ENDBRANCH  29  34
ENDBRANCH  24  29
ENDBRANCH  11  26
TORSDOF 5
ENDMDL
