MODEL 1
REMARK VINA RESULT:     -11.1      0.000      0.000
REMARK  Name = 5362460
REMARK  6 active torsions:
REMARK  status: ('A' for Active; 'I' for Inactive)
REMARK    1  A    between atoms: C_12  and  O_21
REMARK    2  A    between atoms: C_18  and  O_30
REMARK    3  A    between atoms: O_21  and  C_23
REMARK    4  A    between atoms: C_23  and  C_25
REMARK    5  A    between atoms: O_30  and  C_32
REMARK    6  A    between atoms: C_32  and  C_34
REMARK                            x       y       z     vdW  Elec       q    Type
REMARK                         _______ _______ _______ _____ _____    ______ ____
ROOT
ATOM      1  O   UNL     1      33.793 -24.258 -14.941  0.00  0.00    -0.472 OA
ATOM      2  N   UNL     1      38.846 -25.426 -14.154  0.00  0.00    +0.387 N 
ATOM      3  C   UNL     1      36.217 -24.488 -14.952  0.00  0.00    +0.062 C 
ATOM      4  C   UNL     1      37.492 -23.654 -15.159  0.00  0.00    +0.011 C 
ATOM      5  C   UNL     1      38.457 -24.005 -13.981  0.00  0.00    -0.049 C 
ATOM      6  C   UNL     1      34.977 -24.129 -15.803  0.00  0.00    +0.214 C 
ATOM      7  C   UNL     1      36.571 -25.986 -15.014  0.00  0.00    -0.015 C 
ATOM      8  C   UNL     1      35.647 -24.148 -13.615  0.00  0.00    +0.014 C 
ATOM      9  C   UNL     1      37.853 -23.652 -12.578  0.00  0.00    +0.006 C 
ATOM     10  C   UNL     1      37.723 -26.365 -14.069  0.00  0.00    -0.077 C 
ATOM     11  C   UNL     1      36.361 -23.819 -12.477  0.00  0.00    -0.025 C 
ATOM     12  C   UNL     1      35.035 -22.725 -16.461  0.00  0.00    +0.231 C 
ATOM     13  C   UNL     1      37.179 -22.187 -15.301  0.00  0.00    -0.029 C 
ATOM     14  C   UNL     1      34.272 -24.095 -13.670  0.00  0.00    +0.169 C 
ATOM     15  C   UNL     1      36.043 -21.770 -15.880  0.00  0.00    +0.016 C 
ATOM     16  C   UNL     1      39.949 -25.835 -13.291  0.00  0.00    -0.101 C 
ATOM     17  C   UNL     1      35.629 -23.545 -11.321  0.00  0.00    -0.001 C 
ATOM     18  C   UNL     1      33.526 -23.836 -12.540  0.00  0.00    +0.182 C 
ATOM     19  C   UNL     1      34.219 -23.575 -11.351  0.00  0.00    +0.040 C 
ATOM     20  H   UNL     1      39.186 -25.472 -15.114  0.00  0.00    -0.080 HD
ENDROOT
BRANCH  12  21
ATOM     21  O   UNL     1      33.737 -22.135 -16.462  0.00  0.00    -0.441 OA
BRANCH  21  23
ATOM     22  O   UNL     1      32.112 -23.279 -17.625  0.00  0.00    -0.245 OA
ATOM     23  C   UNL     1      32.962 -22.404 -17.547  0.00  0.00    +0.343 C 
BRANCH  23  25
ATOM     24  N   UNL     1      34.936 -20.531 -20.105  0.00  0.00    -0.242 NA
ATOM     25  C   UNL     1      33.284 -21.479 -18.662  0.00  0.00    +0.095 C 
ATOM     26  C   UNL     1      32.282 -20.750 -19.257  0.00  0.00    +0.010 C 
ATOM     27  C   UNL     1      34.576 -21.354 -19.095  0.00  0.00    +0.105 C 
ATOM     28  C   UNL     1      32.612 -19.892 -20.299  0.00  0.00    +0.021 C 
ATOM     29  C   UNL     1      33.942 -19.819 -20.682  0.00  0.00    +0.099 C 
ENDBRANCH  23  25
ENDBRANCH  21  23
ENDBRANCH  12  21
BRANCH  18  30
ATOM     30  O   UNL     1      32.172 -23.799 -12.576  0.00  0.00    -0.418 OA
BRANCH  30  32
ATOM     31  O   UNL     1      32.069 -21.683 -13.549  0.00  0.00    -0.244 OA
ATOM     32  C   UNL     1      31.641 -22.820 -13.424  0.00  0.00    +0.347 C 
BRANCH  32  34
ATOM     33  N   UNL     1      28.900 -25.105 -14.529  0.00  0.00    -0.242 NA
ATOM     34  C   UNL     1      30.455 -23.329 -14.160  0.00  0.00    +0.095 C 
ATOM     35  C   UNL     1      29.845 -22.538 -15.103  0.00  0.00    +0.010 C 
ATOM     36  C   UNL     1      29.975 -24.583 -13.895  0.00  0.00    +0.105 C 
ATOM     37  C   UNL     1      28.737 -23.041 -15.776  0.00  0.00    +0.021 C 
ATOM     38  C   UNL     1      28.309 -24.319 -15.456  0.00  0.00    +0.099 C 
ENDBRANCH  32  34
ENDBRANCH  30  32
ENDBRANCH  18  30
TORSDOF 6
ENDMDL
MODEL 2
REMARK VINA RESULT:     -11.0      1.755      2.412
REMARK  Name = 5362460
REMARK  6 active torsions:
REMARK  status: ('A' for Active; 'I' for Inactive)
REMARK    1  A    between atoms: C_12  and  O_21
REMARK    2  A    between atoms: C_18  and  O_30
REMARK    3  A    between atoms: O_21  and  C_23
REMARK    4  A    between atoms: C_23  and  C_25
REMARK    5  A    between atoms: O_30  and  C_32
REMARK    6  A    between atoms: C_32  and  C_34
REMARK                            x       y       z     vdW  Elec       q    Type
REMARK                         _______ _______ _______ _____ _____    ______ ____
ROOT
ATOM      1  O   UNL     1      33.556 -23.461 -16.575  0.00  0.00    -0.472 OA
ATOM      2  N   UNL     1      37.093 -25.169 -13.097  0.00  0.00    +0.387 N 
ATOM      3  C   UNL     1      35.508 -23.957 -15.206  0.00  0.00    +0.062 C 
ATOM      4  C   UNL     1      36.743 -23.272 -14.601  0.00  0.00    +0.011 C 
ATOM      5  C   UNL     1      36.815 -23.712 -13.103  0.00  0.00    -0.049 C 
ATOM      6  C   UNL     1      35.026 -23.475 -16.594  0.00  0.00    +0.214 C 
ATOM      7  C   UNL     1      35.686 -25.486 -15.134  0.00  0.00    -0.015 C 
ATOM      8  C   UNL     1      34.309 -23.540 -14.422  0.00  0.00    +0.014 C 
ATOM      9  C   UNL     1      35.552 -23.277 -12.283  0.00  0.00    +0.006 C 
ATOM     10  C   UNL     1      36.040 -25.978 -13.721  0.00  0.00    -0.077 C 
ATOM     11  C   UNL     1      34.266 -23.277 -13.065  0.00  0.00    -0.025 C 
ATOM     12  C   UNL     1      35.588 -22.094 -17.024  0.00  0.00    +0.231 C 
ATOM     13  C   UNL     1      36.714 -21.781 -14.819  0.00  0.00    -0.029 C 
ATOM     14  C   UNL     1      33.229 -23.337 -15.252  0.00  0.00    +0.169 C 
ATOM     15  C   UNL     1      36.165 -21.248 -15.920  0.00  0.00    +0.016 C 
ATOM     16  C   UNL     1      37.452 -25.687 -11.782  0.00  0.00    -0.101 C 
ATOM     17  C   UNL     1      33.032 -22.910 -12.525  0.00  0.00    -0.001 C 
ATOM     18  C   UNL     1      31.999 -22.983 -14.742  0.00  0.00    +0.182 C 
ATOM     19  C   UNL     1      31.902 -22.785 -13.358  0.00  0.00    +0.040 C 
ATOM     20  H   UNL     1      37.917 -25.265 -13.690  0.00  0.00    -0.080 HD
ENDROOT
BRANCH  12  21
ATOM     21  O   UNL     1      34.592 -21.365 -17.738  0.00  0.00    -0.441 OA
BRANCH  21  23
ATOM     22  O   UNL     1      34.231 -22.672 -19.598  0.00  0.00    -0.245 OA
ATOM     23  C   UNL     1      34.521 -21.606 -19.074  0.00  0.00    +0.343 C 
BRANCH  23  25
ATOM     24  N   UNL     1      36.456 -18.707 -20.413  0.00  0.00    -0.242 NA
ATOM     25  C   UNL     1      34.849 -20.382 -19.846  0.00  0.00    +0.095 C 
ATOM     26  C   UNL     1      33.903 -19.815 -20.666  0.00  0.00    +0.010 C 
ATOM     27  C   UNL     1      36.093 -19.820 -19.739  0.00  0.00    +0.105 C 
ATOM     28  C   UNL     1      34.239 -18.669 -21.377  0.00  0.00    +0.021 C 
ATOM     29  C   UNL     1      35.517 -18.158 -21.217  0.00  0.00    +0.099 C 
ENDBRANCH  23  25
ENDBRANCH  21  23
ENDBRANCH  12  21
BRANCH  18  30
ATOM     30  O   UNL     1      30.924 -22.797 -15.546  0.00  0.00    -0.418 OA
BRANCH  30  32
ATOM     31  O   UNL     1      29.926 -24.744 -14.742  0.00  0.00    -0.244 OA
ATOM     32  C   UNL     1      29.847 -23.652 -15.282  0.00  0.00    +0.347 C 
BRANCH  32  34
ATOM     33  N   UNL     1      26.908 -22.945 -17.477  0.00  0.00    -0.242 NA
ATOM     34  C   UNL     1      28.567 -23.071 -15.761  0.00  0.00    +0.095 C 
ATOM     35  C   UNL     1      27.888 -22.170 -14.977  0.00  0.00    +0.010 C 
ATOM     36  C   UNL     1      28.067 -23.436 -16.983  0.00  0.00    +0.105 C 
ATOM     37  C   UNL     1      26.692 -21.644 -15.452  0.00  0.00    +0.021 C 
ATOM     38  C   UNL     1      26.250 -22.059 -16.697  0.00  0.00    +0.099 C 
ENDBRANCH  32  34
ENDBRANCH  30  32
ENDBRANCH  18  30
TORSDOF 6
ENDMDL
MODEL 3
REMARK VINA RESULT:      -8.5     16.602     21.133
REMARK  Name = 5362460
REMARK  6 active torsions:
REMARK  status: ('A' for Active; 'I' for Inactive)
REMARK    1  A    between atoms: C_12  and  O_21
REMARK    2  A    between atoms: C_18  and  O_30
REMARK    3  A    between atoms: O_21  and  C_23
REMARK    4  A    between atoms: C_23  and  C_25
REMARK    5  A    between atoms: O_30  and  C_32
REMARK    6  A    between atoms: C_32  and  C_34
REMARK                            x       y       z     vdW  Elec       q    Type
REMARK                         _______ _______ _______ _____ _____    ______ ____
ROOT
ATOM      1  O   UNL     1      31.286  -5.397 -24.808  0.00  0.00    -0.472 OA
ATOM      2  N   UNL     1      31.350  -8.925 -20.926  0.00  0.00    +0.387 N 
ATOM      3  C   UNL     1      31.787  -7.100 -23.142  0.00  0.00    +0.062 C 
ATOM      4  C   UNL     1      32.921  -7.560 -22.212  0.00  0.00    +0.011 C 
ATOM      5  C   UNL     1      32.286  -7.781 -20.801  0.00  0.00    -0.049 C 
ATOM      6  C   UNL     1      32.178  -6.531 -24.525  0.00  0.00    +0.214 C 
ATOM      7  C   UNL     1      30.720  -8.209 -23.232  0.00  0.00    -0.015 C 
ATOM      8  C   UNL     1      31.190  -5.856 -22.574  0.00  0.00    +0.014 C 
ATOM      9  C   UNL     1      31.656  -6.473 -20.209  0.00  0.00    +0.006 C 
ATOM     10  C   UNL     1      30.239  -8.685 -21.852  0.00  0.00    -0.077 C 
ATOM     11  C   UNL     1      31.051  -5.550 -21.232  0.00  0.00    -0.025 C 
ATOM     12  C   UNL     1      33.666  -6.110 -24.649  0.00  0.00    +0.231 C 
ATOM     13  C   UNL     1      34.083  -6.601 -22.237  0.00  0.00    -0.029 C 
ATOM     14  C   UNL     1      30.876  -4.964 -23.575  0.00  0.00    +0.169 C 
ATOM     15  C   UNL     1      34.405  -5.926 -23.350  0.00  0.00    +0.016 C 
ATOM     16  C   UNL     1      30.875  -9.429 -19.642  0.00  0.00    -0.101 C 
ATOM     17  C   UNL     1      30.451  -4.330 -20.915  0.00  0.00    -0.001 C 
ATOM     18  C   UNL     1      30.276  -3.758 -23.289  0.00  0.00    +0.182 C 
ATOM     19  C   UNL     1      30.048  -3.450 -21.940  0.00  0.00    +0.040 C 
ATOM     20  H   UNL     1      31.917  -9.662 -21.344  0.00  0.00    -0.080 HD
ENDROOT
BRANCH  12  21
ATOM     21  O   UNL     1      33.775  -4.938 -25.452  0.00  0.00    -0.441 OA
BRANCH  21  23
ATOM     22  O   UNL     1      33.266  -5.647 -27.582  0.00  0.00    -0.245 OA
ATOM     23  C   UNL     1      34.029  -5.142 -26.772  0.00  0.00    +0.343 C 
BRANCH  23  25
ATOM     24  N   UNL     1      37.244  -4.738 -28.630  0.00  0.00    -0.242 NA
ATOM     25  C   UNL     1      35.390  -4.664 -27.124  0.00  0.00    +0.095 C 
ATOM     26  C   UNL     1      36.025  -3.753 -26.315  0.00  0.00    +0.010 C 
ATOM     27  C   UNL     1      36.007  -5.132 -28.252  0.00  0.00    +0.105 C 
ATOM     28  C   UNL     1      37.299  -3.324 -26.669  0.00  0.00    +0.021 C 
ATOM     29  C   UNL     1      37.860  -3.842 -27.825  0.00  0.00    +0.099 C 
ENDBRANCH  23  25
ENDBRANCH  21  23
ENDBRANCH  12  21
BRANCH  18  30
ATOM     30  O   UNL     1      29.945  -2.879 -24.265  0.00  0.00    -0.418 OA
BRANCH  30  32
ATOM     31  O   UNL     1      32.003  -1.786 -24.245  0.00  0.00    -0.244 OA
ATOM     32  C   UNL     1      31.034  -2.221 -24.847  0.00  0.00    +0.347 C 
BRANCH  32  34
ATOM     33  N   UNL     1      29.395  -1.786 -28.175  0.00  0.00    -0.242 NA
ATOM     34  C   UNL     1      30.866  -2.092 -26.317  0.00  0.00    +0.095 C 
ATOM     35  C   UNL     1      31.965  -2.157 -27.140  0.00  0.00    +0.010 C 
ATOM     36  C   UNL     1      29.617  -1.910 -26.847  0.00  0.00    +0.105 C 
ATOM     37  C   UNL     1      31.776  -2.033 -28.512  0.00  0.00    +0.021 C 
ATOM     38  C   UNL     1      30.483  -1.852 -28.975  0.00  0.00    +0.099 C 
ENDBRANCH  32  34
ENDBRANCH  30  32
ENDBRANCH  18  30
TORSDOF 6
ENDMDL
MODEL 4
REMARK VINA RESULT:      -8.2     13.253     18.307
REMARK  Name = 5362460
REMARK  6 active torsions:
REMARK  status: ('A' for Active; 'I' for Inactive)
REMARK    1  A    between atoms: C_12  and  O_21
REMARK    2  A    between atoms: C_18  and  O_30
REMARK    3  A    between atoms: O_21  and  C_23
REMARK    4  A    between atoms: C_23  and  C_25
REMARK    5  A    between atoms: O_30  and  C_32
REMARK    6  A    between atoms: C_32  and  C_34
REMARK                            x       y       z     vdW  Elec       q    Type
REMARK                         _______ _______ _______ _____ _____    ______ ____
ROOT
ATOM      1  O   UNL     1      30.991  -7.680 -23.843  0.00  0.00    -0.472 OA
ATOM      2  N   UNL     1      33.550  -4.585 -27.218  0.00  0.00    +0.387 N 
ATOM      3  C   UNL     1      31.978  -5.875 -25.146  0.00  0.00    +0.062 C 
ATOM      4  C   UNL     1      32.587  -4.475 -24.972  0.00  0.00    +0.011 C 
ATOM      5  C   UNL     1      33.920  -4.458 -25.786  0.00  0.00    -0.049 C 
ATOM      6  C   UNL     1      30.806  -6.271 -24.218  0.00  0.00    +0.214 C 
ATOM      7  C   UNL     1      31.666  -6.114 -26.637  0.00  0.00    -0.015 C 
ATOM      8  C   UNL     1      32.967  -6.882 -24.659  0.00  0.00    +0.014 C 
ATOM      9  C   UNL     1      34.955  -5.519 -25.276  0.00  0.00    +0.006 C 
ATOM     10  C   UNL     1      32.874  -5.843 -27.548  0.00  0.00    -0.077 C 
ATOM     11  C   UNL     1      34.344  -6.791 -24.753  0.00  0.00    -0.025 C 
ATOM     12  C   UNL     1      30.655  -5.376 -22.959  0.00  0.00    +0.231 C 
ATOM     13  C   UNL     1      32.732  -4.110 -23.517  0.00  0.00    -0.029 C 
ATOM     14  C   UNL     1      32.334  -7.902 -23.985  0.00  0.00    +0.169 C 
ATOM     15  C   UNL     1      31.856  -4.543 -22.599  0.00  0.00    +0.016 C 
ATOM     16  C   UNL     1      34.658  -4.320 -28.129  0.00  0.00    -0.101 C 
ATOM     17  C   UNL     1      35.089  -7.854 -24.240  0.00  0.00    -0.001 C 
ATOM     18  C   UNL     1      33.047  -8.967 -23.478  0.00  0.00    +0.182 C 
ATOM     19  C   UNL     1      34.440  -8.944 -23.626  0.00  0.00    +0.040 C 
ATOM     20  H   UNL     1      32.864  -3.844 -27.360  0.00  0.00    -0.080 HD
ENDROOT
BRANCH  12  21
ATOM     21  O   UNL     1      30.249  -6.169 -21.845  0.00  0.00    -0.441 OA
BRANCH  21  23
ATOM     22  O   UNL     1      31.608  -5.126 -20.307  0.00  0.00    -0.245 OA
ATOM     23  C   UNL     1      31.061  -6.123 -20.756  0.00  0.00    +0.343 C 
BRANCH  23  25
ATOM     24  N   UNL     1      32.227  -8.859 -18.497  0.00  0.00    -0.242 NA
ATOM     25  C   UNL     1      31.209  -7.473 -20.156  0.00  0.00    +0.095 C 
ATOM     26  C   UNL     1      30.505  -8.534 -20.674  0.00  0.00    +0.010 C 
ATOM     27  C   UNL     1      32.046  -7.658 -19.089  0.00  0.00    +0.105 C 
ATOM     28  C   UNL     1      30.664  -9.786 -20.093  0.00  0.00    +0.021 C 
ATOM     29  C   UNL     1      31.530  -9.895 -19.016  0.00  0.00    +0.099 C 
ENDBRANCH  23  25
ENDBRANCH  21  23
ENDBRANCH  12  21
BRANCH  18  30
ATOM     30  O   UNL     1      32.435  -9.986 -22.829  0.00  0.00    -0.418 OA
BRANCH  30  32
ATOM     31  O   UNL     1      32.640 -11.467 -24.618  0.00  0.00    -0.244 OA
ATOM     32  C   UNL     1      32.618 -11.242 -23.417  0.00  0.00    +0.347 C 
BRANCH  32  34
ATOM     33  N   UNL     1      34.025 -14.157 -21.551  0.00  0.00    -0.242 NA
ATOM     34  C   UNL     1      32.770 -12.304 -22.389  0.00  0.00    +0.095 C 
ATOM     35  C   UNL     1      31.849 -12.411 -21.376  0.00  0.00    +0.010 C 
ATOM     36  C   UNL     1      33.828 -13.170 -22.455  0.00  0.00    +0.105 C 
ATOM     37  C   UNL     1      32.017 -13.415 -20.428  0.00  0.00    +0.021 C 
ATOM     38  C   UNL     1      33.112 -14.254 -20.560  0.00  0.00    +0.099 C 
ENDBRANCH  32  34
ENDBRANCH  30  32
ENDBRANCH  18  30
TORSDOF 6
ENDMDL
