MODEL 1
REMARK VINA RESULT:     -11.3      0.000      0.000
REMARK  Name = 54693872
REMARK  4 active torsions:
REMARK  status: ('A' for Active; 'I' for Inactive)
REMARK    1  A    between atoms: C_3  and  C_14
REMARK    2  A    between atoms: C_4  and  O_12
REMARK    3  A    between atoms: C_14  and  C_16
REMARK    4  A    between atoms: C_14  and  C_22
REMARK                            x       y       z     vdW  Elec       q    Type
REMARK                         _______ _______ _______ _____ _____    ______ ____
ROOT
ATOM      1  O   UNL     1      36.579 -19.611 -19.826  0.00  0.00    -0.421 OA
ATOM      2  O   UNL     1      37.236 -18.122 -21.415  0.00  0.00    -0.245 OA
ATOM      3  C   UNL     1      34.965 -18.829 -21.513  0.00  0.00    +0.091 A 
ATOM      4  C   UNL     1      34.006 -19.594 -20.958  0.00  0.00    +0.139 A 
ATOM      5  C   UNL     1      36.342 -18.812 -20.936  0.00  0.00    +0.345 A 
ATOM      6  C   UNL     1      34.291 -20.426 -19.786  0.00  0.00    +0.068 A 
ATOM      7  C   UNL     1      35.575 -20.409 -19.254  0.00  0.00    +0.152 A 
ATOM      8  C   UNL     1      33.335 -21.243 -19.167  0.00  0.00    +0.006 C 
ATOM      9  C   UNL     1      35.929 -21.172 -18.139  0.00  0.00    +0.038 C 
ATOM     10  C   UNL     1      33.674 -22.015 -18.049  0.00  0.00    +0.000 C 
ATOM     11  C   UNL     1      34.970 -21.978 -17.537  0.00  0.00    +0.003 C 
ENDROOT
BRANCH   4  12
ATOM     12  O   UNL     1      32.707 -19.671 -21.412  0.00  0.00    -0.506 OA
ATOM     13  H   UNL     1      32.439 -19.165 -22.154  0.00  0.00    +0.292 HD
ENDBRANCH   4  12
BRANCH   3  14
ATOM     14  C   UNL     1      34.793 -17.947 -22.720  0.00  0.00    +0.054 C 
BRANCH  14  16
ATOM     15 BR   UNL     1      33.275 -12.210 -20.920  0.00  0.00    -0.049 Br
ATOM     16  C   UNL     1      34.422 -16.539 -22.278  0.00  0.00    -0.018 C 
ATOM     17  C   UNL     1      34.200 -16.267 -20.928  0.00  0.00    -0.003 C 
ATOM     18  C   UNL     1      34.300 -15.521 -23.224  0.00  0.00    -0.003 C 
ATOM     19  C   UNL     1      33.859 -14.977 -20.523  0.00  0.00    +0.006 C 
ATOM     20  C   UNL     1      33.959 -14.230 -22.819  0.00  0.00    +0.006 C 
ATOM     21  C   UNL     1      33.738 -13.958 -21.469  0.00  0.00    +0.035 C 
ENDBRANCH  14  16
BRANCH  14  22
ATOM     22  C   UNL     1      33.802 -18.548 -23.763  0.00  0.00    +0.008 C 
ATOM     23  C   UNL     1      34.427 -19.723 -24.531  0.00  0.00    +0.001 C 
ATOM     24  C   UNL     1      33.340 -17.493 -24.780  0.00  0.00    +0.001 C 
ENDBRANCH  14  22
ENDBRANCH   3  14
TORSDOF 4
ENDMDL
MODEL 2
REMARK VINA RESULT:      -8.8      9.918     13.110
REMARK  Name = 54693872
REMARK  4 active torsions:
REMARK  status: ('A' for Active; 'I' for Inactive)
REMARK    1  A    between atoms: C_3  and  C_14
REMARK    2  A    between atoms: C_4  and  O_12
REMARK    3  A    between atoms: C_14  and  C_16
REMARK    4  A    between atoms: C_14  and  C_22
REMARK                            x       y       z     vdW  Elec       q    Type
REMARK                         _______ _______ _______ _____ _____    ______ ____
ROOT
ATOM      1  O   UNL     1      30.416  -8.406 -22.974  0.00  0.00    -0.421 OA
ATOM      2  O   UNL     1      30.069  -6.972 -24.705  0.00  0.00    -0.245 OA
ATOM      3  C   UNL     1      31.085  -6.046 -22.762  0.00  0.00    +0.091 A 
ATOM      4  C   UNL     1      31.538  -6.280 -21.516  0.00  0.00    +0.139 A 
ATOM      5  C   UNL     1      30.486  -7.152 -23.566  0.00  0.00    +0.345 A 
ATOM      6  C   UNL     1      31.448  -7.617 -20.922  0.00  0.00    +0.068 A 
ATOM      7  C   UNL     1      30.886  -8.643 -21.672  0.00  0.00    +0.152 A 
ATOM      8  C   UNL     1      31.900  -7.921 -19.630  0.00  0.00    +0.006 C 
ATOM      9  C   UNL     1      30.763  -9.944 -21.181  0.00  0.00    +0.038 C 
ATOM     10  C   UNL     1      31.784  -9.220 -19.122  0.00  0.00    +0.000 C 
ATOM     11  C   UNL     1      31.215 -10.230 -19.897  0.00  0.00    +0.003 C 
ENDROOT
BRANCH   4  12
ATOM     12  O   UNL     1      32.113  -5.329 -20.700  0.00  0.00    -0.506 OA
ATOM     13  H   UNL     1      31.727  -4.478 -20.629  0.00  0.00    +0.292 HD
ENDBRANCH   4  12
BRANCH   3  14
ATOM     14  C   UNL     1      31.113  -4.718 -23.469  0.00  0.00    +0.054 C 
BRANCH  14  16
ATOM     15 BR   UNL     1      35.860  -4.567 -27.457  0.00  0.00    -0.049 Br
ATOM     16  C   UNL     1      32.278  -4.682 -24.448  0.00  0.00    -0.018 C 
ATOM     17  C   UNL     1      33.583  -4.855 -23.986  0.00  0.00    -0.003 C 
ATOM     18  C   UNL     1      32.041  -4.473 -25.806  0.00  0.00    -0.003 C 
ATOM     19  C   UNL     1      34.650  -4.821 -24.883  0.00  0.00    +0.006 C 
ATOM     20  C   UNL     1      33.109  -4.440 -26.704  0.00  0.00    +0.006 C 
ATOM     21  C   UNL     1      34.413  -4.613 -26.242  0.00  0.00    +0.035 C 
ENDBRANCH  14  16
BRANCH  14  22
ATOM     22  C   UNL     1      31.102  -3.514 -22.478  0.00  0.00    +0.008 C 
ATOM     23  C   UNL     1      29.740  -3.358 -21.786  0.00  0.00    +0.001 C 
ATOM     24  C   UNL     1      31.440  -2.193 -23.187  0.00  0.00    +0.001 C 
ENDBRANCH  14  22
ENDBRANCH   3  14
TORSDOF 4
ENDMDL
MODEL 3
REMARK VINA RESULT:      -8.7      0.723      2.102
REMARK  Name = 54693872
REMARK  4 active torsions:
REMARK  status: ('A' for Active; 'I' for Inactive)
REMARK    1  A    between atoms: C_3  and  C_14
REMARK    2  A    between atoms: C_4  and  O_12
REMARK    3  A    between atoms: C_14  and  C_16
REMARK    4  A    between atoms: C_14  and  C_22
REMARK                            x       y       z     vdW  Elec       q    Type
REMARK                         _______ _______ _______ _____ _____    ______ ____
ROOT
ATOM      1  O   UNL     1      32.960 -20.651 -19.976  0.00  0.00    -0.421 OA
ATOM      2  O   UNL     1      32.240 -19.588 -21.855  0.00  0.00    -0.245 OA
ATOM      3  C   UNL     1      34.553 -19.360 -21.340  0.00  0.00    +0.091 A 
ATOM      4  C   UNL     1      35.548 -19.683 -20.492  0.00  0.00    +0.139 A 
ATOM      5  C   UNL     1      33.167 -19.859 -21.098  0.00  0.00    +0.345 A 
ATOM      6  C   UNL     1      35.294 -20.521 -19.317  0.00  0.00    +0.068 A 
ATOM      7  C   UNL     1      34.001 -20.980 -19.094  0.00  0.00    +0.152 A 
ATOM      8  C   UNL     1      36.288 -20.888 -18.399  0.00  0.00    +0.006 C 
ATOM      9  C   UNL     1      33.674 -21.782 -17.999  0.00  0.00    +0.038 C 
ATOM     10  C   UNL     1      35.977 -21.690 -17.295  0.00  0.00    +0.000 C 
ATOM     11  C   UNL     1      34.671 -22.137 -17.096  0.00  0.00    +0.003 C 
ENDROOT
BRANCH   4  12
ATOM     12  O   UNL     1      36.859 -19.279 -20.634  0.00  0.00    -0.506 OA
ATOM     13  H   UNL     1      37.519 -19.904 -20.860  0.00  0.00    +0.292 HD
ENDBRANCH   4  12
BRANCH   3  14
ATOM     14  C   UNL     1      34.692 -18.502 -22.568  0.00  0.00    +0.054 C 
BRANCH  14  16
ATOM     15 BR   UNL     1      33.632 -12.569 -21.107  0.00  0.00    -0.049 Br
ATOM     16  C   UNL     1      34.433 -17.046 -22.209  0.00  0.00    -0.018 C 
ATOM     17  C   UNL     1      34.289 -16.672 -20.873  0.00  0.00    -0.003 C 
ATOM     18  C   UNL     1      34.337 -16.086 -23.216  0.00  0.00    -0.003 C 
ATOM     19  C   UNL     1      34.051 -15.338 -20.544  0.00  0.00    +0.006 C 
ATOM     20  C   UNL     1      34.099 -14.751 -22.888  0.00  0.00    +0.006 C 
ATOM     21  C   UNL     1      33.955 -14.377 -21.552  0.00  0.00    +0.035 C 
ENDBRANCH  14  16
BRANCH  14  22
ATOM     22  C   UNL     1      33.817 -19.011 -23.754  0.00  0.00    +0.008 C 
ATOM     23  C   UNL     1      34.564 -20.042 -24.612  0.00  0.00    +0.001 C 
ATOM     24  C   UNL     1      33.367 -17.856 -24.663  0.00  0.00    +0.001 C 
ENDBRANCH  14  22
ENDBRANCH   3  14
TORSDOF 4
ENDMDL
MODEL 4
REMARK VINA RESULT:      -8.5      5.078      8.145
REMARK  Name = 54693872
REMARK  4 active torsions:
REMARK  status: ('A' for Active; 'I' for Inactive)
REMARK    1  A    between atoms: C_3  and  C_14
REMARK    2  A    between atoms: C_4  and  O_12
REMARK    3  A    between atoms: C_14  and  C_16
REMARK    4  A    between atoms: C_14  and  C_22
REMARK                            x       y       z     vdW  Elec       q    Type
REMARK                         _______ _______ _______ _____ _____    ______ ____
ROOT
ATOM      1  O   UNL     1      37.048 -22.539 -14.295  0.00  0.00    -0.421 OA
ATOM      2  O   UNL     1      35.245 -21.279 -14.877  0.00  0.00    -0.245 OA
ATOM      3  C   UNL     1      35.043 -23.625 -15.224  0.00  0.00    +0.091 A 
ATOM      4  C   UNL     1      35.637 -24.828 -15.115  0.00  0.00    +0.139 A 
ATOM      5  C   UNL     1      35.761 -22.389 -14.795  0.00  0.00    +0.345 A 
ATOM      6  C   UNL     1      36.997 -24.950 -14.582  0.00  0.00    +0.068 A 
ATOM      7  C   UNL     1      37.663 -23.796 -14.187  0.00  0.00    +0.152 A 
ATOM      8  C   UNL     1      37.667 -26.174 -14.447  0.00  0.00    +0.006 C 
ATOM      9  C   UNL     1      38.960 -23.825 -13.670  0.00  0.00    +0.038 C 
ATOM     10  C   UNL     1      38.967 -26.221 -13.930  0.00  0.00    +0.000 C 
ATOM     11  C   UNL     1      39.612 -25.047 -13.543  0.00  0.00    +0.003 C 
ENDROOT
BRANCH   4  12
ATOM     12  O   UNL     1      35.054 -26.024 -15.476  0.00  0.00    -0.506 OA
ATOM     13  H   UNL     1      35.591 -26.763 -15.682  0.00  0.00    +0.292 HD
ENDBRANCH   4  12
BRANCH   3  14
ATOM     14  C   UNL     1      33.661 -23.376 -15.765  0.00  0.00    +0.054 C 
BRANCH  14  16
ATOM     15 BR   UNL     1      34.006 -19.868 -20.867  0.00  0.00    -0.049 Br
ATOM     16  C   UNL     1      33.746 -22.516 -17.018  0.00  0.00    -0.018 C 
ATOM     17  C   UNL     1      34.990 -22.123 -17.511  0.00  0.00    -0.003 C 
ATOM     18  C   UNL     1      32.579 -22.120 -17.672  0.00  0.00    -0.003 C 
ATOM     19  C   UNL     1      35.067 -21.334 -18.658  0.00  0.00    +0.006 C 
ATOM     20  C   UNL     1      32.656 -21.331 -18.820  0.00  0.00    +0.006 C 
ATOM     21  C   UNL     1      33.901 -20.938 -19.313  0.00  0.00    +0.035 C 
ENDBRANCH  14  16
BRANCH  14  22
ATOM     22  C   UNL     1      32.692 -22.801 -14.686  0.00  0.00    +0.008 C 
ATOM     23  C   UNL     1      32.836 -23.534 -13.343  0.00  0.00    +0.001 C 
ATOM     24  C   UNL     1      31.226 -22.891 -15.135  0.00  0.00    +0.001 C 
ENDBRANCH  14  22
ENDBRANCH   3  14
TORSDOF 4
ENDMDL
MODEL 5
REMARK VINA RESULT:      -8.3      5.202      8.156
REMARK  Name = 54693872
REMARK  4 active torsions:
REMARK  status: ('A' for Active; 'I' for Inactive)
REMARK    1  A    between atoms: C_3  and  C_14
REMARK    2  A    between atoms: C_4  and  O_12
REMARK    3  A    between atoms: C_14  and  C_16
REMARK    4  A    between atoms: C_14  and  C_22
REMARK                            x       y       z     vdW  Elec       q    Type
REMARK                         _______ _______ _______ _____ _____    ______ ____
ROOT
ATOM      1  O   UNL     1      36.157 -25.423 -14.387  0.00  0.00    -0.421 OA
ATOM      2  O   UNL     1      34.724 -25.844 -16.103  0.00  0.00    -0.245 OA
ATOM      3  C   UNL     1      34.624 -23.660 -15.163  0.00  0.00    +0.091 A 
ATOM      4  C   UNL     1      35.122 -22.813 -14.241  0.00  0.00    +0.139 A 
ATOM      5  C   UNL     1      35.152 -25.051 -15.270  0.00  0.00    +0.345 A 
ATOM      6  C   UNL     1      36.182 -23.239 -13.324  0.00  0.00    +0.068 A 
ATOM      7  C   UNL     1      36.669 -24.537 -13.425  0.00  0.00    +0.152 A 
ATOM      8  C   UNL     1      36.738 -22.404 -12.344  0.00  0.00    +0.006 C 
ATOM      9  C   UNL     1      37.677 -25.021 -12.590  0.00  0.00    +0.038 C 
ATOM     10  C   UNL     1      37.749 -22.874 -11.498  0.00  0.00    +0.000 C 
ATOM     11  C   UNL     1      38.218 -24.182 -11.622  0.00  0.00    +0.003 C 
ENDROOT
BRANCH   4  12
ATOM     12  O   UNL     1      34.706 -21.510 -14.071  0.00  0.00    -0.506 OA
ATOM     13  H   UNL     1      33.944 -21.325 -13.558  0.00  0.00    +0.292 HD
ENDBRANCH   4  12
BRANCH   3  14
ATOM     14  C   UNL     1      33.531 -23.339 -16.147  0.00  0.00    +0.054 C 
BRANCH  14  16
ATOM     15 BR   UNL     1      35.747 -19.654 -20.615  0.00  0.00    -0.049 Br
ATOM     16  C   UNL     1      34.075 -22.436 -17.244  0.00  0.00    -0.018 C 
ATOM     17  C   UNL     1      35.399 -21.998 -17.194  0.00  0.00    -0.003 C 
ATOM     18  C   UNL     1      33.250 -22.044 -18.298  0.00  0.00    -0.003 C 
ATOM     19  C   UNL     1      35.897 -21.169 -18.199  0.00  0.00    +0.006 C 
ATOM     20  C   UNL     1      33.748 -21.215 -19.303  0.00  0.00    +0.006 C 
ATOM     21  C   UNL     1      35.072 -20.778 -19.254  0.00  0.00    +0.035 C 
ENDBRANCH  14  16
BRANCH  14  22
ATOM     22  C   UNL     1      32.254 -22.771 -15.456  0.00  0.00    +0.008 C 
ATOM     23  C   UNL     1      31.860 -23.595 -14.221  0.00  0.00    +0.001 C 
ATOM     24  C   UNL     1      31.057 -22.735 -16.418  0.00  0.00    +0.001 C 
ENDBRANCH  14  22
ENDBRANCH   3  14
TORSDOF 4
ENDMDL
