MODEL 1
REMARK VINA RESULT:     -11.5      0.000      0.000
REMARK  Name = 71059746
REMARK  1 active torsions:
REMARK  status: ('A' for Active; 'I' for Inactive)
REMARK    1  A    between atoms: C_8  and  C_17
REMARK                            x       y       z     vdW  Elec       q    Type
REMARK                         _______ _______ _______ _____ _____    ______ ____
ROOT
ATOM      1  N   UNL     1      32.067 -21.483 -18.557  0.00  0.00    -0.353 N 
ATOM      2  N   UNL     1      34.128 -23.619 -15.724  0.00  0.00    -0.242 NA
ATOM      3  C   UNL     1      34.282 -21.246 -18.670  0.00  0.00    +0.018 A 
ATOM      4  C   UNL     1      33.075 -20.859 -19.254  0.00  0.00    +0.057 A 
ATOM      5  C   UNL     1      33.968 -22.133 -17.591  0.00  0.00    +0.036 A 
ATOM      6  C   UNL     1      32.581 -22.261 -17.546  0.00  0.00    +0.060 A 
ATOM      7  C   UNL     1      33.009 -19.988 -20.347  0.00  0.00    +0.017 C 
ATOM      8  C   UNL     1      34.213 -19.498 -20.860  0.00  0.00    +0.003 C 
ATOM      9  C   UNL     1      35.484 -20.738 -19.205  0.00  0.00    +0.002 C 
ATOM     10  C   UNL     1      35.433 -19.866 -20.298  0.00  0.00    +0.000 C 
ATOM     11  C   UNL     1      34.730 -22.836 -16.651  0.00  0.00    +0.100 C 
ATOM     12  C   UNL     1      31.933 -23.057 -16.607  0.00  0.00    +0.038 C 
ATOM     13  C   UNL     1      32.778 -23.709 -15.724  0.00  0.00    +0.100 C 
ATOM     14  H   UNL     1      31.108 -21.388 -18.756  0.00  0.00    +0.166 HD
ENDROOT
BRANCH   8  17
ATOM     15  F   UNL     1      34.184 -15.963 -25.097  0.00  0.00    -0.183 F 
ATOM     16  N   UNL     1      34.741 -16.427 -22.911  0.00  0.00    -0.216 NA
ATOM     17  C   UNL     1      34.190 -18.593 -21.989  0.00  0.00    +0.019 C 
ATOM     18  C   UNL     1      33.626 -18.973 -23.202  0.00  0.00    +0.005 C 
ATOM     19  C   UNL     1      34.729 -17.321 -21.896  0.00  0.00    +0.101 C 
ATOM     20  C   UNL     1      33.619 -18.083 -24.269  0.00  0.00    +0.050 C 
ATOM     21  C   UNL     1      34.184 -16.833 -24.075  0.00  0.00    +0.222 C 
ENDBRANCH   8  17
TORSDOF 1
ENDMDL
MODEL 2
REMARK VINA RESULT:     -11.3      3.398      8.408
REMARK  Name = 71059746
REMARK  1 active torsions:
REMARK  status: ('A' for Active; 'I' for Inactive)
REMARK    1  A    between atoms: C_8  and  C_17
REMARK                            x       y       z     vdW  Elec       q    Type
REMARK                         _______ _______ _______ _____ _____    ______ ____
ROOT
ATOM      1  N   UNL     1      33.986 -14.098 -22.051  0.00  0.00    -0.353 N 
ATOM      2  N   UNL     1      32.794 -12.786 -25.752  0.00  0.00    -0.242 NA
ATOM      3  C   UNL     1      33.760 -15.720 -23.564  0.00  0.00    +0.018 A 
ATOM      4  C   UNL     1      34.100 -15.455 -22.236  0.00  0.00    +0.057 A 
ATOM      5  C   UNL     1      33.437 -14.470 -24.179  0.00  0.00    +0.036 A 
ATOM      6  C   UNL     1      33.588 -13.477 -23.212  0.00  0.00    +0.060 A 
ATOM      7  C   UNL     1      34.473 -16.459 -21.336  0.00  0.00    +0.017 C 
ATOM      8  C   UNL     1      34.501 -17.775 -21.806  0.00  0.00    +0.003 C 
ATOM      9  C   UNL     1      33.796 -17.057 -24.015  0.00  0.00    +0.002 C 
ATOM     10  C   UNL     1      34.168 -18.071 -23.126  0.00  0.00    +0.000 C 
ATOM     11  C   UNL     1      33.032 -14.088 -25.464  0.00  0.00    +0.100 C 
ATOM     12  C   UNL     1      33.351 -12.132 -23.477  0.00  0.00    +0.038 C 
ATOM     13  C   UNL     1      32.955 -11.862 -24.777  0.00  0.00    +0.100 C 
ATOM     14  H   UNL     1      34.168 -13.632 -21.203  0.00  0.00    +0.166 HD
ENDROOT
BRANCH   8  17
ATOM     15  F   UNL     1      36.064 -21.802 -18.373  0.00  0.00    -0.183 F 
ATOM     16  N   UNL     1      36.591 -19.905 -19.567  0.00  0.00    -0.216 NA
ATOM     17  C   UNL     1      34.881 -18.844 -20.907  0.00  0.00    +0.019 C 
ATOM     18  C   UNL     1      33.963 -19.812 -20.516  0.00  0.00    +0.005 C 
ATOM     19  C   UNL     1      36.170 -18.934 -20.409  0.00  0.00    +0.101 C 
ATOM     20  C   UNL     1      34.357 -20.827 -19.651  0.00  0.00    +0.050 C 
ATOM     21  C   UNL     1      35.670 -20.828 -19.209  0.00  0.00    +0.222 C 
ENDBRANCH   8  17
TORSDOF 1
ENDMDL
MODEL 3
REMARK VINA RESULT:     -11.2      1.228      2.090
REMARK  Name = 71059746
REMARK  1 active torsions:
REMARK  status: ('A' for Active; 'I' for Inactive)
REMARK    1  A    between atoms: C_8  and  C_17
REMARK                            x       y       z     vdW  Elec       q    Type
REMARK                         _______ _______ _______ _____ _____    ______ ____
ROOT
ATOM      1  N   UNL     1      36.386 -20.870 -18.081  0.00  0.00    -0.353 N 
ATOM      2  N   UNL     1      34.505 -23.522 -15.578  0.00  0.00    -0.242 NA
ATOM      3  C   UNL     1      34.244 -21.234 -18.583  0.00  0.00    +0.018 A 
ATOM      4  C   UNL     1      35.386 -20.528 -18.960  0.00  0.00    +0.057 A 
ATOM      5  C   UNL     1      34.588 -22.019 -17.437  0.00  0.00    +0.036 A 
ATOM      6  C   UNL     1      35.929 -21.771 -17.148  0.00  0.00    +0.060 A 
ATOM      7  C   UNL     1      35.408 -19.654 -20.053  0.00  0.00    +0.017 C 
ATOM      8  C   UNL     1      34.226 -19.496 -20.782  0.00  0.00    +0.003 C 
ATOM      9  C   UNL     1      33.062 -21.058 -19.334  0.00  0.00    +0.002 C 
ATOM     10  C   UNL     1      33.069 -20.187 -20.428  0.00  0.00    +0.000 C 
ATOM     11  C   UNL     1      33.888 -22.915 -16.620  0.00  0.00    +0.100 C 
ATOM     12  C   UNL     1      36.590 -22.378 -16.085  0.00  0.00    +0.038 C 
ATOM     13  C   UNL     1      35.808 -23.246 -15.340  0.00  0.00    +0.100 C 
ATOM     14  H   UNL     1      37.305 -20.517 -18.114  0.00  0.00    +0.166 HD
ENDROOT
BRANCH   8  17
ATOM     15  F   UNL     1      34.205 -16.002 -25.053  0.00  0.00    -0.183 F 
ATOM     16  N   UNL     1      34.745 -16.440 -22.857  0.00  0.00    -0.216 NA
ATOM     17  C   UNL     1      34.205 -18.602 -21.920  0.00  0.00    +0.019 C 
ATOM     18  C   UNL     1      33.657 -19.000 -23.135  0.00  0.00    +0.005 C 
ATOM     19  C   UNL     1      34.731 -17.324 -21.834  0.00  0.00    +0.101 C 
ATOM     20  C   UNL     1      33.652 -18.119 -24.210  0.00  0.00    +0.050 C 
ATOM     21  C   UNL     1      34.203 -16.863 -24.022  0.00  0.00    +0.222 C 
ENDBRANCH   8  17
TORSDOF 1
ENDMDL
MODEL 4
REMARK VINA RESULT:     -11.1      1.919      3.284
REMARK  Name = 71059746
REMARK  1 active torsions:
REMARK  status: ('A' for Active; 'I' for Inactive)
REMARK    1  A    between atoms: C_8  and  C_17
REMARK                            x       y       z     vdW  Elec       q    Type
REMARK                         _______ _______ _______ _____ _____    ______ ____
ROOT
ATOM      1  N   UNL     1      37.006 -21.952 -16.406  0.00  0.00    -0.353 N 
ATOM      2  N   UNL     1      35.016 -24.515 -13.894  0.00  0.00    -0.242 NA
ATOM      3  C   UNL     1      34.881 -22.317 -16.974  0.00  0.00    +0.018 A 
ATOM      4  C   UNL     1      36.041 -21.630 -17.331  0.00  0.00    +0.057 A 
ATOM      5  C   UNL     1      35.177 -23.070 -15.794  0.00  0.00    +0.036 A 
ATOM      6  C   UNL     1      36.509 -22.821 -15.464  0.00  0.00    +0.060 A 
ATOM      7  C   UNL     1      36.109 -20.789 -18.448  0.00  0.00    +0.017 C 
ATOM      8  C   UNL     1      34.955 -20.646 -19.223  0.00  0.00    +0.003 C 
ATOM      9  C   UNL     1      33.728 -22.157 -17.773  0.00  0.00    +0.002 C 
ATOM     10  C   UNL     1      33.781 -21.319 -18.891  0.00  0.00    +0.000 C 
ATOM     11  C   UNL     1      34.442 -23.936 -14.976  0.00  0.00    +0.100 C 
ATOM     12  C   UNL     1      37.127 -23.400 -14.360  0.00  0.00    +0.038 C 
ATOM     13  C   UNL     1      36.312 -24.240 -13.618  0.00  0.00    +0.100 C 
ATOM     14  H   UNL     1      37.928 -21.606 -16.416  0.00  0.00    +0.166 HD
ENDROOT
BRANCH   8  17
ATOM     15  F   UNL     1      34.941 -17.404 -23.689  0.00  0.00    -0.183 F 
ATOM     16  N   UNL     1      33.847 -18.913 -22.336  0.00  0.00    -0.216 NA
ATOM     17  C   UNL     1      34.982 -19.786 -20.388  0.00  0.00    +0.019 C 
ATOM     18  C   UNL     1      36.105 -19.025 -20.692  0.00  0.00    +0.005 C 
ATOM     19  C   UNL     1      33.889 -19.695 -21.233  0.00  0.00    +0.101 C 
ATOM     20  C   UNL     1      36.101 -18.209 -21.817  0.00  0.00    +0.050 C 
ATOM     21  C   UNL     1      34.958 -18.188 -22.599  0.00  0.00    +0.222 C 
ENDBRANCH   8  17
TORSDOF 1
ENDMDL
MODEL 5
REMARK VINA RESULT:     -11.0      1.359      2.073
REMARK  Name = 71059746
REMARK  1 active torsions:
REMARK  status: ('A' for Active; 'I' for Inactive)
REMARK    1  A    between atoms: C_8  and  C_17
REMARK                            x       y       z     vdW  Elec       q    Type
REMARK                         _______ _______ _______ _____ _____    ______ ____
ROOT
ATOM      1  N   UNL     1      33.076 -20.770 -19.516  0.00  0.00    -0.353 N 
ATOM      2  N   UNL     1      35.718 -22.502 -16.897  0.00  0.00    -0.242 NA
ATOM      3  C   UNL     1      35.163 -20.003 -19.687  0.00  0.00    +0.018 A 
ATOM      4  C   UNL     1      33.872 -19.885 -20.203  0.00  0.00    +0.057 A 
ATOM      5  C   UNL     1      35.121 -20.996 -18.658  0.00  0.00    +0.036 A 
ATOM      6  C   UNL     1      33.807 -21.456 -18.575  0.00  0.00    +0.060 A 
ATOM      7  C   UNL     1      33.549 -18.996 -21.235  0.00  0.00    +0.017 C 
ATOM      8  C   UNL     1      34.576 -18.204 -21.755  0.00  0.00    +0.003 C 
ATOM      9  C   UNL     1      36.183 -19.192 -20.228  0.00  0.00    +0.002 C 
ATOM     10  C   UNL     1      35.875 -18.299 -21.259  0.00  0.00    +0.000 C 
ATOM     11  C   UNL     1      36.072 -21.547 -17.791  0.00  0.00    +0.100 C 
ATOM     12  C   UNL     1      33.413 -22.435 -17.668  0.00  0.00    +0.038 C 
ATOM     13  C   UNL     1      34.430 -22.913 -16.858  0.00  0.00    +0.100 C 
ATOM     14  H   UNL     1      32.113 -20.896 -19.676  0.00  0.00    +0.166 HD
ENDROOT
BRANCH   8  17
ATOM     15  F   UNL     1      33.414 -14.738 -25.888  0.00  0.00    -0.183 F 
ATOM     16  N   UNL     1      33.374 -16.873 -25.026  0.00  0.00    -0.216 NA
ATOM     17  C   UNL     1      34.285 -17.270 -22.822  0.00  0.00    +0.019 C 
ATOM     18  C   UNL     1      34.607 -15.923 -22.704  0.00  0.00    +0.005 C 
ATOM     19  C   UNL     1      33.675 -17.691 -23.992  0.00  0.00    +0.101 C 
ATOM     20  C   UNL     1      34.314 -15.050 -23.746  0.00  0.00    +0.050 C 
ATOM     21  C   UNL     1      33.703 -15.570 -24.875  0.00  0.00    +0.222 C 
ENDBRANCH   8  17
TORSDOF 1
ENDMDL
MODEL 6
REMARK VINA RESULT:     -10.9      3.924      7.945
REMARK  Name = 71059746
REMARK  1 active torsions:
REMARK  status: ('A' for Active; 'I' for Inactive)
REMARK    1  A    between atoms: C_8  and  C_17
REMARK                            x       y       z     vdW  Elec       q    Type
REMARK                         _______ _______ _______ _____ _____    ______ ____
ROOT
ATOM      1  N   UNL     1      36.545 -19.299 -19.911  0.00  0.00    -0.353 N 
ATOM      2  N   UNL     1      33.876 -18.503 -22.924  0.00  0.00    -0.242 NA
ATOM      3  C   UNL     1      34.625 -20.419 -19.746  0.00  0.00    +0.018 A 
ATOM      4  C   UNL     1      35.865 -20.212 -19.142  0.00  0.00    +0.057 A 
ATOM      5  C   UNL     1      34.578 -19.596 -20.915  0.00  0.00    +0.036 A 
ATOM      6  C   UNL     1      35.789 -18.909 -20.991  0.00  0.00    +0.060 A 
ATOM      7  C   UNL     1      36.252 -20.865 -17.965  0.00  0.00    +0.017 C 
ATOM      8  C   UNL     1      35.343 -21.757 -17.390  0.00  0.00    +0.003 C 
ATOM      9  C   UNL     1      33.724 -21.324 -19.145  0.00  0.00    +0.002 C 
ATOM     10  C   UNL     1      34.098 -21.985 -17.970  0.00  0.00    +0.000 C 
ATOM     11  C   UNL     1      33.623 -19.368 -21.913  0.00  0.00    +0.100 C 
ATOM     12  C   UNL     1      36.079 -18.015 -22.017  0.00  0.00    +0.038 C 
ATOM     13  C   UNL     1      35.068 -17.863 -22.951  0.00  0.00    +0.100 C 
ATOM     14  H   UNL     1      37.452 -18.968 -19.716  0.00  0.00    +0.166 HD
ENDROOT
BRANCH   8  17
ATOM     15  F   UNL     1      36.828 -24.360 -12.756  0.00  0.00    -0.183 F 
ATOM     16  N   UNL     1      37.379 -22.974 -14.510  0.00  0.00    -0.216 NA
ATOM     17  C   UNL     1      35.703 -22.453 -16.172  0.00  0.00    +0.019 C 
ATOM     18  C   UNL     1      34.778 -23.243 -15.497  0.00  0.00    +0.005 C 
ATOM     19  C   UNL     1      36.978 -22.352 -15.642  0.00  0.00    +0.101 C 
ATOM     20  C   UNL     1      35.153 -23.898 -14.330  0.00  0.00    +0.050 C 
ATOM     21  C   UNL     1      36.453 -23.733 -13.882  0.00  0.00    +0.222 C 
ENDBRANCH   8  17
TORSDOF 1
ENDMDL
MODEL 7
REMARK VINA RESULT:     -10.7      5.456      9.632
REMARK  Name = 71059746
REMARK  1 active torsions:
REMARK  status: ('A' for Active; 'I' for Inactive)
REMARK    1  A    between atoms: C_8  and  C_17
REMARK                            x       y       z     vdW  Elec       q    Type
REMARK                         _______ _______ _______ _____ _____    ______ ____
ROOT
ATOM      1  N   UNL     1      31.833 -11.741 -20.522  0.00  0.00    -0.353 N 
ATOM      2  N   UNL     1      31.126  -8.428 -22.837  0.00  0.00    -0.242 NA
ATOM      3  C   UNL     1      32.637 -11.890 -22.596  0.00  0.00    +0.018 A 
ATOM      4  C   UNL     1      32.519 -12.565 -21.381  0.00  0.00    +0.057 A 
ATOM      5  C   UNL     1      31.997 -10.620 -22.442  0.00  0.00    +0.036 A 
ATOM      6  C   UNL     1      31.506 -10.556 -21.139  0.00  0.00    +0.060 A 
ATOM      7  C   UNL     1      33.038 -13.849 -21.175  0.00  0.00    +0.017 C 
ATOM      8  C   UNL     1      33.699 -14.460 -22.244  0.00  0.00    +0.003 C 
ATOM      9  C   UNL     1      33.309 -12.529 -23.660  0.00  0.00    +0.002 C 
ATOM     10  C   UNL     1      33.834 -13.811 -23.468  0.00  0.00    +0.000 C 
ATOM     11  C   UNL     1      31.789  -9.521 -23.284  0.00  0.00    +0.100 C 
ATOM     12  C   UNL     1      30.822  -9.447 -20.651  0.00  0.00    +0.038 C 
ATOM     13  C   UNL     1      30.670  -8.416 -21.564  0.00  0.00    +0.100 C 
ATOM     14  H   UNL     1      31.607 -11.966 -19.590  0.00  0.00    +0.166 HD
ENDROOT
BRANCH   8  17
ATOM     15  F   UNL     1      35.811 -19.500 -21.473  0.00  0.00    -0.183 F 
ATOM     16  N   UNL     1      35.161 -17.472 -20.597  0.00  0.00    -0.216 NA
ATOM     17  C   UNL     1      34.251 -15.788 -22.074  0.00  0.00    +0.019 C 
ATOM     18  C   UNL     1      34.405 -16.645 -23.158  0.00  0.00    +0.005 C 
ATOM     19  C   UNL     1      34.640 -16.245 -20.826  0.00  0.00    +0.101 C 
ATOM     20  C   UNL     1      34.937 -17.915 -22.963  0.00  0.00    +0.050 C 
ATOM     21  C   UNL     1      35.296 -18.277 -21.675  0.00  0.00    +0.222 C 
ENDBRANCH   8  17
TORSDOF 1
ENDMDL
MODEL 8
REMARK VINA RESULT:     -10.7      5.372      8.213
REMARK  Name = 71059746
REMARK  1 active torsions:
REMARK  status: ('A' for Active; 'I' for Inactive)
REMARK    1  A    between atoms: C_8  and  C_17
REMARK                            x       y       z     vdW  Elec       q    Type
REMARK                         _______ _______ _______ _____ _____    ______ ____
ROOT
ATOM      1  N   UNL     1      34.206 -15.207 -20.700  0.00  0.00    -0.353 N 
ATOM      2  N   UNL     1      35.137 -18.401 -23.102  0.00  0.00    -0.242 NA
ATOM      3  C   UNL     1      33.680 -14.916 -22.847  0.00  0.00    +0.018 A 
ATOM      4  C   UNL     1      33.655 -14.315 -21.588  0.00  0.00    +0.057 A 
ATOM      5  C   UNL     1      34.268 -16.211 -22.689  0.00  0.00    +0.036 A 
ATOM      6  C   UNL     1      34.585 -16.363 -21.340  0.00  0.00    +0.060 A 
ATOM      7  C   UNL     1      33.140 -13.031 -21.373  0.00  0.00    +0.017 C 
ATOM      8  C   UNL     1      32.635 -12.341 -22.478  0.00  0.00    +0.003 C 
ATOM      9  C   UNL     1      33.166 -14.198 -23.948  0.00  0.00    +0.002 C 
ATOM     10  C   UNL     1      32.647 -12.915 -23.747  0.00  0.00    +0.000 C 
ATOM     11  C   UNL     1      34.561 -17.265 -23.563  0.00  0.00    +0.100 C 
ATOM     12  C   UNL     1      35.177 -17.518 -20.837  0.00  0.00    +0.038 C 
ATOM     13  C   UNL     1      35.424 -18.499 -21.784  0.00  0.00    +0.100 C 
ATOM     14  H   UNL     1      34.314 -15.042 -19.735  0.00  0.00    +0.166 HD
ENDROOT
BRANCH   8  17
ATOM     15  F   UNL     1      30.630  -7.232 -21.905  0.00  0.00    -0.183 F 
ATOM     16  N   UNL     1      31.898  -8.738 -23.101  0.00  0.00    -0.216 NA
ATOM     17  C   UNL     1      32.095 -11.010 -22.300  0.00  0.00    +0.019 C 
ATOM     18  C   UNL     1      31.282 -10.705 -21.214  0.00  0.00    +0.005 C 
ATOM     19  C   UNL     1      32.370 -10.000 -23.207  0.00  0.00    +0.101 C 
ATOM     20  C   UNL     1      30.777  -9.418 -21.070  0.00  0.00    +0.050 C 
ATOM     21  C   UNL     1      31.111  -8.479 -22.032  0.00  0.00    +0.222 C 
ENDBRANCH   8  17
TORSDOF 1
ENDMDL
MODEL 9
REMARK VINA RESULT:     -10.7      2.955      4.942
REMARK  Name = 71059746
REMARK  1 active torsions:
REMARK  status: ('A' for Active; 'I' for Inactive)
REMARK    1  A    between atoms: C_8  and  C_17
REMARK                            x       y       z     vdW  Elec       q    Type
REMARK                         _______ _______ _______ _____ _____    ______ ____
ROOT
ATOM      1  N   UNL     1      37.387 -22.925 -15.270  0.00  0.00    -0.353 N 
ATOM      2  N   UNL     1      36.310 -25.215 -12.040  0.00  0.00    -0.242 NA
ATOM      3  C   UNL     1      35.203 -23.359 -15.148  0.00  0.00    +0.018 A 
ATOM      4  C   UNL     1      36.183 -22.708 -15.897  0.00  0.00    +0.057 A 
ATOM      5  C   UNL     1      35.858 -23.980 -14.037  0.00  0.00    +0.036 A 
ATOM      6  C   UNL     1      37.218 -23.691 -14.141  0.00  0.00    +0.060 A 
ATOM      7  C   UNL     1      35.892 -21.990 -17.063  0.00  0.00    +0.017 C 
ATOM      8  C   UNL     1      34.557 -21.936 -17.475  0.00  0.00    +0.003 C 
ATOM      9  C   UNL     1      33.863 -23.290 -15.584  0.00  0.00    +0.002 C 
ATOM     10  C   UNL     1      33.557 -22.575 -16.747  0.00  0.00    +0.000 C 
ATOM     11  C   UNL     1      35.425 -24.758 -12.957  0.00  0.00    +0.100 C 
ATOM     12  C   UNL     1      38.152 -24.147 -13.215  0.00  0.00    +0.038 C 
ATOM     13  C   UNL     1      37.620 -24.907 -12.186  0.00  0.00    +0.100 C 
ATOM     14  H   UNL     1      38.253 -22.578 -15.585  0.00  0.00    +0.166 HD
ENDROOT
BRANCH   8  17
ATOM     15  F   UNL     1      33.363 -19.139 -22.079  0.00  0.00    -0.183 F 
ATOM     16  N   UNL     1      34.942 -20.009 -20.646  0.00  0.00    -0.216 NA
ATOM     17  C   UNL     1      34.212 -21.206 -18.676  0.00  0.00    +0.019 C 
ATOM     18  C   UNL     1      32.884 -20.992 -19.030  0.00  0.00    +0.005 C 
ATOM     19  C   UNL     1      35.194 -20.698 -19.510  0.00  0.00    +0.101 C 
ATOM     20  C   UNL     1      32.584 -20.287 -20.190  0.00  0.00    +0.050 C 
ATOM     21  C   UNL     1      33.639 -19.821 -20.956  0.00  0.00    +0.222 C 
ENDBRANCH   8  17
TORSDOF 1
ENDMDL
