MODEL 1
REMARK VINA RESULT:     -11.9      0.000      0.000
REMARK  Name = 5663
REMARK  4 active torsions:
REMARK  status: ('A' for Active; 'I' for Inactive)
REMARK    1  A    between atoms: N_2  and  C_11
REMARK    2  A    between atoms: C_8  and  C_21
REMARK    3  A    between atoms: C_24  and  O_27
REMARK    4  A    between atoms: C_26  and  O_29
REMARK                            x       y       z     vdW  Elec       q    Type
REMARK                         _______ _______ _______ _____ _____    ______ ____
ROOT
ATOM      1  O   UNL     1      33.987 -17.357 -24.718  0.00  0.00    -0.270 OA
ATOM      2  N   UNL     1      32.814 -12.809 -22.806  0.00  0.00    -0.304 N 
ATOM      3  N   UNL     1      33.684 -15.525 -23.303  0.00  0.00    -0.273 N 
ATOM      4  C   UNL     1      32.744 -13.823 -21.749  0.00  0.00    +0.112 C 
ATOM      5  C   UNL     1      33.302 -13.217 -24.125  0.00  0.00    +0.112 C 
ATOM      6  C   UNL     1      33.792 -14.912 -21.976  0.00  0.00    +0.115 C 
ATOM      7  C   UNL     1      33.070 -14.710 -24.347  0.00  0.00    +0.115 C 
ATOM      8  C   UNL     1      34.074 -16.834 -23.608  0.00  0.00    +0.249 C 
ENDROOT
BRANCH   2  11
ATOM      9  O   UNL     1      31.359  -5.295 -22.268  0.00  0.00    -0.275 OA
ATOM     10  N   UNL     1      31.166  -7.551 -21.885  0.00  0.00    -0.284 N 
ATOM     11  C   UNL     1      32.413 -11.496 -22.567  0.00  0.00    +0.048 C 
ATOM     12  C   UNL     1      32.699  -9.118 -22.935  0.00  0.00    -0.007 C 
ATOM     13  C   UNL     1      33.115 -10.438 -23.147  0.00  0.00    +0.011 C 
ATOM     14  C   UNL     1      33.491  -7.960 -23.468  0.00  0.00    +0.037 C 
ATOM     15  C   UNL     1      31.582  -8.873 -22.126  0.00  0.00    +0.046 C 
ATOM     16  C   UNL     1      31.307 -11.243 -21.758  0.00  0.00    +0.016 C 
ATOM     17  C   UNL     1      32.594  -6.757 -23.714  0.00  0.00    +0.090 C 
ATOM     18  C   UNL     1      30.892  -9.930 -21.530  0.00  0.00    +0.016 C 
ATOM     19  C   UNL     1      31.682  -6.450 -22.542  0.00  0.00    +0.226 C 
ATOM     20  H   UNL     1      30.465  -7.402 -21.210  0.00  0.00    +0.155 HD
ENDBRANCH   2  11
BRANCH   8  21
ATOM     21  C   UNL     1      34.637 -17.662 -22.530  0.00  0.00    +0.057 C 
ATOM     22  C   UNL     1      33.835 -18.604 -21.891  0.00  0.00    +0.045 C 
ATOM     23  C   UNL     1      35.967 -17.497 -22.153  0.00  0.00    +0.008 C 
ATOM     24  C   UNL     1      34.368 -19.388 -20.867  0.00  0.00    +0.173 C 
ATOM     25  C   UNL     1      36.500 -18.280 -21.130  0.00  0.00    +0.040 C 
ATOM     26  C   UNL     1      35.701 -19.226 -20.487  0.00  0.00    +0.172 C 
BRANCH  24  27
ATOM     27  O   UNL     1      33.579 -20.308 -20.247  0.00  0.00    -0.468 OA
ATOM     28  C   UNL     1      32.178 -20.041 -20.213  0.00  0.00    +0.253 C 
ENDBRANCH  24  27
BRANCH  26  29
ATOM     29  O   UNL     1      36.233 -19.986 -19.490  0.00  0.00    -0.468 OA
ATOM     30  C   UNL     1      35.720 -21.308 -19.339  0.00  0.00    +0.253 C 
ENDBRANCH  26  29
ENDBRANCH   8  21
TORSDOF 4
ENDMDL
MODEL 2
REMARK VINA RESULT:     -11.4      1.583      2.384
REMARK  Name = 5663
REMARK  4 active torsions:
REMARK  status: ('A' for Active; 'I' for Inactive)
REMARK    1  A    between atoms: N_2  and  C_11
REMARK    2  A    between atoms: C_8  and  C_21
REMARK    3  A    between atoms: C_24  and  O_27
REMARK    4  A    between atoms: C_26  and  O_29
REMARK                            x       y       z     vdW  Elec       q    Type
REMARK                         _______ _______ _______ _____ _____    ______ ____
ROOT
ATOM      1  O   UNL     1      33.535 -15.120 -25.473  0.00  0.00    -0.270 OA
ATOM      2  N   UNL     1      32.312 -10.915 -22.915  0.00  0.00    -0.304 N 
ATOM      3  N   UNL     1      33.138 -13.547 -23.794  0.00  0.00    -0.273 N 
ATOM      4  C   UNL     1      32.089 -12.091 -22.069  0.00  0.00    +0.112 C 
ATOM      5  C   UNL     1      32.930 -11.114 -24.228  0.00  0.00    +0.112 C 
ATOM      6  C   UNL     1      33.118 -13.179 -22.375  0.00  0.00    +0.115 C 
ATOM      7  C   UNL     1      32.672 -12.532 -24.734  0.00  0.00    +0.115 C 
ATOM      8  C   UNL     1      33.515 -14.802 -24.285  0.00  0.00    +0.249 C 
ENDROOT
BRANCH   2  11
ATOM      9  O   UNL     1      30.224  -3.640 -21.656  0.00  0.00    -0.275 OA
ATOM     10  N   UNL     1      30.737  -5.834 -21.209  0.00  0.00    -0.284 N 
ATOM     11  C   UNL     1      31.932  -9.643 -22.489  0.00  0.00    +0.048 C 
ATOM     12  C   UNL     1      31.475  -7.317 -22.988  0.00  0.00    -0.007 C 
ATOM     13  C   UNL     1      31.884  -8.590 -23.403  0.00  0.00    +0.011 C 
ATOM     14  C   UNL     1      31.507  -6.147 -23.928  0.00  0.00    +0.037 C 
ATOM     15  C   UNL     1      31.128  -7.112 -21.647  0.00  0.00    +0.046 C 
ATOM     16  C   UNL     1      31.591  -9.430 -21.155  0.00  0.00    +0.016 C 
ATOM     17  C   UNL     1      30.465  -5.109 -23.536  0.00  0.00    +0.090 C 
ATOM     18  C   UNL     1      31.194  -8.162 -20.728  0.00  0.00    +0.016 C 
ATOM     19  C   UNL     1      30.494  -4.771 -22.058  0.00  0.00    +0.226 C 
ATOM     20  H   UNL     1      30.629  -5.688 -20.241  0.00  0.00    +0.155 HD
ENDBRANCH   2  11
BRANCH   8  21
ATOM     21  C   UNL     1      33.924 -15.833 -23.319  0.00  0.00    +0.057 C 
ATOM     22  C   UNL     1      33.989 -17.166 -23.714  0.00  0.00    +0.045 C 
ATOM     23  C   UNL     1      34.243 -15.469 -22.012  0.00  0.00    +0.008 C 
ATOM     24  C   UNL     1      34.375 -18.144 -22.797  0.00  0.00    +0.173 C 
ATOM     25  C   UNL     1      34.629 -16.446 -21.095  0.00  0.00    +0.040 C 
ATOM     26  C   UNL     1      34.695 -17.784 -21.487  0.00  0.00    +0.172 C 
BRANCH  24  27
ATOM     27  O   UNL     1      34.436 -19.446 -23.191  0.00  0.00    -0.468 OA
ATOM     28  C   UNL     1      34.119 -19.726 -24.554  0.00  0.00    +0.253 C 
ENDBRANCH  24  27
BRANCH  26  29
ATOM     29  O   UNL     1      35.075 -18.730 -20.583  0.00  0.00    -0.468 OA
ATOM     30  C   UNL     1      36.467 -19.025 -20.500  0.00  0.00    +0.253 C 
ENDBRANCH  26  29
ENDBRANCH   8  21
TORSDOF 4
ENDMDL
MODEL 3
REMARK VINA RESULT:     -11.0      1.910     10.768
REMARK  Name = 5663
REMARK  4 active torsions:
REMARK  status: ('A' for Active; 'I' for Inactive)
REMARK    1  A    between atoms: N_2  and  C_11
REMARK    2  A    between atoms: C_8  and  C_21
REMARK    3  A    between atoms: C_24  and  O_27
REMARK    4  A    between atoms: C_26  and  O_29
REMARK                            x       y       z     vdW  Elec       q    Type
REMARK                         _______ _______ _______ _____ _____    ______ ____
ROOT
ATOM      1  O   UNL     1      30.818  -8.160 -21.051  0.00  0.00    -0.270 OA
ATOM      2  N   UNL     1      32.864 -12.473 -22.766  0.00  0.00    -0.304 N 
ATOM      3  N   UNL     1      32.092  -9.738 -22.207  0.00  0.00    -0.273 N 
ATOM      4  C   UNL     1      32.901 -11.454 -23.819  0.00  0.00    +0.112 C 
ATOM      5  C   UNL     1      32.393 -12.076 -21.436  0.00  0.00    +0.112 C 
ATOM      6  C   UNL     1      33.102 -10.063 -23.218  0.00  0.00    +0.115 C 
ATOM      7  C   UNL     1      31.461 -10.870 -21.533  0.00  0.00    +0.115 C 
ATOM      8  C   UNL     1      31.666  -8.443 -21.897  0.00  0.00    +0.249 C 
ENDROOT
BRANCH   2  11
ATOM      9  O   UNL     1      35.152 -19.789 -23.085  0.00  0.00    -0.275 OA
ATOM     10  N   UNL     1      34.363 -17.754 -23.800  0.00  0.00    -0.284 N 
ATOM     11  C   UNL     1      33.251 -13.786 -23.024  0.00  0.00    +0.048 C 
ATOM     12  C   UNL     1      34.160 -15.893 -22.248  0.00  0.00    -0.007 C 
ATOM     13  C   UNL     1      33.797 -14.564 -22.002  0.00  0.00    +0.011 C 
ATOM     14  C   UNL     1      34.837 -16.720 -21.194  0.00  0.00    +0.037 C 
ATOM     15  C   UNL     1      33.982 -16.427 -23.531  0.00  0.00    +0.046 C 
ATOM     16  C   UNL     1      33.082 -14.323 -24.300  0.00  0.00    +0.016 C 
ATOM     17  C   UNL     1      34.544 -18.200 -21.395  0.00  0.00    +0.090 C 
ATOM     18  C   UNL     1      33.453 -15.643 -24.559  0.00  0.00    +0.016 C 
ATOM     19  C   UNL     1      34.752 -18.654 -22.827  0.00  0.00    +0.226 C 
ATOM     20  H   UNL     1      34.351 -18.059 -24.736  0.00  0.00    +0.155 HD
ENDBRANCH   2  11
BRANCH   8  21
ATOM     21  C   UNL     1      32.268  -7.317 -22.628  0.00  0.00    +0.057 C 
ATOM     22  C   UNL     1      31.481  -6.539 -23.472  0.00  0.00    +0.045 C 
ATOM     23  C   UNL     1      33.624  -7.039 -22.474  0.00  0.00    +0.008 C 
ATOM     24  C   UNL     1      32.054  -5.473 -24.167  0.00  0.00    +0.173 C 
ATOM     25  C   UNL     1      34.197  -5.974 -23.168  0.00  0.00    +0.040 C 
ATOM     26  C   UNL     1      33.412  -5.190 -24.015  0.00  0.00    +0.172 C 
BRANCH  24  27
ATOM     27  O   UNL     1      31.278  -4.716 -24.991  0.00  0.00    -0.468 OA
ATOM     28  C   UNL     1      30.588  -3.615 -24.401  0.00  0.00    +0.253 C 
ENDBRANCH  24  27
BRANCH  26  29
ATOM     29  O   UNL     1      33.982  -4.152 -24.687  0.00  0.00    -0.468 OA
ATOM     30  C   UNL     1      34.754  -4.474 -25.842  0.00  0.00    +0.253 C 
ENDBRANCH  26  29
ENDBRANCH   8  21
TORSDOF 4
ENDMDL
MODEL 4
REMARK VINA RESULT:     -10.6      6.489     10.665
REMARK  Name = 5663
REMARK  4 active torsions:
REMARK  status: ('A' for Active; 'I' for Inactive)
REMARK    1  A    between atoms: N_2  and  C_11
REMARK    2  A    between atoms: C_8  and  C_21
REMARK    3  A    between atoms: C_24  and  O_27
REMARK    4  A    between atoms: C_26  and  O_29
REMARK                            x       y       z     vdW  Elec       q    Type
REMARK                         _______ _______ _______ _____ _____    ______ ____
ROOT
ATOM      1  O   UNL     1      33.225 -24.561 -13.983  0.00  0.00    -0.270 OA
ATOM      2  N   UNL     1      33.823 -21.648 -18.092  0.00  0.00    -0.304 N 
ATOM      3  N   UNL     1      34.117 -23.368 -15.781  0.00  0.00    -0.273 N 
ATOM      4  C   UNL     1      35.031 -21.590 -17.264  0.00  0.00    +0.112 C 
ATOM      5  C   UNL     1      32.757 -22.574 -17.697  0.00  0.00    +0.112 C 
ATOM      6  C   UNL     1      35.273 -22.928 -16.567  0.00  0.00    +0.115 C 
ATOM      7  C   UNL     1      32.816 -22.852 -16.196  0.00  0.00    +0.115 C 
ATOM      8  C   UNL     1      34.190 -24.187 -14.649  0.00  0.00    +0.249 C 
ENDROOT
BRANCH   2  11
ATOM      9  O   UNL     1      34.167 -17.097 -24.259  0.00  0.00    -0.275 OA
ATOM     10  N   UNL     1      33.261 -18.438 -22.629  0.00  0.00    -0.284 N 
ATOM     11  C   UNL     1      33.683 -20.836 -19.216  0.00  0.00    +0.048 C 
ATOM     12  C   UNL     1      34.662 -19.364 -20.871  0.00  0.00    -0.007 C 
ATOM     13  C   UNL     1      34.791 -20.157 -19.726  0.00  0.00    +0.011 C 
ATOM     14  C   UNL     1      35.814 -18.549 -21.384  0.00  0.00    +0.037 C 
ATOM     15  C   UNL     1      33.411 -19.250 -21.490  0.00  0.00    +0.046 C 
ATOM     16  C   UNL     1      32.439 -20.712 -19.834  0.00  0.00    +0.016 C 
ATOM     17  C   UNL     1      35.698 -18.329 -22.885  0.00  0.00    +0.090 C 
ATOM     18  C   UNL     1      32.298 -19.913 -20.969  0.00  0.00    +0.016 C 
ATOM     19  C   UNL     1      34.318 -17.863 -23.308  0.00  0.00    +0.226 C 
ATOM     20  H   UNL     1      32.350 -18.270 -22.962  0.00  0.00    +0.155 HD
ENDBRANCH   2  11
BRANCH   8  21
ATOM     21  C   UNL     1      35.515 -24.649 -14.209  0.00  0.00    +0.057 C 
ATOM     22  C   UNL     1      36.256 -23.879 -13.316  0.00  0.00    +0.045 C 
ATOM     23  C   UNL     1      36.023 -25.853 -14.690  0.00  0.00    +0.008 C 
ATOM     24  C   UNL     1      37.513 -24.317 -12.900  0.00  0.00    +0.173 C 
ATOM     25  C   UNL     1      37.280 -26.292 -14.274  0.00  0.00    +0.040 C 
ATOM     26  C   UNL     1      38.026 -25.523 -13.379  0.00  0.00    +0.172 C 
BRANCH  24  27
ATOM     27  O   UNL     1      38.232 -23.558 -12.026  0.00  0.00    -0.468 OA
ATOM     28  C   UNL     1      37.625 -22.353 -11.564  0.00  0.00    +0.253 C 
ENDBRANCH  24  27
BRANCH  26  29
ATOM     29  O   UNL     1      39.252 -25.961 -12.979  0.00  0.00    -0.468 OA
ATOM     30  C   UNL     1      40.314 -25.866 -13.926  0.00  0.00    +0.253 C 
ENDBRANCH  26  29
ENDBRANCH   8  21
TORSDOF 4
ENDMDL
MODEL 5
REMARK VINA RESULT:     -10.6      4.883      8.718
REMARK  Name = 5663
REMARK  4 active torsions:
REMARK  status: ('A' for Active; 'I' for Inactive)
REMARK    1  A    between atoms: N_2  and  C_11
REMARK    2  A    between atoms: C_8  and  C_21
REMARK    3  A    between atoms: C_24  and  O_27
REMARK    4  A    between atoms: C_26  and  O_29
REMARK                            x       y       z     vdW  Elec       q    Type
REMARK                         _______ _______ _______ _____ _____    ______ ____
ROOT
ATOM      1  O   UNL     1      36.374 -22.783 -16.379  0.00  0.00    -0.270 OA
ATOM      2  N   UNL     1      34.550 -19.975 -20.189  0.00  0.00    -0.304 N 
ATOM      3  N   UNL     1      34.979 -21.606 -17.835  0.00  0.00    -0.273 N 
ATOM      4  C   UNL     1      33.525 -20.921 -19.736  0.00  0.00    +0.112 C 
ATOM      5  C   UNL     1      35.807 -19.906 -19.439  0.00  0.00    +0.112 C 
ATOM      6  C   UNL     1      33.640 -21.161 -18.231  0.00  0.00    +0.115 C 
ATOM      7  C   UNL     1      36.077 -21.225 -18.718  0.00  0.00    +0.115 C 
ATOM      8  C   UNL     1      35.253 -22.403 -16.719  0.00  0.00    +0.249 C 
ENDROOT
BRANCH   2  11
ATOM      9  O   UNL     1      33.670 -14.710 -25.700  0.00  0.00    -0.275 OA
ATOM     10  N   UNL     1      33.770 -16.776 -24.702  0.00  0.00    -0.284 N 
ATOM     11  C   UNL     1      34.343 -19.175 -21.311  0.00  0.00    +0.048 C 
ATOM     12  C   UNL     1      34.167 -16.976 -22.311  0.00  0.00    -0.007 C 
ATOM     13  C   UNL     1      34.345 -17.785 -21.183  0.00  0.00    +0.011 C 
ATOM     14  C   UNL     1      34.069 -15.483 -22.188  0.00  0.00    +0.037 C 
ATOM     15  C   UNL     1      33.974 -17.576 -23.562  0.00  0.00    +0.046 C 
ATOM     16  C   UNL     1      34.144 -19.764 -22.558  0.00  0.00    +0.016 C 
ATOM     17  C   UNL     1      34.537 -14.802 -23.466  0.00  0.00    +0.090 C 
ATOM     18  C   UNL     1      33.952 -18.967 -23.687  0.00  0.00    +0.016 C 
ATOM     19  C   UNL     1      33.922 -15.403 -24.715  0.00  0.00    +0.226 C 
ATOM     20  H   UNL     1      33.505 -17.222 -25.539  0.00  0.00    +0.155 HD
ENDBRANCH   2  11
BRANCH   8  21
ATOM     21  C   UNL     1      34.128 -22.829 -15.873  0.00  0.00    +0.057 C 
ATOM     22  C   UNL     1      34.356 -23.198 -14.550  0.00  0.00    +0.045 C 
ATOM     23  C   UNL     1      32.840 -22.863 -16.402  0.00  0.00    +0.008 C 
ATOM     24  C   UNL     1      33.288 -23.604 -13.749  0.00  0.00    +0.173 C 
ATOM     25  C   UNL     1      31.772 -23.268 -15.601  0.00  0.00    +0.040 C 
ATOM     26  C   UNL     1      31.996 -23.639 -14.275  0.00  0.00    +0.172 C 
BRANCH  24  27
ATOM     27  O   UNL     1      33.520 -23.964 -12.456  0.00  0.00    -0.468 OA
ATOM     28  C   UNL     1      34.879 -23.995 -12.026  0.00  0.00    +0.253 C 
ENDBRANCH  24  27
BRANCH  26  29
ATOM     29  O   UNL     1      30.946 -24.032 -13.502  0.00  0.00    -0.468 OA
ATOM     30  C   UNL     1      29.939 -24.824 -14.130  0.00  0.00    +0.253 C 
ENDBRANCH  26  29
ENDBRANCH   8  21
TORSDOF 4
ENDMDL
MODEL 6
REMARK VINA RESULT:     -10.5      4.857     11.325
REMARK  Name = 5663
REMARK  4 active torsions:
REMARK  status: ('A' for Active; 'I' for Inactive)
REMARK    1  A    between atoms: N_2  and  C_11
REMARK    2  A    between atoms: C_8  and  C_21
REMARK    3  A    between atoms: C_24  and  O_27
REMARK    4  A    between atoms: C_26  and  O_29
REMARK                            x       y       z     vdW  Elec       q    Type
REMARK                         _______ _______ _______ _____ _____    ______ ____
ROOT
ATOM      1  O   UNL     1      36.769 -19.050 -21.446  0.00  0.00    -0.270 OA
ATOM      2  N   UNL     1      33.283 -21.352 -18.568  0.00  0.00    -0.304 N 
ATOM      3  N   UNL     1      34.764 -19.811 -20.522  0.00  0.00    -0.273 N 
ATOM      4  C   UNL     1      32.730 -20.111 -19.119  0.00  0.00    +0.112 C 
ATOM      5  C   UNL     1      34.618 -21.768 -19.006  0.00  0.00    +0.112 C 
ATOM      6  C   UNL     1      33.298 -19.838 -20.511  0.00  0.00    +0.115 C 
ATOM      7  C   UNL     1      35.435 -20.562 -19.465  0.00  0.00    +0.115 C 
ATOM      8  C   UNL     1      35.539 -19.080 -21.429  0.00  0.00    +0.249 C 
ENDROOT
BRANCH   2  11
ATOM      9  O   UNL     1      28.433 -25.050 -13.913  0.00  0.00    -0.275 OA
ATOM     10  N   UNL     1      30.418 -24.422 -14.885  0.00  0.00    -0.284 N 
ATOM     11  C   UNL     1      32.568 -22.107 -17.640  0.00  0.00    +0.048 C 
ATOM     12  C   UNL     1      30.466 -22.685 -16.585  0.00  0.00    -0.007 C 
ATOM     13  C   UNL     1      31.195 -21.909 -17.494  0.00  0.00    +0.011 C 
ATOM     14  C   UNL     1      29.008 -22.428 -16.339  0.00  0.00    +0.037 C 
ATOM     15  C   UNL     1      31.132 -23.650 -15.819  0.00  0.00    +0.046 C 
ATOM     16  C   UNL     1      33.225 -23.065 -16.870  0.00  0.00    +0.016 C 
ATOM     17  C   UNL     1      28.301 -23.698 -15.890  0.00  0.00    +0.090 C 
ATOM     18  C   UNL     1      32.510 -23.835 -15.951  0.00  0.00    +0.016 C 
ATOM     19  C   UNL     1      29.040 -24.425 -14.783  0.00  0.00    +0.226 C 
ATOM     20  H   UNL     1      30.929 -24.995 -14.268  0.00  0.00    +0.155 HD
ENDBRANCH   2  11
BRANCH   8  21
ATOM     21  C   UNL     1      34.846 -18.280 -22.451  0.00  0.00    +0.057 C 
ATOM     22  C   UNL     1      34.878 -16.890 -22.382  0.00  0.00    +0.045 C 
ATOM     23  C   UNL     1      34.158 -18.919 -23.480  0.00  0.00    +0.008 C 
ATOM     24  C   UNL     1      34.219 -16.132 -23.351  0.00  0.00    +0.173 C 
ATOM     25  C   UNL     1      33.500 -18.162 -24.449  0.00  0.00    +0.040 C 
ATOM     26  C   UNL     1      33.529 -16.769 -24.384  0.00  0.00    +0.172 C 
BRANCH  24  27
ATOM     27  O   UNL     1      34.255 -14.773 -23.277  0.00  0.00    -0.468 OA
ATOM     28  C   UNL     1      33.912 -14.183 -22.024  0.00  0.00    +0.253 C 
ENDBRANCH  24  27
BRANCH  26  29
ATOM     29  O   UNL     1      32.883 -16.039 -25.335  0.00  0.00    -0.468 OA
ATOM     30  C   UNL     1      33.129 -14.635 -25.354  0.00  0.00    +0.253 C 
ENDBRANCH  26  29
ENDBRANCH   8  21
TORSDOF 4
ENDMDL
MODEL 7
REMARK VINA RESULT:     -10.1      3.459     10.591
REMARK  Name = 5663
REMARK  4 active torsions:
REMARK  status: ('A' for Active; 'I' for Inactive)
REMARK    1  A    between atoms: N_2  and  C_11
REMARK    2  A    between atoms: C_8  and  C_21
REMARK    3  A    between atoms: C_24  and  O_27
REMARK    4  A    between atoms: C_26  and  O_29
REMARK                            x       y       z     vdW  Elec       q    Type
REMARK                         _______ _______ _______ _____ _____    ______ ____
ROOT
ATOM      1  O   UNL     1      34.158 -17.159 -25.133  0.00  0.00    -0.270 OA
ATOM      2  N   UNL     1      34.408 -19.499 -20.640  0.00  0.00    -0.304 N 
ATOM      3  N   UNL     1      34.162 -17.643 -22.849  0.00  0.00    -0.273 N 
ATOM      4  C   UNL     1      34.826 -18.102 -20.494  0.00  0.00    +0.112 C 
ATOM      5  C   UNL     1      33.897 -19.936 -21.942  0.00  0.00    +0.112 C 
ATOM      6  C   UNL     1      34.049 -17.203 -21.455  0.00  0.00    +0.115 C 
ATOM      7  C   UNL     1      34.454 -19.058 -23.060  0.00  0.00    +0.115 C 
ATOM      8  C   UNL     1      34.064 -16.799 -23.960  0.00  0.00    +0.249 C 
ENDROOT
BRANCH   2  11
ATOM      9  O   UNL     1      35.929 -23.918 -14.555  0.00  0.00    -0.275 OA
ATOM     10  N   UNL     1      34.776 -23.046 -16.340  0.00  0.00    -0.284 N 
ATOM     11  C   UNL     1      34.507 -20.392 -19.575  0.00  0.00    +0.048 C 
ATOM     12  C   UNL     1      35.786 -21.342 -17.750  0.00  0.00    -0.007 C 
ATOM     13  C   UNL     1      35.690 -20.468 -18.839  0.00  0.00    +0.011 C 
ATOM     14  C   UNL     1      37.076 -21.512 -17.002  0.00  0.00    +0.037 C 
ATOM     15  C   UNL     1      34.688 -22.146 -17.417  0.00  0.00    +0.046 C 
ATOM     16  C   UNL     1      33.421 -21.200 -19.242  0.00  0.00    +0.016 C 
ATOM     17  C   UNL     1      36.817 -21.931 -15.562  0.00  0.00    +0.090 C 
ATOM     18  C   UNL     1      33.510 -22.085 -18.166  0.00  0.00    +0.016 C 
ATOM     19  C   UNL     1      35.832 -23.078 -15.449  0.00  0.00    +0.226 C 
ATOM     20  H   UNL     1      34.043 -23.691 -16.213  0.00  0.00    +0.155 HD
ENDBRANCH   2  11
BRANCH   8  21
ATOM     21  C   UNL     1      33.830 -15.365 -23.727  0.00  0.00    +0.057 C 
ATOM     22  C   UNL     1      33.287 -14.579 -24.739  0.00  0.00    +0.045 C 
ATOM     23  C   UNL     1      34.154 -14.803 -22.495  0.00  0.00    +0.008 C 
ATOM     24  C   UNL     1      33.067 -13.219 -24.519  0.00  0.00    +0.173 C 
ATOM     25  C   UNL     1      33.934 -13.444 -22.274  0.00  0.00    +0.040 C 
ATOM     26  C   UNL     1      33.390 -12.651 -23.285  0.00  0.00    +0.172 C 
BRANCH  24  27
ATOM     27  O   UNL     1      32.536 -12.456 -25.514  0.00  0.00    -0.468 OA
ATOM     28  C   UNL     1      32.772 -12.883 -26.854  0.00  0.00    +0.253 C 
ENDBRANCH  24  27
BRANCH  26  29
ATOM     29  O   UNL     1      33.179 -11.325 -23.058  0.00  0.00    -0.468 OA
ATOM     30  C   UNL     1      31.962 -10.966 -22.407  0.00  0.00    +0.253 C 
ENDBRANCH  26  29
ENDBRANCH   8  21
TORSDOF 4
ENDMDL
MODEL 8
REMARK VINA RESULT:     -10.1      3.196     10.341
REMARK  Name = 5663
REMARK  4 active torsions:
REMARK  status: ('A' for Active; 'I' for Inactive)
REMARK    1  A    between atoms: N_2  and  C_11
REMARK    2  A    between atoms: C_8  and  C_21
REMARK    3  A    between atoms: C_24  and  O_27
REMARK    4  A    between atoms: C_26  and  O_29
REMARK                            x       y       z     vdW  Elec       q    Type
REMARK                         _______ _______ _______ _____ _____    ______ ____
ROOT
ATOM      1  O   UNL     1      33.681 -16.454 -25.593  0.00  0.00    -0.270 OA
ATOM      2  N   UNL     1      34.351 -18.872 -21.185  0.00  0.00    -0.304 N 
ATOM      3  N   UNL     1      33.913 -16.976 -23.329  0.00  0.00    -0.273 N 
ATOM      4  C   UNL     1      34.809 -17.485 -21.063  0.00  0.00    +0.112 C 
ATOM      5  C   UNL     1      33.699 -19.278 -22.433  0.00  0.00    +0.112 C 
ATOM      6  C   UNL     1      33.954 -16.557 -21.925  0.00  0.00    +0.115 C 
ATOM      7  C   UNL     1      34.154 -18.392 -23.591  0.00  0.00    +0.115 C 
ATOM      8  C   UNL     1      33.717 -16.111 -24.411  0.00  0.00    +0.249 C 
ENDROOT
BRANCH   2  11
ATOM      9  O   UNL     1      34.319 -24.117 -15.586  0.00  0.00    -0.275 OA
ATOM     10  N   UNL     1      35.138 -22.569 -17.072  0.00  0.00    -0.284 N 
ATOM     11  C   UNL     1      34.543 -19.785 -20.150  0.00  0.00    +0.048 C 
ATOM     12  C   UNL     1      33.633 -21.353 -18.543  0.00  0.00    -0.007 C 
ATOM     13  C   UNL     1      33.444 -20.413 -19.563  0.00  0.00    +0.011 C 
ATOM     14  C   UNL     1      32.465 -21.971 -17.832  0.00  0.00    +0.037 C 
ATOM     15  C   UNL     1      34.933 -21.644 -18.111  0.00  0.00    +0.046 C 
ATOM     16  C   UNL     1      35.834 -20.075 -19.710  0.00  0.00    +0.016 C 
ATOM     17  C   UNL     1      32.824 -23.349 -17.296  0.00  0.00    +0.090 C 
ATOM     18  C   UNL     1      36.033 -21.000 -18.684  0.00  0.00    +0.016 C 
ATOM     19  C   UNL     1      34.140 -23.366 -16.543  0.00  0.00    +0.226 C 
ATOM     20  H   UNL     1      36.045 -22.654 -16.698  0.00  0.00    +0.155 HD
ENDBRANCH   2  11
BRANCH   8  21
ATOM     21  C   UNL     1      33.536 -14.678 -24.134  0.00  0.00    +0.057 C 
ATOM     22  C   UNL     1      33.620 -14.210 -22.826  0.00  0.00    +0.045 C 
ATOM     23  C   UNL     1      33.278 -13.798 -25.182  0.00  0.00    +0.008 C 
ATOM     24  C   UNL     1      33.446 -12.850 -22.563  0.00  0.00    +0.173 C 
ATOM     25  C   UNL     1      33.104 -12.440 -24.920  0.00  0.00    +0.040 C 
ATOM     26  C   UNL     1      33.188 -11.965 -23.611  0.00  0.00    +0.172 C 
BRANCH  24  27
ATOM     27  O   UNL     1      33.530 -12.399 -21.281  0.00  0.00    -0.468 OA
ATOM     28  C   UNL     1      32.448 -12.720 -20.409  0.00  0.00    +0.253 C 
ENDBRANCH  24  27
BRANCH  26  29
ATOM     29  O   UNL     1      33.017 -10.636 -23.367  0.00  0.00    -0.468 OA
ATOM     30  C   UNL     1      31.717 -10.214 -22.961  0.00  0.00    +0.253 C 
ENDBRANCH  26  29
ENDBRANCH   8  21
TORSDOF 4
ENDMDL
MODEL 9
REMARK VINA RESULT:     -10.0      3.713      6.813
REMARK  Name = 5663
REMARK  4 active torsions:
REMARK  status: ('A' for Active; 'I' for Inactive)
REMARK    1  A    between atoms: N_2  and  C_11
REMARK    2  A    between atoms: C_8  and  C_21
REMARK    3  A    between atoms: C_24  and  O_27
REMARK    4  A    between atoms: C_26  and  O_29
REMARK                            x       y       z     vdW  Elec       q    Type
REMARK                         _______ _______ _______ _____ _____    ______ ____
ROOT
ATOM      1  O   UNL     1      36.718 -21.644 -18.481  0.00  0.00    -0.270 OA
ATOM      2  N   UNL     1      34.411 -18.384 -21.608  0.00  0.00    -0.304 N 
ATOM      3  N   UNL     1      35.140 -20.325 -19.586  0.00  0.00    -0.273 N 
ATOM      4  C   UNL     1      33.467 -19.427 -21.196  0.00  0.00    +0.112 C 
ATOM      5  C   UNL     1      35.742 -18.374 -20.995  0.00  0.00    +0.112 C 
ATOM      6  C   UNL     1      33.755 -19.881 -19.765  0.00  0.00    +0.115 C 
ATOM      7  C   UNL     1      36.123 -19.773 -20.514  0.00  0.00    +0.115 C 
ATOM      8  C   UNL     1      35.558 -21.265 -18.638  0.00  0.00    +0.249 C 
ENDROOT
BRANCH   2  11
ATOM      9  O   UNL     1      32.680 -12.410 -26.100  0.00  0.00    -0.275 OA
ATOM     10  N   UNL     1      33.054 -14.588 -25.475  0.00  0.00    -0.284 N 
ATOM     11  C   UNL     1      34.059 -17.437 -22.568  0.00  0.00    +0.048 C 
ATOM     12  C   UNL     1      33.596 -15.137 -23.170  0.00  0.00    -0.007 C 
ATOM     13  C   UNL     1      33.920 -16.097 -22.204  0.00  0.00    +0.011 C 
ATOM     14  C   UNL     1      33.347 -13.707 -22.789  0.00  0.00    +0.037 C 
ATOM     15  C   UNL     1      33.402 -15.538 -24.498  0.00  0.00    +0.046 C 
ATOM     16  C   UNL     1      33.858 -17.829 -23.890  0.00  0.00    +0.016 C 
ATOM     17  C   UNL     1      33.670 -12.773 -23.946  0.00  0.00    +0.090 C 
ATOM     18  C   UNL     1      33.522 -16.882 -24.858  0.00  0.00    +0.016 C 
ATOM     19  C   UNL     1      33.057 -13.224 -25.257  0.00  0.00    +0.226 C 
ATOM     20  H   UNL     1      32.793 -14.915 -26.367  0.00  0.00    +0.155 HD
ENDBRANCH   2  11
BRANCH   8  21
ATOM     21  C   UNL     1      34.545 -21.856 -17.751  0.00  0.00    +0.057 C 
ATOM     22  C   UNL     1      34.875 -22.171 -16.436  0.00  0.00    +0.045 C 
ATOM     23  C   UNL     1      33.261 -22.100 -18.233  0.00  0.00    +0.008 C 
ATOM     24  C   UNL     1      33.914 -22.734 -15.595  0.00  0.00    +0.173 C 
ATOM     25  C   UNL     1      32.300 -22.662 -17.392  0.00  0.00    +0.040 C 
ATOM     26  C   UNL     1      32.627 -22.980 -16.073  0.00  0.00    +0.172 C 
BRANCH  24  27
ATOM     27  O   UNL     1      34.245 -23.040 -14.309  0.00  0.00    -0.468 OA
ATOM     28  C   UNL     1      34.936 -24.269 -14.093  0.00  0.00    +0.253 C 
ENDBRANCH  24  27
BRANCH  26  29
ATOM     29  O   UNL     1      31.680 -23.528 -15.262  0.00  0.00    -0.468 OA
ATOM     30  C   UNL     1      30.319 -23.381 -15.662  0.00  0.00    +0.253 C 
ENDBRANCH  26  29
ENDBRANCH   8  21
TORSDOF 4
ENDMDL
