MODEL 1
REMARK VINA RESULT:     -13.2      0.000      0.000
REMARK  Name = 71245288
REMARK  5 active torsions:
REMARK  status: ('A' for Active; 'I' for Inactive)
REMARK    1  A    between atoms: C_3  and  C_9
REMARK    2  A    between atoms: C_6  and  N_14
REMARK    3  A    between atoms: C_15  and  C_18
REMARK    4  A    between atoms: C_22  and  C_30
REMARK    5  A    between atoms: N_27  and  C_32
REMARK                            x       y       z     vdW  Elec       q    Type
REMARK                         _______ _______ _______ _____ _____    ______ ____
ROOT
ATOM      1  O   UNL     1      32.167 -21.368 -19.310  0.00  0.00    -0.270 OA
ATOM      2  N   UNL     1      33.828 -21.692 -17.683  0.00  0.00    -0.259 N 
ATOM      3  C   UNL     1      33.329 -21.211 -18.902  0.00  0.00    +0.253 C 
ATOM      4  H   UNL     1      34.772 -21.488 -17.497  0.00  0.00    +0.157 HD
ATOM      5  N   UNL     1      33.832 -22.798 -15.577  0.00  0.00    -0.388 NA
ATOM      6  C   UNL     1      33.144 -23.505 -14.653  0.00  0.00    +0.166 C 
ATOM      7  C   UNL     1      33.150 -22.434 -16.685  0.00  0.00    +0.167 C 
ATOM      8  C   UNL     1      31.811 -23.862 -14.785  0.00  0.00    +0.031 C 
ATOM      9  C   UNL     1      31.818 -22.741 -16.912  0.00  0.00    +0.101 C 
ATOM     10  C   UNL     1      31.143 -23.469 -15.938  0.00  0.00    -0.015 C 
ENDROOT
BRANCH   3  15
ATOM     11  F   UNL     1      36.081 -21.142 -18.349  0.00  0.00    -0.204 F 
ATOM     12  C   UNL     1      34.698 -18.994 -21.594  0.00  0.00    +0.046 C 
ATOM     13  C   UNL     1      36.057 -18.991 -21.279  0.00  0.00    -0.006 C 
ATOM     14  C   UNL     1      33.802 -19.724 -20.812  0.00  0.00    +0.021 C 
ATOM     15  C   UNL     1      34.265 -20.451 -19.715  0.00  0.00    +0.082 C 
ATOM     16  C   UNL     1      36.520 -19.717 -20.182  0.00  0.00    +0.027 C 
ATOM     17  C   UNL     1      37.044 -18.219 -22.095  0.00  0.00    +0.032 C 
ATOM     18  C   UNL     1      35.624 -20.447 -19.401  0.00  0.00    +0.144 C 
BRANCH  12  20
ATOM     19  N   UNL     1      33.227 -17.862 -24.623  0.00  0.00    -0.255 NA
ATOM     20  N   UNL     1      34.218 -18.279 -22.678  0.00  0.00    -0.282 N 
ATOM     21  C   UNL     1      33.696 -16.696 -24.072  0.00  0.00    +0.053 C 
ATOM     22  C   UNL     1      34.315 -16.929 -22.866  0.00  0.00    +0.134 C 
ATOM     23  C   UNL     1      33.557 -18.796 -23.758  0.00  0.00    +0.219 C 
BRANCH  21  24
ATOM     24  C   UNL     1      33.547 -15.324 -24.721  0.00  0.00    +0.037 C 
ATOM     25  C   UNL     1      34.281 -14.160 -24.122  0.00  0.00    +0.006 C 
ATOM     26  C   UNL     1      32.790 -14.258 -23.986  0.00  0.00    +0.006 C 
ENDBRANCH  21  24
ENDBRANCH  12  20
ENDBRANCH   3  15
BRANCH   6  30
ATOM     27  N   UNL     1      35.178 -24.357 -13.532  0.00  0.00    -0.252 N 
ATOM     28  N   UNL     1      33.502 -23.798 -12.241  0.00  0.00    -0.129 NA
ATOM     29  N   UNL     1      34.537 -24.247 -11.444  0.00  0.00    -0.128 NA
ATOM     30  C   UNL     1      33.906 -23.873 -13.489  0.00  0.00    +0.188 C 
ATOM     31  C   UNL     1      35.532 -24.576 -12.235  0.00  0.00    +0.192 C 
BRANCH  27  32
ATOM     32  C   UNL     1      36.001 -24.595 -14.693  0.00  0.00    +0.080 C 
ATOM     33  C   UNL     1      37.296 -23.781 -14.642  0.00  0.00    +0.022 C 
ATOM     34  C   UNL     1      36.301 -26.085 -14.874  0.00  0.00    +0.022 C 
ENDBRANCH  27  32
ENDBRANCH   6  30
TORSDOF 5
ENDMDL
MODEL 2
REMARK VINA RESULT:     -13.1      1.623     10.657
REMARK  Name = 71245288
REMARK  5 active torsions:
REMARK  status: ('A' for Active; 'I' for Inactive)
REMARK    1  A    between atoms: C_3  and  C_9
REMARK    2  A    between atoms: C_6  and  N_14
REMARK    3  A    between atoms: C_15  and  C_18
REMARK    4  A    between atoms: C_22  and  C_30
REMARK    5  A    between atoms: N_27  and  C_32
REMARK                            x       y       z     vdW  Elec       q    Type
REMARK                         _______ _______ _______ _____ _____    ______ ____
ROOT
ATOM      1  O   UNL     1      36.174 -21.083 -18.330  0.00  0.00    -0.270 OA
ATOM      2  N   UNL     1      34.380 -20.307 -19.630  0.00  0.00    -0.259 N 
ATOM      3  C   UNL     1      34.959 -21.032 -18.578  0.00  0.00    +0.253 C 
ATOM      4  H   UNL     1      33.400 -20.364 -19.700  0.00  0.00    +0.157 HD
ATOM      5  N   UNL     1      34.261 -18.892 -21.538  0.00  0.00    -0.388 NA
ATOM      6  C   UNL     1      34.918 -18.138 -22.447  0.00  0.00    +0.166 C 
ATOM      7  C   UNL     1      35.022 -19.506 -20.605  0.00  0.00    +0.167 C 
ATOM      8  C   UNL     1      36.293 -17.970 -22.467  0.00  0.00    +0.031 C 
ATOM      9  C   UNL     1      36.402 -19.402 -20.539  0.00  0.00    +0.101 C 
ATOM     10  C   UNL     1      37.043 -18.618 -21.492  0.00  0.00    -0.015 C 
ENDROOT
BRANCH   3  15
ATOM     11  F   UNL     1      32.270 -21.441 -19.278  0.00  0.00    -0.204 F 
ATOM     12  C   UNL     1      33.585 -22.941 -15.662  0.00  0.00    +0.046 C 
ATOM     13  C   UNL     1      32.257 -23.118 -16.054  0.00  0.00    -0.006 C 
ATOM     14  C   UNL     1      34.471 -22.254 -16.491  0.00  0.00    +0.021 C 
ATOM     15  C   UNL     1      34.031 -21.747 -17.714  0.00  0.00    +0.082 C 
ATOM     16  C   UNL     1      31.817 -22.610 -17.275  0.00  0.00    +0.027 C 
ATOM     17  C   UNL     1      31.281 -23.847 -15.187  0.00  0.00    +0.032 C 
ATOM     18  C   UNL     1      32.705 -21.924 -18.105  0.00  0.00    +0.144 C 
BRANCH  12  20
ATOM     19  N   UNL     1      34.073 -23.947 -12.290  0.00  0.00    -0.255 NA
ATOM     20  N   UNL     1      34.042 -23.437 -14.452  0.00  0.00    -0.282 N 
ATOM     21  C   UNL     1      35.233 -24.368 -12.892  0.00  0.00    +0.053 C 
ATOM     22  C   UNL     1      35.236 -24.063 -14.232  0.00  0.00    +0.134 C 
ATOM     23  C   UNL     1      33.378 -23.391 -13.257  0.00  0.00    +0.219 C 
BRANCH  21  24
ATOM     24  C   UNL     1      36.365 -25.081 -12.160  0.00  0.00    +0.037 C 
ATOM     25  C   UNL     1      37.503 -24.263 -11.623  0.00  0.00    +0.006 C 
ATOM     26  C   UNL     1      37.713 -25.153 -12.814  0.00  0.00    +0.006 C 
ENDBRANCH  21  24
ENDBRANCH  12  20
ENDBRANCH   3  15
BRANCH   6  30
ATOM     27  N   UNL     1      33.860 -16.158 -23.485  0.00  0.00    -0.252 N 
ATOM     28  N   UNL     1      33.396 -18.102 -24.375  0.00  0.00    -0.129 NA
ATOM     29  N   UNL     1      32.721 -17.127 -25.082  0.00  0.00    -0.128 NA
ATOM     30  C   UNL     1      34.072 -17.501 -23.422  0.00  0.00    +0.188 C 
ATOM     31  C   UNL     1      33.012 -15.969 -24.535  0.00  0.00    +0.192 C 
BRANCH  27  32
ATOM     32  C   UNL     1      34.407 -15.128 -22.635  0.00  0.00    +0.080 C 
ATOM     33  C   UNL     1      33.928 -13.737 -23.055  0.00  0.00    +0.022 C 
ATOM     34  C   UNL     1      34.093 -15.391 -21.160  0.00  0.00    +0.022 C 
ENDBRANCH  27  32
ENDBRANCH   6  30
TORSDOF 5
ENDMDL
MODEL 3
REMARK VINA RESULT:     -12.4      2.026     10.662
REMARK  Name = 71245288
REMARK  5 active torsions:
REMARK  status: ('A' for Active; 'I' for Inactive)
REMARK    1  A    between atoms: C_3  and  C_9
REMARK    2  A    between atoms: C_6  and  N_14
REMARK    3  A    between atoms: C_15  and  C_18
REMARK    4  A    between atoms: C_22  and  C_30
REMARK    5  A    between atoms: N_27  and  C_32
REMARK                            x       y       z     vdW  Elec       q    Type
REMARK                         _______ _______ _______ _____ _____    ______ ____
ROOT
ATOM      1  O   UNL     1      35.722 -21.629 -19.820  0.00  0.00    -0.270 OA
ATOM      2  N   UNL     1      34.370 -19.720 -19.622  0.00  0.00    -0.259 N 
ATOM      3  C   UNL     1      34.776 -21.022 -19.293  0.00  0.00    +0.253 C 
ATOM      4  H   UNL     1      33.601 -19.372 -19.117  0.00  0.00    +0.157 HD
ATOM      5  N   UNL     1      34.366 -17.621 -20.741  0.00  0.00    -0.388 NA
ATOM      6  C   UNL     1      34.925 -16.819 -21.674  0.00  0.00    +0.166 C 
ATOM      7  C   UNL     1      34.921 -18.843 -20.588  0.00  0.00    +0.167 C 
ATOM      8  C   UNL     1      36.010 -17.181 -22.457  0.00  0.00    +0.031 C 
ATOM      9  C   UNL     1      36.006 -19.299 -21.320  0.00  0.00    +0.101 C 
ATOM     10  C   UNL     1      36.555 -18.446 -22.271  0.00  0.00    -0.015 C 
ENDROOT
BRANCH   3  15
ATOM     11  F   UNL     1      31.979 -21.261 -19.364  0.00  0.00    -0.204 F 
ATOM     12  C   UNL     1      33.980 -22.822 -16.106  0.00  0.00    +0.046 C 
ATOM     13  C   UNL     1      32.590 -22.917 -16.187  0.00  0.00    -0.006 C 
ATOM     14  C   UNL     1      34.697 -22.199 -17.127  0.00  0.00    +0.021 C 
ATOM     15  C   UNL     1      34.025 -21.671 -18.229  0.00  0.00    +0.082 C 
ATOM     16  C   UNL     1      31.919 -22.388 -17.288  0.00  0.00    +0.027 C 
ATOM     17  C   UNL     1      31.791 -23.577 -15.109  0.00  0.00    +0.032 C 
ATOM     18  C   UNL     1      32.636 -21.765 -18.309  0.00  0.00    +0.144 C 
BRANCH  12  20
ATOM     19  N   UNL     1      35.469 -23.515 -12.956  0.00  0.00    -0.255 NA
ATOM     20  N   UNL     1      34.666 -23.340 -15.021  0.00  0.00    -0.282 N 
ATOM     21  C   UNL     1      35.876 -24.585 -13.714  0.00  0.00    +0.053 C 
ATOM     22  C   UNL     1      35.391 -24.499 -14.997  0.00  0.00    +0.134 C 
ATOM     23  C   UNL     1      34.742 -22.785 -13.773  0.00  0.00    +0.219 C 
BRANCH  21  24
ATOM     24  C   UNL     1      36.753 -25.718 -13.190  0.00  0.00    +0.037 C 
ATOM     25  C   UNL     1      37.446 -25.542 -11.871  0.00  0.00    +0.006 C 
ATOM     26  C   UNL     1      38.239 -25.517 -13.145  0.00  0.00    +0.006 C 
ENDBRANCH  21  24
ENDBRANCH  12  20
ENDBRANCH   3  15
BRANCH   6  30
ATOM     27  N   UNL     1      33.845 -15.019 -22.982  0.00  0.00    -0.252 N 
ATOM     28  N   UNL     1      34.092 -14.665 -20.837  0.00  0.00    -0.129 NA
ATOM     29  N   UNL     1      33.477 -13.562 -21.394  0.00  0.00    -0.128 NA
ATOM     30  C   UNL     1      34.305 -15.527 -21.806  0.00  0.00    +0.188 C 
ATOM     31  C   UNL     1      33.337 -13.792 -22.679  0.00  0.00    +0.192 C 
BRANCH  27  32
ATOM     32  C   UNL     1      33.875 -15.631 -24.289  0.00  0.00    +0.080 C 
ATOM     33  C   UNL     1      33.108 -16.955 -24.309  0.00  0.00    +0.022 C 
ATOM     34  C   UNL     1      33.350 -14.681 -25.367  0.00  0.00    +0.022 C 
ENDBRANCH  27  32
ENDBRANCH   6  30
TORSDOF 5
ENDMDL
MODEL 4
REMARK VINA RESULT:     -12.3      5.864     12.981
REMARK  Name = 71245288
REMARK  5 active torsions:
REMARK  status: ('A' for Active; 'I' for Inactive)
REMARK    1  A    between atoms: C_3  and  C_9
REMARK    2  A    between atoms: C_6  and  N_14
REMARK    3  A    between atoms: C_15  and  C_18
REMARK    4  A    between atoms: C_22  and  C_30
REMARK    5  A    between atoms: N_27  and  C_32
REMARK                            x       y       z     vdW  Elec       q    Type
REMARK                         _______ _______ _______ _____ _____    ______ ____
ROOT
ATOM      1  O   UNL     1      32.776 -13.434 -20.210  0.00  0.00    -0.270 OA
ATOM      2  N   UNL     1      32.562 -12.198 -22.193  0.00  0.00    -0.259 N 
ATOM      3  C   UNL     1      32.876 -13.341 -21.443  0.00  0.00    +0.253 C 
ATOM      4  H   UNL     1      32.693 -12.275 -23.166  0.00  0.00    +0.157 HD
ATOM      5  N   UNL     1      31.845  -9.974 -22.642  0.00  0.00    -0.388 NA
ATOM      6  C   UNL     1      31.389  -8.798 -22.157  0.00  0.00    +0.166 C 
ATOM      7  C   UNL     1      32.083 -10.947 -21.734  0.00  0.00    +0.167 C 
ATOM      8  C   UNL     1      31.160  -8.550 -20.813  0.00  0.00    +0.031 C 
ATOM      9  C   UNL     1      31.886 -10.799 -20.370  0.00  0.00    +0.101 C 
ATOM     10  C   UNL     1      31.416  -9.575 -19.909  0.00  0.00    -0.015 C 
ENDROOT
BRANCH   3  15
ATOM     11  F   UNL     1      32.622 -13.485 -24.236  0.00  0.00    -0.204 F 
ATOM     12  C   UNL     1      34.336 -16.689 -22.273  0.00  0.00    +0.046 C 
ATOM     13  C   UNL     1      34.188 -16.714 -23.660  0.00  0.00    -0.006 C 
ATOM     14  C   UNL     1      33.904 -15.580 -21.545  0.00  0.00    +0.021 C 
ATOM     15  C   UNL     1      33.325 -14.496 -22.205  0.00  0.00    +0.082 C 
ATOM     16  C   UNL     1      33.608 -15.631 -24.319  0.00  0.00    +0.027 C 
ATOM     17  C   UNL     1      34.639 -17.888 -24.470  0.00  0.00    +0.032 C 
ATOM     18  C   UNL     1      33.177 -14.521 -23.591  0.00  0.00    +0.144 C 
BRANCH  12  20
ATOM     19  N   UNL     1      36.449 -18.983 -20.573  0.00  0.00    -0.255 NA
ATOM     20  N   UNL     1      34.908 -17.755 -21.599  0.00  0.00    -0.282 N 
ATOM     21  C   UNL     1      35.249 -19.649 -20.590  0.00  0.00    +0.053 C 
ATOM     22  C   UNL     1      34.278 -18.907 -21.221  0.00  0.00    +0.134 C 
ATOM     23  C   UNL     1      36.209 -17.846 -21.188  0.00  0.00    +0.219 C 
BRANCH  21  24
ATOM     24  C   UNL     1      35.030 -21.032 -19.985  0.00  0.00    +0.037 C 
ATOM     25  C   UNL     1      33.912 -21.219 -19.002  0.00  0.00    +0.006 C 
ATOM     26  C   UNL     1      35.338 -21.239 -18.532  0.00  0.00    +0.006 C 
ENDBRANCH  21  24
ENDBRANCH  12  20
ENDBRANCH   3  15
BRANCH   6  30
ATOM     27  N   UNL     1      32.132  -7.081 -23.775  0.00  0.00    -0.252 N 
ATOM     28  N   UNL     1      29.976  -7.410 -23.609  0.00  0.00    -0.129 NA
ATOM     29  N   UNL     1      30.195  -6.426 -24.552  0.00  0.00    -0.128 NA
ATOM     30  C   UNL     1      31.149  -7.789 -23.155  0.00  0.00    +0.188 C 
ATOM     31  C   UNL     1      31.493  -6.243 -24.638  0.00  0.00    +0.192 C 
BRANCH  27  32
ATOM     32  C   UNL     1      33.559  -7.179 -23.581  0.00  0.00    +0.080 C 
ATOM     33  C   UNL     1      34.329  -6.741 -24.829  0.00  0.00    +0.022 C 
ATOM     34  C   UNL     1      34.015  -6.388 -22.353  0.00  0.00    +0.022 C 
ENDBRANCH  27  32
ENDBRANCH   6  30
TORSDOF 5
ENDMDL
MODEL 5
REMARK VINA RESULT:     -12.1      3.459     11.111
REMARK  Name = 71245288
REMARK  5 active torsions:
REMARK  status: ('A' for Active; 'I' for Inactive)
REMARK    1  A    between atoms: C_3  and  C_9
REMARK    2  A    between atoms: C_6  and  N_14
REMARK    3  A    between atoms: C_15  and  C_18
REMARK    4  A    between atoms: C_22  and  C_30
REMARK    5  A    between atoms: N_27  and  C_32
REMARK                            x       y       z     vdW  Elec       q    Type
REMARK                         _______ _______ _______ _____ _____    ______ ____
ROOT
ATOM      1  O   UNL     1      33.868 -17.937 -24.158  0.00  0.00    -0.270 OA
ATOM      2  N   UNL     1      34.091 -16.022 -22.820  0.00  0.00    -0.259 N 
ATOM      3  C   UNL     1      34.181 -17.396 -23.086  0.00  0.00    +0.253 C 
ATOM      4  H   UNL     1      34.376 -15.740 -21.921  0.00  0.00    +0.157 HD
ATOM      5  N   UNL     1      33.640 -13.719 -23.208  0.00  0.00    -0.388 NA
ATOM      6  C   UNL     1      33.203 -12.765 -24.061  0.00  0.00    +0.166 C 
ATOM      7  C   UNL     1      33.642 -14.986 -23.676  0.00  0.00    +0.167 C 
ATOM      8  C   UNL     1      32.772 -13.018 -25.353  0.00  0.00    +0.031 C 
ATOM      9  C   UNL     1      33.232 -15.344 -24.950  0.00  0.00    +0.101 C 
ATOM     10  C   UNL     1      32.789 -14.335 -25.799  0.00  0.00    -0.015 C 
ENDROOT
BRANCH   3  15
ATOM     11  F   UNL     1      36.919 -17.470 -22.464  0.00  0.00    -0.204 F 
ATOM     12  C   UNL     1      34.351 -19.791 -20.210  0.00  0.00    +0.046 C 
ATOM     13  C   UNL     1      35.719 -19.794 -19.939  0.00  0.00    -0.006 C 
ATOM     14  C   UNL     1      33.846 -19.003 -21.245  0.00  0.00    +0.021 C 
ATOM     15  C   UNL     1      34.710 -18.217 -22.008  0.00  0.00    +0.082 C 
ATOM     16  C   UNL     1      36.583 -19.010 -20.703  0.00  0.00    +0.027 C 
ATOM     17  C   UNL     1      36.293 -20.629 -18.839  0.00  0.00    +0.032 C 
ATOM     18  C   UNL     1      36.078 -18.221 -21.737  0.00  0.00    +0.144 C 
BRANCH  12  20
ATOM     19  N   UNL     1      31.560 -21.343 -18.655  0.00  0.00    -0.255 NA
ATOM     20  N   UNL     1      33.476 -20.563 -19.465  0.00  0.00    -0.282 N 
ATOM     21  C   UNL     1      32.617 -22.022 -18.103  0.00  0.00    +0.053 C 
ATOM     22  C   UNL     1      33.815 -21.556 -18.589  0.00  0.00    +0.134 C 
ATOM     23  C   UNL     1      32.111 -20.472 -19.471  0.00  0.00    +0.219 C 
BRANCH  21  24
ATOM     24  C   UNL     1      32.471 -23.147 -17.082  0.00  0.00    +0.037 C 
ATOM     25  C   UNL     1      31.523 -22.958 -15.934  0.00  0.00    +0.006 C 
ATOM     26  C   UNL     1      33.005 -22.935 -15.697  0.00  0.00    +0.006 C 
ENDBRANCH  21  24
ENDBRANCH  12  20
ENDBRANCH   3  15
BRANCH   6  30
ATOM     27  N   UNL     1      32.373 -10.992 -22.548  0.00  0.00    -0.252 N 
ATOM     28  N   UNL     1      34.020 -10.455 -23.884  0.00  0.00    -0.129 NA
ATOM     29  N   UNL     1      33.697  -9.349 -23.125  0.00  0.00    -0.128 NA
ATOM     30  C   UNL     1      33.215 -11.429 -23.525  0.00  0.00    +0.188 C 
ATOM     31  C   UNL     1      32.709  -9.690 -22.329  0.00  0.00    +0.192 C 
BRANCH  27  32
ATOM     32  C   UNL     1      31.337 -11.731 -21.869  0.00  0.00    +0.080 C 
ATOM     33  C   UNL     1      31.894 -12.522 -20.682  0.00  0.00    +0.022 C 
ATOM     34  C   UNL     1      30.192 -10.818 -21.425  0.00  0.00    +0.022 C 
ENDBRANCH  27  32
ENDBRANCH   6  30
TORSDOF 5
ENDMDL
MODEL 6
REMARK VINA RESULT:     -12.1      5.974     10.238
REMARK  Name = 71245288
REMARK  5 active torsions:
REMARK  status: ('A' for Active; 'I' for Inactive)
REMARK    1  A    between atoms: C_3  and  C_9
REMARK    2  A    between atoms: C_6  and  N_14
REMARK    3  A    between atoms: C_15  and  C_18
REMARK    4  A    between atoms: C_22  and  C_30
REMARK    5  A    between atoms: N_27  and  C_32
REMARK                            x       y       z     vdW  Elec       q    Type
REMARK                         _______ _______ _______ _____ _____    ______ ____
ROOT
ATOM      1  O   UNL     1      32.243 -12.695 -24.108  0.00  0.00    -0.270 OA
ATOM      2  N   UNL     1      33.198 -13.729 -22.230  0.00  0.00    -0.259 N 
ATOM      3  C   UNL     1      32.530 -12.694 -22.900  0.00  0.00    +0.253 C 
ATOM      4  H   UNL     1      33.356 -13.584 -21.269  0.00  0.00    +0.157 HD
ATOM      5  N   UNL     1      34.297 -15.815 -21.919  0.00  0.00    -0.388 NA
ATOM      6  C   UNL     1      34.736 -16.971 -22.465  0.00  0.00    +0.166 C 
ATOM      7  C   UNL     1      33.676 -14.954 -22.754  0.00  0.00    +0.167 C 
ATOM      8  C   UNL     1      34.583 -17.305 -23.801  0.00  0.00    +0.031 C 
ATOM      9  C   UNL     1      33.472 -15.194 -24.104  0.00  0.00    +0.101 C 
ATOM     10  C   UNL     1      33.938 -16.394 -24.629  0.00  0.00    -0.015 C 
ENDROOT
BRANCH   3  15
ATOM     11  F   UNL     1      31.812 -12.971 -20.200  0.00  0.00    -0.204 F 
ATOM     12  C   UNL     1      31.727  -9.188 -21.853  0.00  0.00    +0.046 C 
ATOM     13  C   UNL     1      31.379  -9.376 -20.515  0.00  0.00    -0.006 C 
ATOM     14  C   UNL     1      32.105 -10.279 -22.636  0.00  0.00    +0.021 C 
ATOM     15  C   UNL     1      32.135 -11.558 -22.081  0.00  0.00    +0.082 C 
ATOM     16  C   UNL     1      31.408 -10.655 -19.961  0.00  0.00    +0.027 C 
ATOM     17  C   UNL     1      30.967  -8.229 -19.649  0.00  0.00    +0.032 C 
ATOM     18  C   UNL     1      31.787 -11.746 -20.744  0.00  0.00    +0.144 C 
BRANCH  12  20
ATOM     19  N   UNL     1      30.918  -6.124 -23.458  0.00  0.00    -0.255 NA
ATOM     20  N   UNL     1      31.703  -7.926 -22.423  0.00  0.00    -0.282 N 
ATOM     21  C   UNL     1      32.243  -5.949 -23.145  0.00  0.00    +0.053 C 
ATOM     22  C   UNL     1      32.752  -7.053 -22.503  0.00  0.00    +0.134 C 
ATOM     23  C   UNL     1      30.624  -7.324 -23.009  0.00  0.00    +0.219 C 
BRANCH  21  24
ATOM     24  C   UNL     1      33.039  -4.689 -23.472  0.00  0.00    +0.037 C 
ATOM     25  C   UNL     1      32.783  -3.995 -24.778  0.00  0.00    +0.006 C 
ATOM     26  C   UNL     1      34.064  -4.749 -24.566  0.00  0.00    +0.006 C 
ENDBRANCH  21  24
ENDBRANCH  12  20
ENDBRANCH   3  15
BRANCH   6  30
ATOM     27  N   UNL     1      34.758 -18.852 -20.858  0.00  0.00    -0.252 N 
ATOM     28  N   UNL     1      36.668 -17.852 -21.229  0.00  0.00    -0.129 NA
ATOM     29  N   UNL     1      36.876 -18.864 -20.314  0.00  0.00    -0.128 NA
ATOM     30  C   UNL     1      35.392 -17.860 -21.542  0.00  0.00    +0.188 C 
ATOM     31  C   UNL     1      35.721 -19.453 -20.105  0.00  0.00    +0.192 C 
BRANCH  27  32
ATOM     32  C   UNL     1      33.362 -19.214 -20.904  0.00  0.00    +0.080 C 
ATOM     33  C   UNL     1      32.915 -19.557 -22.328  0.00  0.00    +0.022 C 
ATOM     34  C   UNL     1      33.046 -20.362 -19.943  0.00  0.00    +0.022 C 
ENDBRANCH  27  32
ENDBRANCH   6  30
TORSDOF 5
ENDMDL
MODEL 7
REMARK VINA RESULT:     -11.5      3.008      5.260
REMARK  Name = 71245288
REMARK  5 active torsions:
REMARK  status: ('A' for Active; 'I' for Inactive)
REMARK    1  A    between atoms: C_3  and  C_9
REMARK    2  A    between atoms: C_6  and  N_14
REMARK    3  A    between atoms: C_15  and  C_18
REMARK    4  A    between atoms: C_22  and  C_30
REMARK    5  A    between atoms: N_27  and  C_32
REMARK                            x       y       z     vdW  Elec       q    Type
REMARK                         _______ _______ _______ _____ _____    ______ ____
ROOT
ATOM      1  O   UNL     1      36.404 -18.248 -21.670  0.00  0.00    -0.270 OA
ATOM      2  N   UNL     1      34.291 -18.878 -20.868  0.00  0.00    -0.259 N 
ATOM      3  C   UNL     1      35.168 -18.138 -21.674  0.00  0.00    +0.253 C 
ATOM      4  H   UNL     1      33.334 -18.680 -20.984  0.00  0.00    +0.157 HD
ATOM      5  N   UNL     1      33.587 -20.464 -19.241  0.00  0.00    -0.388 NA
ATOM      6  C   UNL     1      33.933 -21.408 -18.337  0.00  0.00    +0.166 C 
ATOM      7  C   UNL     1      34.601 -19.873 -19.910  0.00  0.00    +0.167 C 
ATOM      8  C   UNL     1      35.239 -21.786 -18.072  0.00  0.00    +0.031 C 
ATOM      9  C   UNL     1      35.939 -20.181 -19.719  0.00  0.00    +0.101 C 
ATOM     10  C   UNL     1      36.256 -21.156 -18.781  0.00  0.00    -0.015 C 
ENDROOT
BRANCH   3  15
ATOM     11  F   UNL     1      34.641 -18.785 -24.355  0.00  0.00    -0.204 F 
ATOM     12  C   UNL     1      33.593 -15.019 -23.023  0.00  0.00    +0.046 C 
ATOM     13  C   UNL     1      33.351 -15.387 -24.347  0.00  0.00    -0.006 C 
ATOM     14  C   UNL     1      34.191 -15.923 -22.146  0.00  0.00    +0.021 C 
ATOM     15  C   UNL     1      34.546 -17.197 -22.592  0.00  0.00    +0.082 C 
ATOM     16  C   UNL     1      33.707 -16.659 -24.793  0.00  0.00    +0.027 C 
ATOM     17  C   UNL     1      32.713 -14.441 -25.314  0.00  0.00    +0.032 C 
ATOM     18  C   UNL     1      34.304 -17.564 -23.915  0.00  0.00    +0.144 C 
BRANCH  12  20
ATOM     19  N   UNL     1      33.250 -11.549 -22.345  0.00  0.00    -0.255 NA
ATOM     20  N   UNL     1      33.248 -13.760 -22.560  0.00  0.00    -0.282 N 
ATOM     21  C   UNL     1      32.327 -12.105 -21.495  0.00  0.00    +0.053 C 
ATOM     22  C   UNL     1      32.308 -13.475 -21.610  0.00  0.00    +0.134 C 
ATOM     23  C   UNL     1      33.786 -12.572 -22.972  0.00  0.00    +0.219 C 
BRANCH  21  24
ATOM     24  C   UNL     1      31.443 -11.300 -20.548  0.00  0.00    +0.037 C 
ATOM     25  C   UNL     1      30.334 -10.471 -21.129  0.00  0.00    +0.006 C 
ATOM     26  C   UNL     1      31.552  -9.804 -20.559  0.00  0.00    +0.006 C 
ENDBRANCH  21  24
ENDBRANCH  12  20
ENDBRANCH   3  15
BRANCH   6  30
ATOM     27  N   UNL     1      32.948 -22.767 -16.519  0.00  0.00    -0.252 N 
ATOM     28  N   UNL     1      31.558 -21.929 -17.986  0.00  0.00    -0.129 NA
ATOM     29  N   UNL     1      30.832 -22.649 -17.059  0.00  0.00    -0.128 NA
ATOM     30  C   UNL     1      32.824 -22.012 -17.646  0.00  0.00    +0.188 C 
ATOM     31  C   UNL     1      31.682 -23.143 -16.188  0.00  0.00    +0.192 C 
BRANCH  27  32
ATOM     32  C   UNL     1      34.154 -23.109 -15.805  0.00  0.00    +0.080 C 
ATOM     33  C   UNL     1      34.461 -22.096 -14.699  0.00  0.00    +0.022 C 
ATOM     34  C   UNL     1      34.089 -24.530 -15.239  0.00  0.00    +0.022 C 
ENDBRANCH  27  32
ENDBRANCH   6  30
TORSDOF 5
ENDMDL
MODEL 8
REMARK VINA RESULT:     -11.4      2.911      4.445
REMARK  Name = 71245288
REMARK  5 active torsions:
REMARK  status: ('A' for Active; 'I' for Inactive)
REMARK    1  A    between atoms: C_3  and  C_9
REMARK    2  A    between atoms: C_6  and  N_14
REMARK    3  A    between atoms: C_15  and  C_18
REMARK    4  A    between atoms: C_22  and  C_30
REMARK    5  A    between atoms: N_27  and  C_32
REMARK                            x       y       z     vdW  Elec       q    Type
REMARK                         _______ _______ _______ _____ _____    ______ ____
ROOT
ATOM      1  O   UNL     1      35.762 -20.237 -20.292  0.00  0.00    -0.270 OA
ATOM      2  N   UNL     1      33.464 -20.135 -19.830  0.00  0.00    -0.259 N 
ATOM      3  C   UNL     1      34.633 -19.775 -20.516  0.00  0.00    +0.253 C 
ATOM      4  H   UNL     1      32.640 -19.681 -20.121  0.00  0.00    +0.157 HD
ATOM      5  N   UNL     1      32.081 -21.257 -18.253  0.00  0.00    -0.388 NA
ATOM      6  C   UNL     1      31.988 -22.153 -17.245  0.00  0.00    +0.166 C 
ATOM      7  C   UNL     1      33.314 -21.064 -18.772  0.00  0.00    +0.167 C 
ATOM      8  C   UNL     1      33.064 -22.863 -16.736  0.00  0.00    +0.031 C 
ATOM      9  C   UNL     1      34.452 -21.723 -18.335  0.00  0.00    +0.101 C 
ATOM     10  C   UNL     1      34.316 -22.638 -17.296  0.00  0.00    -0.015 C 
ENDROOT
BRANCH   3  15
ATOM     11  F   UNL     1      34.616 -20.512 -23.226  0.00  0.00    -0.204 F 
ATOM     12  C   UNL     1      34.150 -16.515 -22.298  0.00  0.00    +0.046 C 
ATOM     13  C   UNL     1      34.148 -16.930 -23.630  0.00  0.00    -0.006 C 
ATOM     14  C   UNL     1      34.310 -17.451 -21.275  0.00  0.00    +0.021 C 
ATOM     15  C   UNL     1      34.467 -18.802 -21.585  0.00  0.00    +0.082 C 
ATOM     16  C   UNL     1      34.307 -18.281 -23.939  0.00  0.00    +0.027 C 
ATOM     17  C   UNL     1      33.981 -15.954 -24.749  0.00  0.00    +0.032 C 
ATOM     18  C   UNL     1      34.465 -19.216 -22.916  0.00  0.00    +0.144 C 
BRANCH  12  20
ATOM     19  N   UNL     1      33.816 -13.350 -20.721  0.00  0.00    -0.255 NA
ATOM     20  N   UNL     1      33.996 -15.179 -21.969  0.00  0.00    -0.282 N 
ATOM     21  C   UNL     1      33.725 -13.025 -22.051  0.00  0.00    +0.053 C 
ATOM     22  C   UNL     1      33.833 -14.142 -22.845  0.00  0.00    +0.134 C 
ATOM     23  C   UNL     1      33.979 -14.654 -20.706  0.00  0.00    +0.219 C 
BRANCH  21  24
ATOM     24  C   UNL     1      33.528 -11.604 -22.572  0.00  0.00    +0.037 C 
ATOM     25  C   UNL     1      32.129 -11.096 -22.767  0.00  0.00    +0.006 C 
ATOM     26  C   UNL     1      32.985 -11.414 -23.958  0.00  0.00    +0.006 C 
ENDBRANCH  21  24
ENDBRANCH  12  20
ENDBRANCH   3  15
BRANCH   6  30
ATOM     27  N   UNL     1      30.384 -22.933 -15.531  0.00  0.00    -0.252 N 
ATOM     28  N   UNL     1      29.541 -21.945 -17.291  0.00  0.00    -0.129 NA
ATOM     29  N   UNL     1      28.503 -22.306 -16.455  0.00  0.00    -0.128 NA
ATOM     30  C   UNL     1      30.659 -22.330 -16.720  0.00  0.00    +0.188 C 
ATOM     31  C   UNL     1      29.028 -22.895 -15.405  0.00  0.00    +0.192 C 
BRANCH  27  32
ATOM     32  C   UNL     1      31.313 -23.498 -14.582  0.00  0.00    +0.080 C 
ATOM     33  C   UNL     1      31.624 -22.520 -13.446  0.00  0.00    +0.022 C 
ATOM     34  C   UNL     1      30.810 -24.834 -14.030  0.00  0.00    +0.022 C 
ENDBRANCH  27  32
ENDBRANCH   6  30
TORSDOF 5
ENDMDL
MODEL 9
REMARK VINA RESULT:     -11.2      2.233      9.949
REMARK  Name = 71245288
REMARK  5 active torsions:
REMARK  status: ('A' for Active; 'I' for Inactive)
REMARK    1  A    between atoms: C_3  and  C_9
REMARK    2  A    between atoms: C_6  and  N_14
REMARK    3  A    between atoms: C_15  and  C_18
REMARK    4  A    between atoms: C_22  and  C_30
REMARK    5  A    between atoms: N_27  and  C_32
REMARK                            x       y       z     vdW  Elec       q    Type
REMARK                         _______ _______ _______ _____ _____    ______ ____
ROOT
ATOM      1  O   UNL     1      34.698 -21.980 -20.397  0.00  0.00    -0.270 OA
ATOM      2  N   UNL     1      34.388 -19.801 -19.582  0.00  0.00    -0.259 N 
ATOM      3  C   UNL     1      34.528 -21.191 -19.455  0.00  0.00    +0.253 C 
ATOM      4  H   UNL     1      34.259 -19.306 -18.741  0.00  0.00    +0.157 HD
ATOM      5  N   UNL     1      34.252 -17.680 -20.651  0.00  0.00    -0.388 NA
ATOM      6  C   UNL     1      34.277 -16.975 -21.803  0.00  0.00    +0.166 C 
ATOM      7  C   UNL     1      34.407 -19.018 -20.761  0.00  0.00    +0.167 C 
ATOM      8  C   UNL     1      34.451 -17.542 -23.056  0.00  0.00    +0.031 C 
ATOM      9  C   UNL     1      34.588 -19.681 -21.965  0.00  0.00    +0.101 C 
ATOM     10  C   UNL     1      34.608 -18.921 -23.130  0.00  0.00    -0.015 C 
ENDROOT
BRANCH   3  15
ATOM     11  F   UNL     1      36.823 -21.332 -17.842  0.00  0.00    -0.204 F 
ATOM     12  C   UNL     1      33.248 -22.658 -16.254  0.00  0.00    +0.046 C 
ATOM     13  C   UNL     1      34.416 -22.708 -15.492  0.00  0.00    -0.006 C 
ATOM     14  C   UNL     1      33.286 -22.160 -17.557  0.00  0.00    +0.021 C 
ATOM     15  C   UNL     1      34.492 -21.710 -18.097  0.00  0.00    +0.082 C 
ATOM     16  C   UNL     1      35.620 -22.260 -16.032  0.00  0.00    +0.027 C 
ATOM     17  C   UNL     1      34.410 -23.238 -14.094  0.00  0.00    +0.032 C 
ATOM     18  C   UNL     1      35.658 -21.761 -17.334  0.00  0.00    +0.144 C 
BRANCH  12  20
ATOM     19  N   UNL     1      30.607 -24.136 -14.395  0.00  0.00    -0.255 NA
ATOM     20  N   UNL     1      32.042 -23.099 -15.738  0.00  0.00    -0.282 N 
ATOM     21  C   UNL     1      29.930 -23.475 -15.390  0.00  0.00    +0.053 C 
ATOM     22  C   UNL     1      30.798 -22.825 -16.235  0.00  0.00    +0.134 C 
ATOM     23  C   UNL     1      31.876 -23.888 -14.633  0.00  0.00    +0.219 C 
BRANCH  21  24
ATOM     24  C   UNL     1      28.411 -23.469 -15.532  0.00  0.00    +0.037 C 
ATOM     25  C   UNL     1      27.806 -22.867 -16.767  0.00  0.00    +0.006 C 
ATOM     26  C   UNL     1      27.685 -22.159 -15.449  0.00  0.00    +0.006 C 
ENDBRANCH  21  24
ENDBRANCH  12  20
ENDBRANCH   3  15
BRANCH   6  30
ATOM     27  N   UNL     1      33.743 -14.712 -22.647  0.00  0.00    -0.252 N 
ATOM     28  N   UNL     1      34.273 -14.874 -20.531  0.00  0.00    -0.129 NA
ATOM     29  N   UNL     1      34.011 -13.549 -20.814  0.00  0.00    -0.128 NA
ATOM     30  C   UNL     1      34.108 -15.555 -21.642  0.00  0.00    +0.188 C 
ATOM     31  C   UNL     1      33.695 -13.471 -22.086  0.00  0.00    +0.192 C 
BRANCH  27  32
ATOM     32  C   UNL     1      33.460 -15.037 -24.024  0.00  0.00    +0.080 C 
ATOM     33  C   UNL     1      32.618 -13.951 -24.698  0.00  0.00    +0.022 C 
ATOM     34  C   UNL     1      34.742 -15.302 -24.816  0.00  0.00    +0.022 C 
ENDBRANCH  27  32
ENDBRANCH   6  30
TORSDOF 5
ENDMDL
