MODEL 1
REMARK VINA RESULT:     -13.1      0.000      0.000
REMARK  Name = 5326869
REMARK  6 active torsions:
REMARK  status: ('A' for Active; 'I' for Inactive)
REMARK    1  A    between atoms: N_2  and  C_11
REMARK    2  A    between atoms: C_3  and  C_25
REMARK    3  A    between atoms: N_5  and  C_14
REMARK    4  A    between atoms: C_14  and  C_15
REMARK    5  A    between atoms: C_15  and  C_17
REMARK    6  A    between atoms: C_23  and  N_30
REMARK                            x       y       z     vdW  Elec       q    Type
REMARK                         _______ _______ _______ _____ _____    ______ ____
ROOT
ATOM      1  O   UNL     1      32.631 -20.860 -20.240  0.00  0.00    -0.270 OA
ATOM      2  N   UNL     1      34.615 -19.598 -20.231  0.00  0.00    -0.280 N 
ATOM      3  C   UNL     1      33.717 -20.562 -19.754  0.00  0.00    +0.250 C 
ATOM      4  H   UNL     1      35.445 -19.489 -19.713  0.00  0.00    +0.155 HD
ENDROOT
BRANCH   2  11
ATOM      5  N   UNL     1      34.144 -15.235 -22.455  0.00  0.00    -0.286 N 
ATOM      6  C   UNL     1      34.253 -16.601 -22.323  0.00  0.00    +0.053 C 
ATOM      7  C   UNL     1      34.205 -17.143 -23.609  0.00  0.00    +0.015 C 
ATOM      8  C   UNL     1      34.029 -14.896 -23.777  0.00  0.00    +0.065 C 
ATOM      9  C   UNL     1      34.388 -17.390 -21.175  0.00  0.00    +0.029 C 
ATOM     10  C   UNL     1      34.064 -16.056 -24.516  0.00  0.00    +0.017 C 
ATOM     11  C   UNL     1      34.478 -18.775 -21.349  0.00  0.00    +0.052 C 
ATOM     12  C   UNL     1      34.297 -18.541 -23.759  0.00  0.00    +0.003 C 
ATOM     13  C   UNL     1      34.433 -19.343 -22.621  0.00  0.00    +0.015 C 
BRANCH   5  14
ATOM     14  C   UNL     1      34.150 -14.282 -21.366  0.00  0.00    +0.100 C 
BRANCH  14  15
ATOM     15  C   UNL     1      32.748 -13.911 -20.871  0.00  0.00    +0.048 C 
BRANCH  15  17
ATOM     16  N   UNL     1      31.469 -10.022 -22.137  0.00  0.00    -0.242 NA
ATOM     17  C   UNL     1      32.299 -12.542 -21.316  0.00  0.00    -0.017 C 
ATOM     18  C   UNL     1      32.700 -12.060 -22.548  0.00  0.00    +0.016 C 
ATOM     19  C   UNL     1      31.490 -11.788 -20.487  0.00  0.00    +0.016 C 
ATOM     20  C   UNL     1      32.260 -10.797 -22.911  0.00  0.00    +0.099 C 
ATOM     21  C   UNL     1      31.104 -10.538 -20.942  0.00  0.00    +0.099 C 
ENDBRANCH  15  17
ENDBRANCH  14  15
ENDBRANCH   5  14
ENDBRANCH   2  11
BRANCH   3  25
ATOM     22  F   UNL     1      37.167 -22.023 -16.698  0.00  0.00    -0.204 F 
ATOM     23  C   UNL     1      33.564 -22.505 -16.554  0.00  0.00    +0.050 C 
ATOM     24  C   UNL     1      33.170 -21.847 -17.720  0.00  0.00    +0.019 C 
ATOM     25  C   UNL     1      34.135 -21.265 -18.514  0.00  0.00    +0.057 C 
ATOM     26  C   UNL     1      34.914 -22.564 -16.210  0.00  0.00    +0.044 C 
ATOM     27  C   UNL     1      35.477 -21.309 -18.195  0.00  0.00    +0.034 C 
ATOM     28  C   UNL     1      35.871 -21.967 -17.030  0.00  0.00    +0.142 C 
BRANCH  23  30
ATOM     29  O   UNL     1      30.619 -24.056 -13.985  0.00  0.00    -0.350 OA
ATOM     30  N   UNL     1      32.605 -23.105 -15.732  0.00  0.00    -0.303 N 
ATOM     31  C   UNL     1      32.938 -23.440 -14.343  0.00  0.00    +0.123 C 
ATOM     32  C   UNL     1      31.190 -22.798 -15.979  0.00  0.00    +0.123 C 
ATOM     33  C   UNL     1      31.967 -24.493 -13.820  0.00  0.00    +0.164 C 
ATOM     34  C   UNL     1      30.312 -23.885 -15.370  0.00  0.00    +0.164 C 
ENDBRANCH  23  30
ENDBRANCH   3  25
TORSDOF 6
ENDMDL
MODEL 2
REMARK VINA RESULT:     -12.7      2.119      2.952
REMARK  Name = 5326869
REMARK  6 active torsions:
REMARK  status: ('A' for Active; 'I' for Inactive)
REMARK    1  A    between atoms: N_2  and  C_11
REMARK    2  A    between atoms: C_3  and  C_25
REMARK    3  A    between atoms: N_5  and  C_14
REMARK    4  A    between atoms: C_14  and  C_15
REMARK    5  A    between atoms: C_15  and  C_17
REMARK    6  A    between atoms: C_23  and  N_30
REMARK                            x       y       z     vdW  Elec       q    Type
REMARK                         _______ _______ _______ _____ _____    ______ ____
ROOT
ATOM      1  O   UNL     1      36.068 -20.702 -20.173  0.00  0.00    -0.270 OA
ATOM      2  N   UNL     1      33.980 -19.623 -20.232  0.00  0.00    -0.280 N 
ATOM      3  C   UNL     1      34.939 -20.513 -19.732  0.00  0.00    +0.250 C 
ATOM      4  H   UNL     1      33.121 -19.600 -19.752  0.00  0.00    +0.155 HD
ENDROOT
BRANCH   2  11
ATOM      5  N   UNL     1      34.236 -15.185 -22.341  0.00  0.00    -0.286 N 
ATOM      6  C   UNL     1      34.208 -16.558 -22.244  0.00  0.00    +0.053 C 
ATOM      7  C   UNL     1      34.322 -17.064 -23.540  0.00  0.00    +0.015 C 
ATOM      8  C   UNL     1      34.363 -14.807 -23.651  0.00  0.00    +0.065 C 
ATOM      9  C   UNL     1      34.091 -17.382 -21.119  0.00  0.00    +0.029 C 
ATOM     10  C   UNL     1      34.419 -15.948 -24.418  0.00  0.00    +0.017 C 
ATOM     11  C   UNL     1      34.092 -18.765 -21.327  0.00  0.00    +0.052 C 
ATOM     12  C   UNL     1      34.321 -18.462 -23.725  0.00  0.00    +0.003 C 
ATOM     13  C   UNL     1      34.205 -19.298 -22.609  0.00  0.00    +0.015 C 
BRANCH   5  14
ATOM     14  C   UNL     1      34.146 -14.262 -21.231  0.00  0.00    +0.100 C 
BRANCH  14  15
ATOM     15  C   UNL     1      32.706 -13.917 -20.838  0.00  0.00    +0.048 C 
BRANCH  15  17
ATOM     16  N   UNL     1      31.469 -10.029 -22.149  0.00  0.00    -0.242 NA
ATOM     17  C   UNL     1      32.270 -12.549 -21.299  0.00  0.00    -0.017 C 
ATOM     18  C   UNL     1      31.469 -11.777 -20.479  0.00  0.00    +0.016 C 
ATOM     19  C   UNL     1      32.679 -12.086 -22.536  0.00  0.00    +0.016 C 
ATOM     20  C   UNL     1      31.096 -10.527 -20.949  0.00  0.00    +0.099 C 
ATOM     21  C   UNL     1      32.252 -10.823 -22.913  0.00  0.00    +0.099 C 
ENDBRANCH  15  17
ENDBRANCH  14  15
ENDBRANCH   5  14
ENDBRANCH   2  11
BRANCH   3  25
ATOM     22  F   UNL     1      31.500 -22.809 -17.227  0.00  0.00    -0.204 F 
ATOM     23  C   UNL     1      35.049 -22.437 -16.519  0.00  0.00    +0.050 C 
ATOM     24  C   UNL     1      35.452 -21.679 -17.619  0.00  0.00    +0.019 C 
ATOM     25  C   UNL     1      34.511 -21.319 -18.560  0.00  0.00    +0.057 C 
ATOM     26  C   UNL     1      33.715 -22.819 -16.387  0.00  0.00    +0.044 C 
ATOM     27  C   UNL     1      33.184 -21.684 -18.452  0.00  0.00    +0.034 C 
ATOM     28  C   UNL     1      32.781 -22.442 -17.353  0.00  0.00    +0.142 C 
BRANCH  23  30
ATOM     29  O   UNL     1      37.839 -23.319 -13.499  0.00  0.00    -0.350 OA
ATOM     30  N   UNL     1      35.984 -22.815 -15.550  0.00  0.00    -0.303 N 
ATOM     31  C   UNL     1      37.405 -22.505 -15.743  0.00  0.00    +0.123 C 
ATOM     32  C   UNL     1      35.543 -22.883 -14.150  0.00  0.00    +0.123 C 
ATOM     33  C   UNL     1      38.255 -23.413 -14.861  0.00  0.00    +0.164 C 
ATOM     34  C   UNL     1      36.493 -23.770 -13.353  0.00  0.00    +0.164 C 
ENDBRANCH  23  30
ENDBRANCH   3  25
TORSDOF 6
ENDMDL
MODEL 3
REMARK VINA RESULT:     -12.6      4.785     11.822
REMARK  Name = 5326869
REMARK  6 active torsions:
REMARK  status: ('A' for Active; 'I' for Inactive)
REMARK    1  A    between atoms: N_2  and  C_11
REMARK    2  A    between atoms: C_3  and  C_25
REMARK    3  A    between atoms: N_5  and  C_14
REMARK    4  A    between atoms: C_14  and  C_15
REMARK    5  A    between atoms: C_15  and  C_17
REMARK    6  A    between atoms: C_23  and  N_30
REMARK                            x       y       z     vdW  Elec       q    Type
REMARK                         _______ _______ _______ _____ _____    ______ ____
ROOT
ATOM      1  O   UNL     1      30.509 -11.935 -22.368  0.00  0.00    -0.270 OA
ATOM      2  N   UNL     1      32.807 -12.235 -21.973  0.00  0.00    -0.280 N 
ATOM      3  C   UNL     1      31.566 -11.597 -21.847  0.00  0.00    +0.250 C 
ATOM      4  H   UNL     1      33.555 -11.824 -21.483  0.00  0.00    +0.155 HD
ENDROOT
BRANCH   2  11
ATOM      5  N   UNL     1      34.532 -16.816 -22.467  0.00  0.00    -0.286 N 
ATOM      6  C   UNL     1      33.975 -15.610 -22.830  0.00  0.00    +0.053 C 
ATOM      7  C   UNL     1      33.713 -15.674 -24.200  0.00  0.00    +0.015 C 
ATOM      8  C   UNL     1      34.631 -17.637 -23.559  0.00  0.00    +0.065 C 
ATOM      9  C   UNL     1      33.686 -14.480 -22.057  0.00  0.00    +0.029 C 
ATOM     10  C   UNL     1      34.132 -16.958 -24.647  0.00  0.00    +0.017 C 
ATOM     11  C   UNL     1      33.112 -13.382 -22.706  0.00  0.00    +0.052 C 
ATOM     12  C   UNL     1      33.134 -14.555 -24.832  0.00  0.00    +0.003 C 
ATOM     13  C   UNL     1      32.840 -13.418 -24.072  0.00  0.00    +0.015 C 
BRANCH   5  14
ATOM     14  C   UNL     1      34.955 -17.180 -21.132  0.00  0.00    +0.100 C 
BRANCH  14  15
ATOM     15  C   UNL     1      35.706 -18.513 -21.072  0.00  0.00    +0.048 C 
BRANCH  15  17
ATOM     16  N   UNL     1      33.487 -21.627 -19.137  0.00  0.00    -0.242 NA
ATOM     17  C   UNL     1      34.925 -19.610 -20.391  0.00  0.00    -0.017 C 
ATOM     18  C   UNL     1      35.595 -20.564 -19.650  0.00  0.00    +0.016 C 
ATOM     19  C   UNL     1      33.548 -19.644 -20.517  0.00  0.00    +0.016 C 
ATOM     20  C   UNL     1      34.833 -21.550 -19.045  0.00  0.00    +0.099 C 
ATOM     21  C   UNL     1      32.878 -20.671 -19.873  0.00  0.00    +0.099 C 
ENDBRANCH  15  17
ENDBRANCH  14  15
ENDBRANCH   5  14
ENDBRANCH   2  11
BRANCH   3  25
ATOM     22  F   UNL     1      31.464  -9.445 -17.518  0.00  0.00    -0.204 F 
ATOM     23  C   UNL     1      31.613  -7.986 -20.848  0.00  0.00    +0.050 C 
ATOM     24  C   UNL     1      31.613  -9.139 -21.634  0.00  0.00    +0.019 C 
ATOM     25  C   UNL     1      31.563 -10.368 -21.012  0.00  0.00    +0.057 C 
ATOM     26  C   UNL     1      31.562  -8.089 -19.459  0.00  0.00    +0.044 C 
ATOM     27  C   UNL     1      31.512 -10.498 -19.639  0.00  0.00    +0.034 C 
ATOM     28  C   UNL     1      31.512  -9.345 -18.853  0.00  0.00    +0.142 C 
BRANCH  23  30
ATOM     29  O   UNL     1      31.944  -4.123 -22.476  0.00  0.00    -0.350 OA
ATOM     30  N   UNL     1      31.663  -6.727 -21.454  0.00  0.00    -0.303 N 
ATOM     31  C   UNL     1      30.815  -5.638 -20.954  0.00  0.00    +0.123 C 
ATOM     32  C   UNL     1      32.929  -6.302 -22.067  0.00  0.00    +0.123 C 
ATOM     33  C   UNL     1      30.664  -4.567 -22.029  0.00  0.00    +0.164 C 
ATOM     34  C   UNL     1      32.665  -5.196 -23.083  0.00  0.00    +0.164 C 
ENDBRANCH  23  30
ENDBRANCH   3  25
TORSDOF 6
ENDMDL
MODEL 4
REMARK VINA RESULT:     -12.3      3.578     10.680
REMARK  Name = 5326869
REMARK  6 active torsions:
REMARK  status: ('A' for Active; 'I' for Inactive)
REMARK    1  A    between atoms: N_2  and  C_11
REMARK    2  A    between atoms: C_3  and  C_25
REMARK    3  A    between atoms: N_5  and  C_14
REMARK    4  A    between atoms: C_14  and  C_15
REMARK    5  A    between atoms: C_15  and  C_17
REMARK    6  A    between atoms: C_23  and  N_30
REMARK                            x       y       z     vdW  Elec       q    Type
REMARK                         _______ _______ _______ _____ _____    ______ ____
ROOT
ATOM      1  O   UNL     1      34.195 -14.973 -20.336  0.00  0.00    -0.270 OA
ATOM      2  N   UNL     1      34.395 -16.469 -22.138  0.00  0.00    -0.280 N 
ATOM      3  C   UNL     1      34.073 -15.251 -21.523  0.00  0.00    +0.250 C 
ATOM      4  H   UNL     1      34.232 -16.519 -23.108  0.00  0.00    +0.155 HD
ENDROOT
BRANCH   2  11
ATOM      5  N   UNL     1      34.041 -20.639 -19.552  0.00  0.00    -0.286 N 
ATOM      6  C   UNL     1      34.629 -19.627 -20.278  0.00  0.00    +0.053 C 
ATOM      7  C   UNL     1      35.990 -19.921 -20.365  0.00  0.00    +0.015 C 
ATOM      8  C   UNL     1      34.983 -21.561 -19.180  0.00  0.00    +0.065 C 
ATOM      9  C   UNL     1      34.063 -18.484 -20.856  0.00  0.00    +0.029 C 
ATOM     10  C   UNL     1      36.200 -21.144 -19.669  0.00  0.00    +0.017 C 
ATOM     11  C   UNL     1      34.918 -17.619 -21.545  0.00  0.00    +0.052 C 
ATOM     12  C   UNL     1      36.832 -19.034 -21.066  0.00  0.00    +0.003 C 
ATOM     13  C   UNL     1      36.281 -17.888 -21.649  0.00  0.00    +0.015 C 
BRANCH   5  14
ATOM     14  C   UNL     1      32.635 -20.732 -19.224  0.00  0.00    +0.100 C 
BRANCH  14  15
ATOM     15  C   UNL     1      32.191 -22.144 -18.831  0.00  0.00    +0.048 C 
BRANCH  15  17
ATOM     16  N   UNL     1      31.976 -22.747 -14.593  0.00  0.00    -0.242 NA
ATOM     17  C   UNL     1      32.116 -22.355 -17.339  0.00  0.00    -0.017 C 
ATOM     18  C   UNL     1      30.896 -22.254 -16.698  0.00  0.00    +0.016 C 
ATOM     19  C   UNL     1      33.268 -22.650 -16.634  0.00  0.00    +0.016 C 
ATOM     20  C   UNL     1      30.879 -22.457 -15.327  0.00  0.00    +0.099 C 
ATOM     21  C   UNL     1      33.145 -22.836 -15.267  0.00  0.00    +0.099 C 
ENDBRANCH  15  17
ENDBRANCH  14  15
ENDBRANCH   5  14
ENDBRANCH   2  11
BRANCH   3  25
ATOM     22  F   UNL     1      32.848 -13.717 -25.942  0.00  0.00    -0.204 F 
ATOM     23  C   UNL     1      32.510 -12.063 -22.719  0.00  0.00    +0.050 C 
ATOM     24  C   UNL     1      33.046 -13.035 -21.874  0.00  0.00    +0.019 C 
ATOM     25  C   UNL     1      33.504 -14.215 -22.423  0.00  0.00    +0.057 C 
ATOM     26  C   UNL     1      32.443 -12.294 -24.093  0.00  0.00    +0.044 C 
ATOM     27  C   UNL     1      33.449 -14.467 -23.778  0.00  0.00    +0.034 C 
ATOM     28  C   UNL     1      32.913 -13.495 -24.623  0.00  0.00    +0.142 C 
BRANCH  23  30
ATOM     29  O   UNL     1      30.844  -8.505 -21.221  0.00  0.00    -0.350 OA
ATOM     30  N   UNL     1      32.039 -10.858 -22.188  0.00  0.00    -0.303 N 
ATOM     31  C   UNL     1      31.949  -9.667 -23.041  0.00  0.00    +0.123 C 
ATOM     32  C   UNL     1      31.063 -10.918 -21.092  0.00  0.00    +0.123 C 
ATOM     33  C   UNL     1      31.903  -8.414 -22.173  0.00  0.00    +0.164 C 
ATOM     34  C   UNL     1      31.064  -9.598 -20.329  0.00  0.00    +0.164 C 
ENDBRANCH  23  30
ENDBRANCH   3  25
TORSDOF 6
ENDMDL
MODEL 5
REMARK VINA RESULT:     -11.5      1.526      2.047
REMARK  Name = 5326869
REMARK  6 active torsions:
REMARK  status: ('A' for Active; 'I' for Inactive)
REMARK    1  A    between atoms: N_2  and  C_11
REMARK    2  A    between atoms: C_3  and  C_25
REMARK    3  A    between atoms: N_5  and  C_14
REMARK    4  A    between atoms: C_14  and  C_15
REMARK    5  A    between atoms: C_15  and  C_17
REMARK    6  A    between atoms: C_23  and  N_30
REMARK                            x       y       z     vdW  Elec       q    Type
REMARK                         _______ _______ _______ _____ _____    ______ ____
ROOT
ATOM      1  O   UNL     1      34.102 -21.051 -20.047  0.00  0.00    -0.270 OA
ATOM      2  N   UNL     1      35.403 -19.108 -20.293  0.00  0.00    -0.280 N 
ATOM      3  C   UNL     1      34.988 -20.292 -19.669  0.00  0.00    +0.250 C 
ATOM      4  H   UNL     1      36.133 -18.619 -19.848  0.00  0.00    +0.155 HD
ENDROOT
BRANCH   2  11
ATOM      5  N   UNL     1      33.947 -15.316 -23.068  0.00  0.00    -0.286 N 
ATOM      6  C   UNL     1      34.226 -16.619 -22.724  0.00  0.00    +0.053 C 
ATOM      7  C   UNL     1      33.918 -17.412 -23.831  0.00  0.00    +0.015 C 
ATOM      8  C   UNL     1      33.474 -15.258 -24.352  0.00  0.00    +0.065 C 
ATOM      9  C   UNL     1      34.722 -17.152 -21.528  0.00  0.00    +0.029 C 
ATOM     10  C   UNL     1      33.445 -16.539 -24.851  0.00  0.00    +0.017 C 
ATOM     11  C   UNL     1      34.909 -18.536 -21.465  0.00  0.00    +0.052 C 
ATOM     12  C   UNL     1      34.114 -18.805 -23.744  0.00  0.00    +0.003 C 
ATOM     13  C   UNL     1      34.610 -19.351 -22.555  0.00  0.00    +0.015 C 
BRANCH   5  14
ATOM     14  C   UNL     1      34.123 -14.163 -22.211  0.00  0.00    +0.100 C 
BRANCH  14  15
ATOM     15  C   UNL     1      32.862 -13.786 -21.428  0.00  0.00    +0.048 C 
BRANCH  15  17
ATOM     16  N   UNL     1      31.457  -9.827 -22.274  0.00  0.00    -0.242 NA
ATOM     17  C   UNL     1      32.367 -12.393 -21.726  0.00  0.00    -0.017 C 
ATOM     18  C   UNL     1      31.528 -11.761 -20.827  0.00  0.00    +0.016 C 
ATOM     19  C   UNL     1      32.759 -11.766 -22.894  0.00  0.00    +0.016 C 
ATOM     20  C   UNL     1      31.102 -10.482 -21.146  0.00  0.00    +0.099 C 
ATOM     21  C   UNL     1      32.278 -10.487 -23.121  0.00  0.00    +0.099 C 
ENDBRANCH  15  17
ENDBRANCH  14  15
ENDBRANCH   5  14
ENDBRANCH   2  11
BRANCH   3  25
ATOM     22  F   UNL     1      38.580 -19.541 -16.520  0.00  0.00    -0.204 F 
ATOM     23  C   UNL     1      35.862 -21.958 -16.429  0.00  0.00    +0.050 C 
ATOM     24  C   UNL     1      35.199 -21.644 -17.615  0.00  0.00    +0.019 C 
ATOM     25  C   UNL     1      35.694 -20.628 -18.406  0.00  0.00    +0.057 C 
ATOM     26  C   UNL     1      37.003 -21.248 -16.059  0.00  0.00    +0.044 C 
ATOM     27  C   UNL     1      36.821 -19.911 -18.062  0.00  0.00    +0.034 C 
ATOM     28  C   UNL     1      37.484 -20.224 -16.876  0.00  0.00    +0.142 C 
BRANCH  23  30
ATOM     29  O   UNL     1      34.459 -24.878 -13.748  0.00  0.00    -0.350 OA
ATOM     30  N   UNL     1      35.380 -22.984 -15.609  0.00  0.00    -0.303 N 
ATOM     31  C   UNL     1      36.320 -23.911 -14.968  0.00  0.00    +0.123 C 
ATOM     32  C   UNL     1      34.127 -22.756 -14.876  0.00  0.00    +0.123 C 
ATOM     33  C   UNL     1      35.589 -25.187 -14.563  0.00  0.00    +0.164 C 
ATOM     34  C   UNL     1      33.514 -24.093 -14.476  0.00  0.00    +0.164 C 
ENDBRANCH  23  30
ENDBRANCH   3  25
TORSDOF 6
ENDMDL
MODEL 6
REMARK VINA RESULT:     -11.4      4.385      8.540
REMARK  Name = 5326869
REMARK  6 active torsions:
REMARK  status: ('A' for Active; 'I' for Inactive)
REMARK    1  A    between atoms: N_2  and  C_11
REMARK    2  A    between atoms: C_3  and  C_25
REMARK    3  A    between atoms: N_5  and  C_14
REMARK    4  A    between atoms: C_14  and  C_15
REMARK    5  A    between atoms: C_15  and  C_17
REMARK    6  A    between atoms: C_23  and  N_30
REMARK                            x       y       z     vdW  Elec       q    Type
REMARK                         _______ _______ _______ _____ _____    ______ ____
ROOT
ATOM      1  O   UNL     1      34.217 -13.106 -20.364  0.00  0.00    -0.270 OA
ATOM      2  N   UNL     1      32.603 -12.487 -21.958  0.00  0.00    -0.280 N 
ATOM      3  C   UNL     1      33.567 -13.324 -21.381  0.00  0.00    +0.250 C 
ATOM      4  H   UNL     1      32.176 -12.823 -22.779  0.00  0.00    +0.155 HD
ENDROOT
BRANCH   2  11
ATOM      5  N   UNL     1      32.067  -7.613 -22.363  0.00  0.00    -0.286 N 
ATOM      6  C   UNL     1      31.969  -8.872 -21.814  0.00  0.00    +0.053 C 
ATOM      7  C   UNL     1      31.300  -8.738 -20.596  0.00  0.00    +0.015 C 
ATOM      8  C   UNL     1      31.484  -6.691 -21.535  0.00  0.00    +0.065 C 
ATOM      9  C   UNL     1      32.418 -10.106 -22.298  0.00  0.00    +0.029 C 
ATOM     10  C   UNL     1      30.999  -7.357 -20.433  0.00  0.00    +0.017 C 
ATOM     11  C   UNL     1      32.174 -11.236 -21.512  0.00  0.00    +0.052 C 
ATOM     12  C   UNL     1      31.065  -9.892 -19.821  0.00  0.00    +0.003 C 
ATOM     13  C   UNL     1      31.508 -11.133 -20.292  0.00  0.00    +0.015 C 
BRANCH   5  14
ATOM     14  C   UNL     1      32.691  -7.294 -23.629  0.00  0.00    +0.100 C 
BRANCH  14  15
ATOM     15  C   UNL     1      33.841  -6.290 -23.507  0.00  0.00    +0.048 C 
BRANCH  15  17
ATOM     16  N   UNL     1      33.230  -2.714 -25.789  0.00  0.00    -0.242 NA
ATOM     17  C   UNL     1      33.625  -5.032 -24.311  0.00  0.00    -0.017 C 
ATOM     18  C   UNL     1      32.542  -4.221 -24.029  0.00  0.00    +0.016 C 
ATOM     19  C   UNL     1      34.516  -4.706 -25.317  0.00  0.00    +0.016 C 
ATOM     20  C   UNL     1      32.389  -3.077 -24.795  0.00  0.00    +0.099 C 
ATOM     21  C   UNL     1      34.274  -3.540 -26.025  0.00  0.00    +0.099 C 
ENDBRANCH  15  17
ENDBRANCH  14  15
ENDBRANCH   5  14
ENDBRANCH   2  11
BRANCH   3  25
ATOM     22  F   UNL     1      33.827 -15.839 -25.502  0.00  0.00    -0.204 F 
ATOM     23  C   UNL     1      34.441 -16.900 -22.077  0.00  0.00    +0.050 C 
ATOM     24  C   UNL     1      34.194 -15.711 -21.391  0.00  0.00    +0.019 C 
ATOM     25  C   UNL     1      33.828 -14.592 -22.110  0.00  0.00    +0.057 C 
ATOM     26  C   UNL     1      34.317 -16.944 -23.465  0.00  0.00    +0.044 C 
ATOM     27  C   UNL     1      33.698 -14.609 -23.483  0.00  0.00    +0.034 C 
ATOM     28  C   UNL     1      33.945 -15.798 -24.169  0.00  0.00    +0.142 C 
BRANCH  23  30
ATOM     29  O   UNL     1      35.678 -20.448 -20.189  0.00  0.00    -0.350 OA
ATOM     30  N   UNL     1      34.814 -18.049 -21.372  0.00  0.00    -0.303 N 
ATOM     31  C   UNL     1      33.974 -19.252 -21.435  0.00  0.00    +0.123 C 
ATOM     32  C   UNL     1      36.246 -18.297 -21.156  0.00  0.00    +0.123 C 
ATOM     33  C   UNL     1      34.282 -20.157 -20.247  0.00  0.00    +0.164 C 
ATOM     34  C   UNL     1      36.432 -19.253 -19.983  0.00  0.00    +0.164 C 
ENDBRANCH  23  30
ENDBRANCH   3  25
TORSDOF 6
ENDMDL
MODEL 7
REMARK VINA RESULT:     -11.1      2.661     10.111
REMARK  Name = 5326869
REMARK  6 active torsions:
REMARK  status: ('A' for Active; 'I' for Inactive)
REMARK    1  A    between atoms: N_2  and  C_11
REMARK    2  A    between atoms: C_3  and  C_25
REMARK    3  A    between atoms: N_5  and  C_14
REMARK    4  A    between atoms: C_14  and  C_15
REMARK    5  A    between atoms: C_15  and  C_17
REMARK    6  A    between atoms: C_23  and  N_30
REMARK                            x       y       z     vdW  Elec       q    Type
REMARK                         _______ _______ _______ _____ _____    ______ ____
ROOT
ATOM      1  O   UNL     1      32.999 -20.522 -19.476  0.00  0.00    -0.270 OA
ATOM      2  N   UNL     1      35.328 -20.394 -19.181  0.00  0.00    -0.280 N 
ATOM      3  C   UNL     1      34.110 -20.139 -19.826  0.00  0.00    +0.250 C 
ATOM      4  H   UNL     1      36.129 -20.007 -19.604  0.00  0.00    +0.155 HD
ENDROOT
BRANCH   2  11
ATOM      5  N   UNL     1      33.923 -23.377 -15.531  0.00  0.00    -0.286 N 
ATOM      6  C   UNL     1      34.753 -22.582 -16.288  0.00  0.00    +0.053 C 
ATOM      7  C   UNL     1      36.007 -22.596 -15.675  0.00  0.00    +0.015 C 
ATOM      8  C   UNL     1      34.608 -23.892 -14.463  0.00  0.00    +0.065 C 
ATOM      9  C   UNL     1      34.491 -21.858 -17.457  0.00  0.00    +0.029 C 
ATOM     10  C   UNL     1      35.901 -23.427 -14.525  0.00  0.00    +0.017 C 
ATOM     11  C   UNL     1      35.545 -21.128 -18.015  0.00  0.00    +0.052 C 
ATOM     12  C   UNL     1      37.054 -21.852 -16.256  0.00  0.00    +0.003 C 
ATOM     13  C   UNL     1      36.807 -21.124 -17.425  0.00  0.00    +0.015 C 
BRANCH   5  14
ATOM     14  C   UNL     1      32.528 -23.642 -15.809  0.00  0.00    +0.100 C 
BRANCH  14  15
ATOM     15  C   UNL     1      31.570 -22.681 -15.099  0.00  0.00    +0.048 C 
BRANCH  15  17
ATOM     16  N   UNL     1      27.436 -23.577 -15.787  0.00  0.00    -0.242 NA
ATOM     17  C   UNL     1      30.115 -22.997 -15.342  0.00  0.00    -0.017 C 
ATOM     18  C   UNL     1      29.546 -24.099 -14.731  0.00  0.00    +0.016 C 
ATOM     19  C   UNL     1      29.370 -22.179 -16.171  0.00  0.00    +0.016 C 
ATOM     20  C   UNL     1      28.206 -24.345 -14.985  0.00  0.00    +0.099 C 
ATOM     21  C   UNL     1      28.039 -22.512 -16.360  0.00  0.00    +0.099 C 
ENDBRANCH  15  17
ENDBRANCH  14  15
ENDBRANCH   5  14
ENDBRANCH   2  11
BRANCH   3  25
ATOM     22  F   UNL     1      34.709 -19.866 -24.617  0.00  0.00    -0.204 F 
ATOM     23  C   UNL     1      34.164 -17.222 -22.177  0.00  0.00    +0.050 C 
ATOM     24  C   UNL     1      34.077 -17.970 -21.003  0.00  0.00    +0.019 C 
ATOM     25  C   UNL     1      34.205 -19.341 -21.076  0.00  0.00    +0.057 C 
ATOM     26  C   UNL     1      34.378 -17.862 -23.397  0.00  0.00    +0.044 C 
ATOM     27  C   UNL     1      34.417 -19.999 -22.270  0.00  0.00    +0.034 C 
ATOM     28  C   UNL     1      34.505 -19.251 -23.445  0.00  0.00    +0.142 C 
BRANCH  23  30
ATOM     29  O   UNL     1      34.059 -13.020 -22.046  0.00  0.00    -0.350 OA
ATOM     30  N   UNL     1      34.038 -15.830 -22.130  0.00  0.00    -0.303 N 
ATOM     31  C   UNL     1      34.149 -15.128 -20.846  0.00  0.00    +0.123 C 
ATOM     32  C   UNL     1      34.457 -15.055 -23.306  0.00  0.00    +0.123 C 
ATOM     33  C   UNL     1      33.502 -13.751 -20.954  0.00  0.00    +0.164 C 
ATOM     34  C   UNL     1      33.793 -13.683 -23.283  0.00  0.00    +0.164 C 
ENDBRANCH  23  30
ENDBRANCH   3  25
TORSDOF 6
ENDMDL
MODEL 8
REMARK VINA RESULT:     -11.1      5.719     10.334
REMARK  Name = 5326869
REMARK  6 active torsions:
REMARK  status: ('A' for Active; 'I' for Inactive)
REMARK    1  A    between atoms: N_2  and  C_11
REMARK    2  A    between atoms: C_3  and  C_25
REMARK    3  A    between atoms: N_5  and  C_14
REMARK    4  A    between atoms: C_14  and  C_15
REMARK    5  A    between atoms: C_15  and  C_17
REMARK    6  A    between atoms: C_23  and  N_30
REMARK                            x       y       z     vdW  Elec       q    Type
REMARK                         _______ _______ _______ _____ _____    ______ ____
ROOT
ATOM      1  O   UNL     1      32.033 -11.989 -21.166  0.00  0.00    -0.270 OA
ATOM      2  N   UNL     1      32.296 -10.374 -22.853  0.00  0.00    -0.280 N 
ATOM      3  C   UNL     1      32.295 -11.670 -22.320  0.00  0.00    +0.250 C 
ATOM      4  H   UNL     1      32.533 -10.300 -23.806  0.00  0.00    +0.155 HD
ENDROOT
BRANCH   2  11
ATOM      5  N   UNL     1      31.808  -5.484 -22.634  0.00  0.00    -0.286 N 
ATOM      6  C   UNL     1      31.797  -6.793 -22.209  0.00  0.00    +0.053 C 
ATOM      7  C   UNL     1      31.405  -6.786 -20.869  0.00  0.00    +0.015 C 
ATOM      8  C   UNL     1      31.436  -4.652 -21.612  0.00  0.00    +0.065 C 
ATOM      9  C   UNL     1      32.102  -7.970 -22.901  0.00  0.00    +0.029 C 
ATOM     10  C   UNL     1      31.180  -5.429 -20.506  0.00  0.00    +0.017 C 
ATOM     11  C   UNL     1      32.002  -9.176 -22.201  0.00  0.00    +0.052 C 
ATOM     12  C   UNL     1      31.310  -8.014 -20.184  0.00  0.00    +0.003 C 
ATOM     13  C   UNL     1      31.612  -9.200 -20.863  0.00  0.00    +0.015 C 
BRANCH   5  14
ATOM     14  C   UNL     1      32.156  -5.034 -23.965  0.00  0.00    +0.100 C 
BRANCH  14  15
ATOM     15  C   UNL     1      33.665  -4.883 -24.183  0.00  0.00    +0.048 C 
BRANCH  15  17
ATOM     16  N   UNL     1      34.796  -4.876 -28.317  0.00  0.00    -0.242 NA
ATOM     17  C   UNL     1      34.063  -4.880 -25.638  0.00  0.00    -0.017 C 
ATOM     18  C   UNL     1      35.320  -4.433 -25.999  0.00  0.00    +0.016 C 
ATOM     19  C   UNL     1      33.165  -5.325 -26.590  0.00  0.00    +0.016 C 
ATOM     20  C   UNL     1      35.637  -4.451 -27.348  0.00  0.00    +0.099 C 
ATOM     21  C   UNL     1      33.579  -5.303 -27.912  0.00  0.00    +0.099 C 
ENDBRANCH  15  17
ENDBRANCH  14  15
ENDBRANCH   5  14
ENDBRANCH   2  11
BRANCH   3  25
ATOM     22  F   UNL     1      32.906 -13.300 -26.831  0.00  0.00    -0.204 F 
ATOM     23  C   UNL     1      33.468 -14.971 -23.648  0.00  0.00    +0.050 C 
ATOM     24  C   UNL     1      33.104 -13.959 -22.759  0.00  0.00    +0.019 C 
ATOM     25  C   UNL     1      32.681 -12.749 -23.266  0.00  0.00    +0.057 C 
ATOM     26  C   UNL     1      33.401 -14.748 -25.023  0.00  0.00    +0.044 C 
ATOM     27  C   UNL     1      32.606 -12.503 -24.621  0.00  0.00    +0.034 C 
ATOM     28  C   UNL     1      32.970 -13.514 -25.510  0.00  0.00    +0.142 C 
BRANCH  23  30
ATOM     29  O   UNL     1      35.020 -18.631 -22.278  0.00  0.00    -0.350 OA
ATOM     30  N   UNL     1      33.900 -16.208 -23.160  0.00  0.00    -0.303 N 
ATOM     31  C   UNL     1      33.948 -17.372 -24.053  0.00  0.00    +0.123 C 
ATOM     32  C   UNL     1      34.882 -16.218 -22.067  0.00  0.00    +0.123 C 
ATOM     33  C   UNL     1      33.955 -18.654 -23.228  0.00  0.00    +0.164 C 
ATOM     34  C   UNL     1      34.840 -17.562 -21.348  0.00  0.00    +0.164 C 
ENDBRANCH  23  30
ENDBRANCH   3  25
TORSDOF 6
ENDMDL
MODEL 9
REMARK VINA RESULT:     -10.9      5.552      9.878
REMARK  Name = 5326869
REMARK  6 active torsions:
REMARK  status: ('A' for Active; 'I' for Inactive)
REMARK    1  A    between atoms: N_2  and  C_11
REMARK    2  A    between atoms: C_3  and  C_25
REMARK    3  A    between atoms: N_5  and  C_14
REMARK    4  A    between atoms: C_14  and  C_15
REMARK    5  A    between atoms: C_15  and  C_17
REMARK    6  A    between atoms: C_23  and  N_30
REMARK                            x       y       z     vdW  Elec       q    Type
REMARK                         _______ _______ _______ _____ _____    ______ ____
ROOT
ATOM      1  O   UNL     1      32.686 -12.413 -20.805  0.00  0.00    -0.270 OA
ATOM      2  N   UNL     1      32.370 -10.952 -22.620  0.00  0.00    -0.280 N 
ATOM      3  C   UNL     1      32.666 -12.178 -22.008  0.00  0.00    +0.250 C 
ATOM      4  H   UNL     1      32.401 -10.943 -23.604  0.00  0.00    +0.155 HD
ENDROOT
BRANCH   2  11
ATOM      5  N   UNL     1      32.102  -6.044 -22.416  0.00  0.00    -0.286 N 
ATOM      6  C   UNL     1      31.957  -7.353 -22.015  0.00  0.00    +0.053 C 
ATOM      7  C   UNL     1      31.359  -7.332 -20.754  0.00  0.00    +0.015 C 
ATOM      8  C   UNL     1      31.616  -5.199 -21.454  0.00  0.00    +0.065 C 
ATOM      9  C   UNL     1      32.309  -8.541 -22.666  0.00  0.00    +0.029 C 
ATOM     10  C   UNL     1      31.149  -5.967 -20.413  0.00  0.00    +0.017 C 
ATOM     11  C   UNL     1      32.038  -9.744 -22.006  0.00  0.00    +0.052 C 
ATOM     12  C   UNL     1      31.096  -8.557 -20.108  0.00  0.00    +0.003 C 
ATOM     13  C   UNL     1      31.441  -9.754 -20.747  0.00  0.00    +0.015 C 
BRANCH   5  14
ATOM     14  C   UNL     1      32.679  -5.607 -23.669  0.00  0.00    +0.100 C 
BRANCH  14  15
ATOM     15  C   UNL     1      31.694  -5.645 -24.842  0.00  0.00    +0.048 C 
BRANCH  15  17
ATOM     16  N   UNL     1      33.226  -3.828 -28.408  0.00  0.00    -0.242 NA
ATOM     17  C   UNL     1      32.232  -5.006 -26.097  0.00  0.00    -0.017 C 
ATOM     18  C   UNL     1      32.083  -3.645 -26.286  0.00  0.00    +0.016 C 
ATOM     19  C   UNL     1      32.869  -5.790 -27.042  0.00  0.00    +0.016 C 
ATOM     20  C   UNL     1      32.596  -3.106 -27.455  0.00  0.00    +0.099 C 
ATOM     21  C   UNL     1      33.346  -5.155 -28.176  0.00  0.00    +0.099 C 
ENDBRANCH  15  17
ENDBRANCH  14  15
ENDBRANCH   5  14
ENDBRANCH   2  11
BRANCH   3  25
ATOM     22  F   UNL     1      32.956 -13.996 -26.479  0.00  0.00    -0.204 F 
ATOM     23  C   UNL     1      33.850 -15.494 -23.287  0.00  0.00    +0.050 C 
ATOM     24  C   UNL     1      33.524 -14.455 -22.415  0.00  0.00    +0.019 C 
ATOM     25  C   UNL     1      33.012 -13.285 -22.936  0.00  0.00    +0.057 C 
ATOM     26  C   UNL     1      33.658 -15.339 -24.659  0.00  0.00    +0.044 C 
ATOM     27  C   UNL     1      32.813 -13.107 -24.289  0.00  0.00    +0.034 C 
ATOM     28  C   UNL     1      33.139 -14.145 -25.161  0.00  0.00    +0.142 C 
BRANCH  23  30
ATOM     29  O   UNL     1      35.165 -19.146 -21.669  0.00  0.00    -0.350 OA
ATOM     30  N   UNL     1      34.370 -16.691 -22.785  0.00  0.00    -0.303 N 
ATOM     31  C   UNL     1      34.861 -16.754 -21.403  0.00  0.00    +0.123 C 
ATOM     32  C   UNL     1      33.845 -17.955 -23.320  0.00  0.00    +0.123 C 
ATOM     33  C   UNL     1      35.802 -17.942 -21.244  0.00  0.00    +0.164 C 
ATOM     34  C   UNL     1      34.841 -19.079 -23.058  0.00  0.00    +0.164 C 
ENDBRANCH  23  30
ENDBRANCH   3  25
TORSDOF 6
ENDMDL
