MODEL 1
REMARK VINA RESULT:     -11.2      0.000      0.000
REMARK  Name = 16058682
REMARK  8 active torsions:
REMARK  status: ('A' for Active; 'I' for Inactive)
REMARK    1  A    between atoms: C_1  and  O_20
REMARK    2  A    between atoms: C_3  and  O_22
REMARK    3  A    between atoms: C_3  and  C_27
REMARK    4  A    between atoms: C_4  and  O_24
REMARK    5  A    between atoms: C_5  and  C_7
REMARK    6  A    between atoms: C_10  and  S_13
REMARK    7  A    between atoms: S_13  and  C_14
REMARK    8  A    between atoms: C_27  and  O_28
REMARK                            x       y       z     vdW  Elec       q    Type
REMARK                         _______ _______ _______ _____ _____    ______ ____
ROOT
ATOM      1  C   UNL     1      37.566 -25.479 -12.900  0.00  0.00    +0.145 C 
ATOM      2  C   UNL     1      37.523 -24.718 -11.571  0.00  0.00    +0.074 C 
ATOM      3  C   UNL     1      36.390 -23.684 -11.505  0.00  0.00    +0.198 C 
ATOM      4  C   UNL     1      37.616 -24.514 -14.095  0.00  0.00    +0.159 C 
ATOM      5  C   UNL     1      36.586 -23.407 -14.002  0.00  0.00    +0.005 C 
ATOM      6  C   UNL     1      36.047 -23.043 -12.821  0.00  0.00    +0.009 C 
ENDROOT
BRANCH   5   7
ATOM      7  C   UNL     1      36.145 -22.752 -15.259  0.00  0.00    -0.001 C 
ATOM      8  C   UNL     1      34.878 -23.018 -15.780  0.00  0.00    +0.006 C 
ATOM      9  C   UNL     1      36.998 -21.867 -15.920  0.00  0.00    -0.000 C 
ATOM     10  C   UNL     1      34.465 -22.400 -16.961  0.00  0.00    +0.029 C 
ATOM     11  C   UNL     1      36.586 -21.250 -17.101  0.00  0.00    +0.001 C 
ATOM     12  C   UNL     1      35.319 -21.516 -17.621  0.00  0.00    +0.006 C 
BRANCH  10  13
ATOM     13  S   UNL     1      32.847 -22.738 -17.626  0.00  0.00    -0.087 S 
BRANCH  13  14
ATOM     14  C   UNL     1      31.851 -22.728 -16.144  0.00  0.00    +0.029 C 
ATOM     15  C   UNL     1      30.467 -22.600 -16.240  0.00  0.00    +0.006 C 
ATOM     16  C   UNL     1      32.461 -22.848 -14.898  0.00  0.00    +0.006 C 
ATOM     17  C   UNL     1      29.688 -22.593 -15.082  0.00  0.00    +0.001 C 
ATOM     18  C   UNL     1      31.682 -22.840 -13.740  0.00  0.00    +0.001 C 
ATOM     19  C   UNL     1      30.297 -22.713 -13.832  0.00  0.00    +0.000 C 
ENDBRANCH  13  14
ENDBRANCH  10  13
ENDBRANCH   5   7
BRANCH   1  20
ATOM     20  O   UNL     1      36.428 -26.328 -13.007  0.00  0.00    -0.382 OA
ATOM     21  H   UNL     1      35.914 -26.286 -12.184  0.00  0.00    +0.210 HD
ENDBRANCH   1  20
BRANCH   3  22
ATOM     22  O   UNL     1      36.753 -22.693 -10.548  0.00  0.00    -0.373 OA
ATOM     23  H   UNL     1      36.345 -21.846 -10.789  0.00  0.00    +0.211 HD
ENDBRANCH   3  22
BRANCH   4  24
ATOM     24  O   UNL     1      38.913 -23.920 -14.145  0.00  0.00    -0.378 OA
ATOM     25  H   UNL     1      38.880 -23.119 -14.691  0.00  0.00    +0.211 HD
ENDBRANCH   4  24
BRANCH   3  27
ATOM     26  O   UNL     1      34.972 -24.564  -9.789  0.00  0.00    -0.247 OA
ATOM     27  C   UNL     1      35.122 -24.288 -10.970  0.00  0.00    +0.342 C 
BRANCH  27  28
ATOM     28  O   UNL     1      34.193 -24.477 -11.937  0.00  0.00    -0.478 OA
ATOM     29  H   UNL     1      34.430 -24.386 -12.838  0.00  0.00    +0.295 HD
ENDBRANCH  27  28
ENDBRANCH   3  27
TORSDOF 8
ENDMDL
MODEL 2
REMARK VINA RESULT:     -11.1      1.883      3.926
REMARK  Name = 16058682
REMARK  8 active torsions:
REMARK  status: ('A' for Active; 'I' for Inactive)
REMARK    1  A    between atoms: C_1  and  O_20
REMARK    2  A    between atoms: C_3  and  O_22
REMARK    3  A    between atoms: C_3  and  C_27
REMARK    4  A    between atoms: C_4  and  O_24
REMARK    5  A    between atoms: C_5  and  C_7
REMARK    6  A    between atoms: C_10  and  S_13
REMARK    7  A    between atoms: S_13  and  C_14
REMARK    8  A    between atoms: C_27  and  O_28
REMARK                            x       y       z     vdW  Elec       q    Type
REMARK                         _______ _______ _______ _____ _____    ______ ____
ROOT
ATOM      1  C   UNL     1      37.390 -24.108 -11.964  0.00  0.00    +0.145 C 
ATOM      2  C   UNL     1      38.094 -25.322 -12.577  0.00  0.00    +0.074 C 
ATOM      3  C   UNL     1      37.898 -25.428 -14.096  0.00  0.00    +0.198 C 
ATOM      4  C   UNL     1      35.901 -24.075 -12.343  0.00  0.00    +0.159 C 
ATOM      5  C   UNL     1      35.664 -24.296 -13.822  0.00  0.00    +0.005 C 
ATOM      6  C   UNL     1      36.577 -24.915 -14.597  0.00  0.00    +0.009 C 
ENDROOT
BRANCH   5   7
ATOM      7  C   UNL     1      34.408 -23.775 -14.417  0.00  0.00    -0.001 C 
ATOM      8  C   UNL     1      33.217 -23.824 -13.691  0.00  0.00    +0.006 C 
ATOM      9  C   UNL     1      34.418 -23.234 -15.704  0.00  0.00    -0.000 C 
ATOM     10  C   UNL     1      32.037 -23.332 -14.252  0.00  0.00    +0.029 C 
ATOM     11  C   UNL     1      33.239 -22.744 -16.265  0.00  0.00    +0.001 C 
ATOM     12  C   UNL     1      32.048 -22.792 -15.538  0.00  0.00    +0.006 C 
BRANCH  10  13
ATOM     13  S   UNL     1      30.517 -23.393 -13.325  0.00  0.00    -0.087 S 
BRANCH  13  14
ATOM     14  C   UNL     1      29.306 -23.237 -14.629  0.00  0.00    +0.029 C 
ATOM     15  C   UNL     1      28.973 -24.347 -15.403  0.00  0.00    +0.006 C 
ATOM     16  C   UNL     1      28.700 -22.006 -14.868  0.00  0.00    +0.006 C 
ATOM     17  C   UNL     1      28.027 -24.225 -16.421  0.00  0.00    +0.001 C 
ATOM     18  C   UNL     1      27.754 -21.885 -15.886  0.00  0.00    +0.001 C 
ATOM     19  C   UNL     1      27.418 -22.993 -16.663  0.00  0.00    +0.000 C 
ENDBRANCH  13  14
ENDBRANCH  10  13
ENDBRANCH   5   7
BRANCH   1  20
ATOM     20  O   UNL     1      38.029 -22.911 -12.396  0.00  0.00    -0.382 OA
ATOM     21  H   UNL     1      38.966 -22.936 -12.148  0.00  0.00    +0.210 HD
ENDBRANCH   1  20
BRANCH   3  22
ATOM     22  O   UNL     1      38.077 -26.791 -14.471  0.00  0.00    -0.373 OA
ATOM     23  H   UNL     1      37.642 -27.365 -13.821  0.00  0.00    +0.211 HD
ENDBRANCH   3  22
BRANCH   4  24
ATOM     24  O   UNL     1      35.226 -25.104 -11.619  0.00  0.00    -0.378 OA
ATOM     25  H   UNL     1      35.836 -25.842 -11.462  0.00  0.00    +0.211 HD
ENDBRANCH   4  24
BRANCH   3  27
ATOM     26  O   UNL     1      38.967 -23.466 -14.957  0.00  0.00    -0.247 OA
ATOM     27  C   UNL     1      38.968 -24.683 -14.845  0.00  0.00    +0.342 C 
BRANCH  27  28
ATOM     28  O   UNL     1      39.909 -25.510 -15.360  0.00  0.00    -0.478 OA
ATOM     29  H   UNL     1      39.928 -25.683 -16.280  0.00  0.00    +0.295 HD
ENDBRANCH  27  28
ENDBRANCH   3  27
TORSDOF 8
ENDMDL
MODEL 3
REMARK VINA RESULT:     -10.9      2.136      3.172
REMARK  Name = 16058682
REMARK  8 active torsions:
REMARK  status: ('A' for Active; 'I' for Inactive)
REMARK    1  A    between atoms: C_1  and  O_20
REMARK    2  A    between atoms: C_3  and  O_22
REMARK    3  A    between atoms: C_3  and  C_27
REMARK    4  A    between atoms: C_4  and  O_24
REMARK    5  A    between atoms: C_5  and  C_7
REMARK    6  A    between atoms: C_10  and  S_13
REMARK    7  A    between atoms: S_13  and  C_14
REMARK    8  A    between atoms: C_27  and  O_28
REMARK                            x       y       z     vdW  Elec       q    Type
REMARK                         _______ _______ _______ _____ _____    ______ ____
ROOT
ATOM      1  C   UNL     1      37.596 -25.513 -12.803  0.00  0.00    +0.145 C 
ATOM      2  C   UNL     1      37.495 -24.820 -11.441  0.00  0.00    +0.074 C 
ATOM      3  C   UNL     1      36.400 -23.745 -11.391  0.00  0.00    +0.198 C 
ATOM      4  C   UNL     1      37.760 -24.491 -13.939  0.00  0.00    +0.159 C 
ATOM      5  C   UNL     1      36.769 -23.348 -13.851  0.00  0.00    +0.005 C 
ATOM      6  C   UNL     1      36.169 -23.023 -12.689  0.00  0.00    +0.009 C 
ENDROOT
BRANCH   5   7
ATOM      7  C   UNL     1      36.437 -22.611 -15.097  0.00  0.00    -0.001 C 
ATOM      8  C   UNL     1      35.229 -22.852 -15.751  0.00  0.00    +0.006 C 
ATOM      9  C   UNL     1      37.334 -21.674 -15.612  0.00  0.00    -0.000 C 
ATOM     10  C   UNL     1      34.919 -22.158 -16.921  0.00  0.00    +0.029 C 
ATOM     11  C   UNL     1      37.024 -20.980 -16.782  0.00  0.00    +0.001 C 
ATOM     12  C   UNL     1      35.815 -21.222 -17.436  0.00  0.00    +0.006 C 
BRANCH  10  13
ATOM     13  S   UNL     1      33.375 -22.465 -17.758  0.00  0.00    -0.087 S 
BRANCH  13  14
ATOM     14  C   UNL     1      33.456 -21.276 -19.088  0.00  0.00    +0.029 C 
ATOM     15  C   UNL     1      32.289 -20.671 -19.549  0.00  0.00    +0.006 C 
ATOM     16  C   UNL     1      34.685 -20.959 -19.660  0.00  0.00    +0.006 C 
ATOM     17  C   UNL     1      32.352 -19.742 -20.588  0.00  0.00    +0.001 C 
ATOM     18  C   UNL     1      34.748 -20.030 -20.700  0.00  0.00    +0.001 C 
ATOM     19  C   UNL     1      33.582 -19.422 -21.164  0.00  0.00    +0.000 C 
ENDBRANCH  13  14
ENDBRANCH  10  13
ENDBRANCH   5   7
BRANCH   1  20
ATOM     20  O   UNL     1      36.434 -26.307 -13.028  0.00  0.00    -0.382 OA
ATOM     21  H   UNL     1      36.174 -26.243 -13.960  0.00  0.00    +0.210 HD
ENDBRANCH   1  20
BRANCH   3  22
ATOM     22  O   UNL     1      36.737 -22.820 -10.360  0.00  0.00    -0.373 OA
ATOM     23  H   UNL     1      37.655 -22.527 -10.476  0.00  0.00    +0.211 HD
ENDBRANCH   3  22
BRANCH   4  24
ATOM     24  O   UNL     1      39.080 -23.949 -13.874  0.00  0.00    -0.378 OA
ATOM     25  H   UNL     1      39.053 -23.087 -13.431  0.00  0.00    +0.211 HD
ENDBRANCH   4  24
BRANCH   3  27
ATOM     26  O   UNL     1      34.861 -24.710  -9.832  0.00  0.00    -0.247 OA
ATOM     27  C   UNL     1      35.077 -24.322 -10.970  0.00  0.00    +0.342 C 
BRANCH  27  28
ATOM     28  O   UNL     1      34.182 -24.351 -11.985  0.00  0.00    -0.478 OA
ATOM     29  H   UNL     1      34.027 -25.148 -12.451  0.00  0.00    +0.295 HD
ENDBRANCH  27  28
ENDBRANCH   3  27
TORSDOF 8
ENDMDL
MODEL 4
REMARK VINA RESULT:     -10.9      1.763      3.790
REMARK  Name = 16058682
REMARK  8 active torsions:
REMARK  status: ('A' for Active; 'I' for Inactive)
REMARK    1  A    between atoms: C_1  and  O_20
REMARK    2  A    between atoms: C_3  and  O_22
REMARK    3  A    between atoms: C_3  and  C_27
REMARK    4  A    between atoms: C_4  and  O_24
REMARK    5  A    between atoms: C_5  and  C_7
REMARK    6  A    between atoms: C_10  and  S_13
REMARK    7  A    between atoms: S_13  and  C_14
REMARK    8  A    between atoms: C_27  and  O_28
REMARK                            x       y       z     vdW  Elec       q    Type
REMARK                         _______ _______ _______ _____ _____    ______ ____
ROOT
ATOM      1  C   UNL     1      37.032 -25.020 -13.352  0.00  0.00    +0.145 C 
ATOM      2  C   UNL     1      37.441 -24.011 -12.275  0.00  0.00    +0.074 C 
ATOM      3  C   UNL     1      36.257 -23.202 -11.726  0.00  0.00    +0.198 C 
ATOM      4  C   UNL     1      36.242 -24.342 -14.482  0.00  0.00    +0.159 C 
ATOM      5  C   UNL     1      35.139 -23.440 -13.971  0.00  0.00    +0.005 C 
ATOM      6  C   UNL     1      35.166 -22.930 -12.724  0.00  0.00    +0.009 C 
ENDROOT
BRANCH   5   7
ATOM      7  C   UNL     1      33.990 -23.158 -14.870  0.00  0.00    -0.001 C 
ATOM      8  C   UNL     1      34.100 -23.395 -16.240  0.00  0.00    +0.006 C 
ATOM      9  C   UNL     1      32.799 -22.656 -14.343  0.00  0.00    -0.000 C 
ATOM     10  C   UNL     1      33.019 -23.130 -17.083  0.00  0.00    +0.029 C 
ATOM     11  C   UNL     1      31.720 -22.391 -15.185  0.00  0.00    +0.001 C 
ATOM     12  C   UNL     1      31.830 -22.629 -16.555  0.00  0.00    +0.006 C 
BRANCH  10  13
ATOM     13  S   UNL     1      33.159 -23.433 -18.833  0.00  0.00    -0.087 S 
BRANCH  13  14
ATOM     14  C   UNL     1      33.762 -21.856 -19.415  0.00  0.00    +0.029 C 
ATOM     15  C   UNL     1      35.123 -21.569 -19.352  0.00  0.00    +0.006 C 
ATOM     16  C   UNL     1      32.869 -20.919 -19.929  0.00  0.00    +0.006 C 
ATOM     17  C   UNL     1      35.595 -20.337 -19.807  0.00  0.00    +0.001 C 
ATOM     18  C   UNL     1      33.341 -19.687 -20.383  0.00  0.00    +0.001 C 
ATOM     19  C   UNL     1      34.703 -19.396 -20.322  0.00  0.00    +0.000 C 
ENDBRANCH  13  14
ENDBRANCH  10  13
ENDBRANCH   5   7
BRANCH   1  20
ATOM     20  O   UNL     1      36.251 -26.058 -12.768  0.00  0.00    -0.382 OA
ATOM     21  H   UNL     1      36.504 -26.170 -11.838  0.00  0.00    +0.210 HD
ENDBRANCH   1  20
BRANCH   3  22
ATOM     22  O   UNL     1      36.764 -21.980 -11.198  0.00  0.00    -0.373 OA
ATOM     23  H   UNL     1      37.730 -22.036 -11.124  0.00  0.00    +0.211 HD
ENDBRANCH   3  22
BRANCH   4  24
ATOM     24  O   UNL     1      37.146 -23.554 -15.258  0.00  0.00    -0.378 OA
ATOM     25  H   UNL     1      37.681 -23.002 -14.667  0.00  0.00    +0.211 HD
ENDBRANCH   4  24
BRANCH   3  27
ATOM     26  O   UNL     1      35.993 -23.720  -9.404  0.00  0.00    -0.247 OA
ATOM     27  C   UNL     1      35.615 -23.889 -10.553  0.00  0.00    +0.342 C 
BRANCH  27  28
ATOM     28  O   UNL     1      34.591 -24.694 -10.925  0.00  0.00    -0.478 OA
ATOM     29  H   UNL     1      34.684 -25.260 -11.665  0.00  0.00    +0.295 HD
ENDBRANCH  27  28
ENDBRANCH   3  27
TORSDOF 8
ENDMDL
MODEL 5
REMARK VINA RESULT:     -10.8      1.400      4.502
REMARK  Name = 16058682
REMARK  8 active torsions:
REMARK  status: ('A' for Active; 'I' for Inactive)
REMARK    1  A    between atoms: C_1  and  O_20
REMARK    2  A    between atoms: C_3  and  O_22
REMARK    3  A    between atoms: C_3  and  C_27
REMARK    4  A    between atoms: C_4  and  O_24
REMARK    5  A    between atoms: C_5  and  C_7
REMARK    6  A    between atoms: C_10  and  S_13
REMARK    7  A    between atoms: S_13  and  C_14
REMARK    8  A    between atoms: C_27  and  O_28
REMARK                            x       y       z     vdW  Elec       q    Type
REMARK                         _______ _______ _______ _____ _____    ______ ____
ROOT
ATOM      1  C   UNL     1      37.404 -24.026 -11.801  0.00  0.00    +0.145 C 
ATOM      2  C   UNL     1      38.063 -25.214 -12.509  0.00  0.00    +0.074 C 
ATOM      3  C   UNL     1      37.694 -25.309 -13.996  0.00  0.00    +0.198 C 
ATOM      4  C   UNL     1      35.881 -24.030 -12.003  0.00  0.00    +0.159 C 
ATOM      5  C   UNL     1      35.479 -24.242 -13.448  0.00  0.00    +0.005 C 
ATOM      6  C   UNL     1      36.310 -24.827 -14.333  0.00  0.00    +0.009 C 
ENDROOT
BRANCH   5   7
ATOM      7  C   UNL     1      34.148 -23.749 -13.885  0.00  0.00    -0.001 C 
ATOM      8  C   UNL     1      33.889 -23.546 -15.241  0.00  0.00    +0.006 C 
ATOM      9  C   UNL     1      33.156 -23.488 -12.940  0.00  0.00    -0.000 C 
ATOM     10  C   UNL     1      32.637 -23.083 -15.651  0.00  0.00    +0.029 C 
ATOM     11  C   UNL     1      31.905 -23.025 -13.348  0.00  0.00    +0.001 C 
ATOM     12  C   UNL     1      31.646 -22.824 -14.705  0.00  0.00    +0.006 C 
BRANCH  10  13
ATOM     13  S   UNL     1      32.305 -22.825 -17.382  0.00  0.00    -0.087 S 
BRANCH  13  14
ATOM     14  C   UNL     1      33.822 -22.051 -17.918  0.00  0.00    +0.029 C 
ATOM     15  C   UNL     1      33.907 -21.501 -19.195  0.00  0.00    +0.006 C 
ATOM     16  C   UNL     1      34.916 -22.001 -17.058  0.00  0.00    +0.006 C 
ATOM     17  C   UNL     1      35.092 -20.896 -19.614  0.00  0.00    +0.001 C 
ATOM     18  C   UNL     1      36.102 -21.396 -17.477  0.00  0.00    +0.001 C 
ATOM     19  C   UNL     1      36.190 -20.844 -18.754  0.00  0.00    +0.000 C 
ENDBRANCH  13  14
ENDBRANCH  10  13
ENDBRANCH   5   7
BRANCH   1  20
ATOM     20  O   UNL     1      37.957 -22.807 -12.289  0.00  0.00    -0.382 OA
ATOM     21  H   UNL     1      37.424 -22.486 -13.034  0.00  0.00    +0.210 HD
ENDBRANCH   1  20
BRANCH   3  22
ATOM     22  O   UNL     1      37.863 -26.663 -14.407  0.00  0.00    -0.373 OA
ATOM     23  H   UNL     1      37.427 -26.798 -15.263  0.00  0.00    +0.211 HD
ENDBRANCH   3  22
BRANCH   4  24
ATOM     24  O   UNL     1      35.322 -25.085 -11.220  0.00  0.00    -0.378 OA
ATOM     25  H   UNL     1      34.698 -24.713 -10.577  0.00  0.00    +0.211 HD
ENDBRANCH   4  24
BRANCH   3  27
ATOM     26  O   UNL     1      38.551 -23.320 -15.016  0.00  0.00    -0.247 OA
ATOM     27  C   UNL     1      38.649 -24.527 -14.854  0.00  0.00    +0.342 C 
BRANCH  27  28
ATOM     28  O   UNL     1      39.607 -25.311 -15.405  0.00  0.00    -0.478 OA
ATOM     29  H   UNL     1      40.497 -25.022 -15.421  0.00  0.00    +0.295 HD
ENDBRANCH  27  28
ENDBRANCH   3  27
TORSDOF 8
ENDMDL
MODEL 6
REMARK VINA RESULT:     -10.8      1.201      3.152
REMARK  Name = 16058682
REMARK  8 active torsions:
REMARK  status: ('A' for Active; 'I' for Inactive)
REMARK    1  A    between atoms: C_1  and  O_20
REMARK    2  A    between atoms: C_3  and  O_22
REMARK    3  A    between atoms: C_3  and  C_27
REMARK    4  A    between atoms: C_4  and  O_24
REMARK    5  A    between atoms: C_5  and  C_7
REMARK    6  A    between atoms: C_10  and  S_13
REMARK    7  A    between atoms: S_13  and  C_14
REMARK    8  A    between atoms: C_27  and  O_28
REMARK                            x       y       z     vdW  Elec       q    Type
REMARK                         _______ _______ _______ _____ _____    ______ ____
ROOT
ATOM      1  C   UNL     1      37.330 -24.075 -12.096  0.00  0.00    +0.145 C 
ATOM      2  C   UNL     1      37.885 -25.459 -12.443  0.00  0.00    +0.074 C 
ATOM      3  C   UNL     1      38.467 -25.537 -13.862  0.00  0.00    +0.198 C 
ATOM      4  C   UNL     1      36.314 -23.601 -13.147  0.00  0.00    +0.159 C 
ATOM      5  C   UNL     1      36.810 -23.776 -14.567  0.00  0.00    +0.005 C 
ATOM      6  C   UNL     1      37.780 -24.660 -14.872  0.00  0.00    +0.009 C 
ENDROOT
BRANCH   5   7
ATOM      7  C   UNL     1      36.227 -22.912 -15.625  0.00  0.00    -0.001 C 
ATOM      8  C   UNL     1      34.918 -23.125 -16.059  0.00  0.00    +0.006 C 
ATOM      9  C   UNL     1      36.988 -21.885 -16.186  0.00  0.00    -0.000 C 
ATOM     10  C   UNL     1      34.371 -22.312 -17.053  0.00  0.00    +0.029 C 
ATOM     11  C   UNL     1      36.442 -21.073 -17.180  0.00  0.00    +0.001 C 
ATOM     12  C   UNL     1      35.133 -21.286 -17.613  0.00  0.00    +0.006 C 
BRANCH  10  13
ATOM     13  S   UNL     1      32.699 -22.583 -17.607  0.00  0.00    -0.087 S 
BRANCH  13  14
ATOM     14  C   UNL     1      31.830 -22.703 -16.052  0.00  0.00    +0.029 C 
ATOM     15  C   UNL     1      32.549 -22.779 -14.860  0.00  0.00    +0.006 C 
ATOM     16  C   UNL     1      30.438 -22.720 -16.035  0.00  0.00    +0.006 C 
ATOM     17  C   UNL     1      31.871 -22.871 -13.645  0.00  0.00    +0.001 C 
ATOM     18  C   UNL     1      29.760 -22.814 -14.819  0.00  0.00    +0.001 C 
ATOM     19  C   UNL     1      30.476 -22.889 -13.625  0.00  0.00    +0.000 C 
ENDBRANCH  13  14
ENDBRANCH  10  13
ENDBRANCH   5   7
BRANCH   1  20
ATOM     20  O   UNL     1      38.398 -23.138 -11.996  0.00  0.00    -0.382 OA
ATOM     21  H   UNL     1      38.037 -22.251 -11.838  0.00  0.00    +0.210 HD
ENDBRANCH   1  20
BRANCH   3  22
ATOM     22  O   UNL     1      38.430 -26.899 -14.280  0.00  0.00    -0.373 OA
ATOM     23  H   UNL     1      37.531 -27.126 -14.566  0.00  0.00    +0.211 HD
ENDBRANCH   3  22
BRANCH   4  24
ATOM     24  O   UNL     1      35.114 -24.359 -12.992  0.00  0.00    -0.378 OA
ATOM     25  H   UNL     1      35.203 -25.203 -13.462  0.00  0.00    +0.211 HD
ENDBRANCH   4  24
BRANCH   3  27
ATOM     26  O   UNL     1      40.311 -24.010 -13.896  0.00  0.00    -0.247 OA
ATOM     27  C   UNL     1      39.924 -25.170 -13.883  0.00  0.00    +0.342 C 
BRANCH  27  28
ATOM     28  O   UNL     1      40.730 -26.258 -13.883  0.00  0.00    -0.478 OA
ATOM     29  H   UNL     1      40.625 -26.919 -14.538  0.00  0.00    +0.295 HD
ENDBRANCH  27  28
ENDBRANCH   3  27
TORSDOF 8
ENDMDL
MODEL 7
REMARK VINA RESULT:     -10.5      1.903      3.026
REMARK  Name = 16058682
REMARK  8 active torsions:
REMARK  status: ('A' for Active; 'I' for Inactive)
REMARK    1  A    between atoms: C_1  and  O_20
REMARK    2  A    between atoms: C_3  and  O_22
REMARK    3  A    between atoms: C_3  and  C_27
REMARK    4  A    between atoms: C_4  and  O_24
REMARK    5  A    between atoms: C_5  and  C_7
REMARK    6  A    between atoms: C_10  and  S_13
REMARK    7  A    between atoms: S_13  and  C_14
REMARK    8  A    between atoms: C_27  and  O_28
REMARK                            x       y       z     vdW  Elec       q    Type
REMARK                         _______ _______ _______ _____ _____    ______ ____
ROOT
ATOM      1  C   UNL     1      36.962 -25.155 -13.276  0.00  0.00    +0.145 C 
ATOM      2  C   UNL     1      37.395 -24.069 -12.288  0.00  0.00    +0.074 C 
ATOM      3  C   UNL     1      36.213 -23.299 -11.682  0.00  0.00    +0.198 C 
ATOM      4  C   UNL     1      36.044 -24.584 -14.368  0.00  0.00    +0.159 C 
ATOM      5  C   UNL     1      34.933 -23.718 -13.811  0.00  0.00    +0.005 C 
ATOM      6  C   UNL     1      35.030 -23.142 -12.597  0.00  0.00    +0.009 C 
ENDROOT
BRANCH   5   7
ATOM      7  C   UNL     1      33.701 -23.549 -14.622  0.00  0.00    -0.001 C 
ATOM      8  C   UNL     1      32.484 -24.052 -14.160  0.00  0.00    +0.006 C 
ATOM      9  C   UNL     1      33.760 -22.887 -15.849  0.00  0.00    -0.000 C 
ATOM     10  C   UNL     1      31.327 -23.891 -14.924  0.00  0.00    +0.029 C 
ATOM     11  C   UNL     1      32.604 -22.727 -16.613  0.00  0.00    +0.001 C 
ATOM     12  C   UNL     1      31.387 -23.228 -16.149  0.00  0.00    +0.006 C 
BRANCH  10  13
ATOM     13  S   UNL     1      29.773 -24.532 -14.333  0.00  0.00    -0.087 S 
BRANCH  13  14
ATOM     14  C   UNL     1      28.612 -23.541 -15.260  0.00  0.00    +0.029 C 
ATOM     15  C   UNL     1      28.079 -24.030 -16.451  0.00  0.00    +0.006 C 
ATOM     16  C   UNL     1      28.243 -22.283 -14.789  0.00  0.00    +0.006 C 
ATOM     17  C   UNL     1      27.171 -23.256 -17.174  0.00  0.00    +0.001 C 
ATOM     18  C   UNL     1      27.335 -21.510 -15.514  0.00  0.00    +0.001 C 
ATOM     19  C   UNL     1      26.800 -21.995 -16.705  0.00  0.00    +0.000 C 
ENDBRANCH  13  14
ENDBRANCH  10  13
ENDBRANCH   5   7
BRANCH   1  20
ATOM     20  O   UNL     1      36.294 -26.203 -12.579  0.00  0.00    -0.382 OA
ATOM     21  H   UNL     1      35.501 -25.849 -12.146  0.00  0.00    +0.210 HD
ENDBRANCH   1  20
BRANCH   3  22
ATOM     22  O   UNL     1      36.687 -22.024 -11.258  0.00  0.00    -0.373 OA
ATOM     23  H   UNL     1      36.085 -21.333 -11.576  0.00  0.00    +0.211 HD
ENDBRANCH   3  22
BRANCH   4  24
ATOM     24  O   UNL     1      36.833 -23.790 -15.254  0.00  0.00    -0.378 OA
ATOM     25  H   UNL     1      37.711 -23.651 -14.867  0.00  0.00    +0.211 HD
ENDBRANCH   4  24
BRANCH   3  27
ATOM     26  O   UNL     1      34.917 -24.885 -10.443  0.00  0.00    -0.247 OA
ATOM     27  C   UNL     1      35.710 -23.956 -10.427  0.00  0.00    +0.342 C 
BRANCH  27  28
ATOM     28  O   UNL     1      36.238 -23.403  -9.309  0.00  0.00    -0.478 OA
ATOM     29  H   UNL     1      36.581 -23.952  -8.631  0.00  0.00    +0.295 HD
ENDBRANCH  27  28
ENDBRANCH   3  27
TORSDOF 8
ENDMDL
MODEL 8
REMARK VINA RESULT:     -10.4      2.600      4.578
REMARK  Name = 16058682
REMARK  8 active torsions:
REMARK  status: ('A' for Active; 'I' for Inactive)
REMARK    1  A    between atoms: C_1  and  O_20
REMARK    2  A    between atoms: C_3  and  O_22
REMARK    3  A    between atoms: C_3  and  C_27
REMARK    4  A    between atoms: C_4  and  O_24
REMARK    5  A    between atoms: C_5  and  C_7
REMARK    6  A    between atoms: C_10  and  S_13
REMARK    7  A    between atoms: S_13  and  C_14
REMARK    8  A    between atoms: C_27  and  O_28
REMARK                            x       y       z     vdW  Elec       q    Type
REMARK                         _______ _______ _______ _____ _____    ______ ____
ROOT
ATOM      1  C   UNL     1      37.534 -24.056 -12.004  0.00  0.00    +0.145 C 
ATOM      2  C   UNL     1      37.937 -25.482 -12.392  0.00  0.00    +0.074 C 
ATOM      3  C   UNL     1      38.531 -25.577 -13.805  0.00  0.00    +0.198 C 
ATOM      4  C   UNL     1      36.595 -23.437 -13.052  0.00  0.00    +0.159 C 
ATOM      5  C   UNL     1      37.094 -23.618 -14.470  0.00  0.00    +0.005 C 
ATOM      6  C   UNL     1      37.964 -24.595 -14.792  0.00  0.00    +0.009 C 
ENDROOT
BRANCH   5   7
ATOM      7  C   UNL     1      36.629 -22.660 -15.505  0.00  0.00    -0.001 C 
ATOM      8  C   UNL     1      35.422 -22.879 -16.169  0.00  0.00    +0.006 C 
ATOM      9  C   UNL     1      37.400 -21.539 -15.814  0.00  0.00    -0.000 C 
ATOM     10  C   UNL     1      34.986 -21.977 -17.141  0.00  0.00    +0.029 C 
ATOM     11  C   UNL     1      36.966 -20.637 -16.785  0.00  0.00    +0.001 C 
ATOM     12  C   UNL     1      35.757 -20.856 -17.448  0.00  0.00    +0.006 C 
BRANCH  10  13
ATOM     13  S   UNL     1      33.444 -22.255 -17.989  0.00  0.00    -0.087 S 
BRANCH  13  14
ATOM     14  C   UNL     1      33.565 -21.082 -19.330  0.00  0.00    +0.029 C 
ATOM     15  C   UNL     1      34.809 -20.793 -19.888  0.00  0.00    +0.006 C 
ATOM     16  C   UNL     1      32.417 -20.459 -19.812  0.00  0.00    +0.006 C 
ATOM     17  C   UNL     1      34.904 -19.877 -20.936  0.00  0.00    +0.001 C 
ATOM     18  C   UNL     1      32.512 -19.543 -20.860  0.00  0.00    +0.001 C 
ATOM     19  C   UNL     1      33.755 -19.251 -21.422  0.00  0.00    +0.000 C 
ENDBRANCH  13  14
ENDBRANCH  10  13
ENDBRANCH   5   7
BRANCH   1  20
ATOM     20  O   UNL     1      38.698 -23.249 -11.857  0.00  0.00    -0.382 OA
ATOM     21  H   UNL     1      39.435 -23.797 -11.544  0.00  0.00    +0.210 HD
ENDBRANCH   1  20
BRANCH   3  22
ATOM     22  O   UNL     1      38.350 -26.912 -14.270  0.00  0.00    -0.373 OA
ATOM     23  H   UNL     1      37.587 -26.945 -14.868  0.00  0.00    +0.211 HD
ENDBRANCH   3  22
BRANCH   4  24
ATOM     24  O   UNL     1      35.316 -24.061 -12.940  0.00  0.00    -0.378 OA
ATOM     25  H   UNL     1      35.174 -24.342 -12.023  0.00  0.00    +0.211 HD
ENDBRANCH   4  24
BRANCH   3  27
ATOM     26  O   UNL     1      40.536 -24.274 -13.917  0.00  0.00    -0.247 OA
ATOM     27  C   UNL     1      40.021 -25.375 -13.793  0.00  0.00    +0.342 C 
BRANCH  27  28
ATOM     28  O   UNL     1      40.697 -26.537 -13.629  0.00  0.00    -0.478 OA
ATOM     29  H   UNL     1      41.282 -26.836 -14.295  0.00  0.00    +0.295 HD
ENDBRANCH  27  28
ENDBRANCH   3  27
TORSDOF 8
ENDMDL
MODEL 9
REMARK VINA RESULT:     -10.4     10.223     12.631
REMARK  Name = 16058682
REMARK  8 active torsions:
REMARK  status: ('A' for Active; 'I' for Inactive)
REMARK    1  A    between atoms: C_1  and  O_20
REMARK    2  A    between atoms: C_3  and  O_22
REMARK    3  A    between atoms: C_3  and  C_27
REMARK    4  A    between atoms: C_4  and  O_24
REMARK    5  A    between atoms: C_5  and  C_7
REMARK    6  A    between atoms: C_10  and  S_13
REMARK    7  A    between atoms: S_13  and  C_14
REMARK    8  A    between atoms: C_27  and  O_28
REMARK                            x       y       z     vdW  Elec       q    Type
REMARK                         _______ _______ _______ _____ _____    ______ ____
ROOT
ATOM      1  C   UNL     1      33.968 -18.633 -23.389  0.00  0.00    +0.145 C 
ATOM      2  C   UNL     1      35.447 -18.982 -23.201  0.00  0.00    +0.074 C 
ATOM      3  C   UNL     1      36.095 -18.242 -22.022  0.00  0.00    +0.198 C 
ATOM      4  C   UNL     1      33.761 -17.114 -23.497  0.00  0.00    +0.159 C 
ATOM      5  C   UNL     1      34.488 -16.342 -22.415  0.00  0.00    +0.005 C 
ATOM      6  C   UNL     1      35.545 -16.867 -21.763  0.00  0.00    +0.009 C 
ENDROOT
BRANCH   5   7
ATOM      7  C   UNL     1      33.981 -14.994 -22.053  0.00  0.00    -0.001 C 
ATOM      8  C   UNL     1      33.725 -14.053 -23.051  0.00  0.00    +0.006 C 
ATOM      9  C   UNL     1      33.760 -14.668 -20.715  0.00  0.00    -0.000 C 
ATOM     10  C   UNL     1      33.248 -12.786 -22.709  0.00  0.00    +0.029 C 
ATOM     11  C   UNL     1      33.284 -13.403 -20.373  0.00  0.00    +0.001 C 
ATOM     12  C   UNL     1      33.027 -12.462 -21.371  0.00  0.00    +0.006 C 
BRANCH  10  13
ATOM     13  S   UNL     1      32.919 -11.584 -23.983  0.00  0.00    -0.087 S 
BRANCH  13  14
ATOM     14  C   UNL     1      32.302 -10.213 -23.018  0.00  0.00    +0.029 C 
ATOM     15  C   UNL     1      31.180 -10.383 -22.211  0.00  0.00    +0.006 C 
ATOM     16  C   UNL     1      32.945  -8.979 -23.077  0.00  0.00    +0.006 C 
ATOM     17  C   UNL     1      30.698  -9.313 -21.456  0.00  0.00    +0.001 C 
ATOM     18  C   UNL     1      32.462  -7.909 -22.323  0.00  0.00    +0.001 C 
ATOM     19  C   UNL     1      31.340  -8.075 -21.513  0.00  0.00    +0.000 C 
ENDBRANCH  13  14
ENDBRANCH  10  13
ENDBRANCH   5   7
BRANCH   1  20
ATOM     20  O   UNL     1      33.207 -19.151 -22.302  0.00  0.00    -0.382 OA
ATOM     21  H   UNL     1      32.431 -18.589 -22.153  0.00  0.00    +0.210 HD
ENDBRANCH   1  20
BRANCH   3  22
ATOM     22  O   UNL     1      37.499 -18.180 -22.259  0.00  0.00    -0.373 OA
ATOM     23  H   UNL     1      37.823 -19.058 -22.513  0.00  0.00    +0.211 HD
ENDBRANCH   3  22
BRANCH   4  24
ATOM     24  O   UNL     1      34.249 -16.678 -24.766  0.00  0.00    -0.378 OA
ATOM     25  H   UNL     1      33.958 -17.299 -25.453  0.00  0.00    +0.211 HD
ENDBRANCH   4  24
BRANCH   3  27
ATOM     26  O   UNL     1      35.153 -19.927 -20.605  0.00  0.00    -0.247 OA
ATOM     27  C   UNL     1      35.957 -19.016 -20.741  0.00  0.00    +0.342 C 
BRANCH  27  28
ATOM     28  O   UNL     1      36.816 -18.588 -19.785  0.00  0.00    -0.478 OA
ATOM     29  H   UNL     1      37.083 -19.168 -19.100  0.00  0.00    +0.295 HD
ENDBRANCH  27  28
ENDBRANCH   3  27
TORSDOF 8
ENDMDL
