MODEL 1
REMARK VINA RESULT:     -12.4      0.000      0.000
REMARK  Name = 33625
REMARK  5 active torsions:
REMARK  status: ('A' for Active; 'I' for Inactive)
REMARK    1  A    between atoms: N_1  and  C_18
REMARK    2  A    between atoms: C_2  and  N_9
REMARK    3  A    between atoms: C_10  and  C_12
REMARK    4  A    between atoms: C_18  and  C_19
REMARK    5  A    between atoms: C_19  and  C_21
REMARK                            x       y       z     vdW  Elec       q    Type
REMARK                         _______ _______ _______ _____ _____    ______ ____
ROOT
ATOM      1  N   UNL     1      35.043 -19.810 -20.915  0.00  0.00    +0.387 N 
ATOM      2  C   UNL     1      35.122 -17.608 -22.860  0.00  0.00    +0.068 C 
ATOM      3  C   UNL     1      34.197 -18.817 -23.019  0.00  0.00    -0.003 C 
ATOM      4  C   UNL     1      36.318 -17.973 -21.979  0.00  0.00    -0.003 C 
ATOM      5  C   UNL     1      33.836 -19.448 -21.671  0.00  0.00    -0.076 C 
ATOM      6  C   UNL     1      35.886 -18.634 -20.665  0.00  0.00    -0.076 C 
ATOM      7  H   UNL     1      35.581 -20.468 -21.479  0.00  0.00    -0.080 HD
ENDROOT
BRANCH   2   9
ATOM      8  O   UNL     1      34.545 -15.145 -24.221  0.00  0.00    -0.270 OA
ATOM      9  N   UNL     1      34.406 -16.472 -22.324  0.00  0.00    -0.303 N 
ATOM     10  C   UNL     1      34.177 -15.321 -23.063  0.00  0.00    +0.246 C 
ATOM     11  H   UNL     1      34.069 -16.517 -21.400  0.00  0.00    +0.150 HD
BRANCH  10  12
ATOM     12  C   UNL     1      33.450 -14.234 -22.359  0.00  0.00    +0.053 C 
ATOM     13  C   UNL     1      33.464 -14.207 -20.979  0.00  0.00    +0.005 C 
ATOM     14  C   UNL     1      32.784 -13.285 -23.107  0.00  0.00    +0.005 C 
ATOM     15  C   UNL     1      32.781 -13.186 -20.318  0.00  0.00    +0.000 C 
ATOM     16  C   UNL     1      32.102 -12.264 -22.445  0.00  0.00    +0.000 C 
ATOM     17  C   UNL     1      32.100 -12.214 -21.051  0.00  0.00    +0.000 C 
ENDBRANCH  10  12
ENDBRANCH   2   9
BRANCH   1  18
ATOM     18  C   UNL     1      34.683 -20.460 -19.655  0.00  0.00    -0.073 C 
BRANCH  18  19
ATOM     19  C   UNL     1      35.853 -21.275 -19.104  0.00  0.00    +0.005 C 
BRANCH  19  21
ATOM     20  N   UNL     1      36.039 -21.900 -15.512  0.00  0.00    -0.312 N 
ATOM     21  C   UNL     1      35.654 -21.617 -17.650  0.00  0.00    -0.008 C 
ATOM     22  C   UNL     1      34.469 -22.115 -17.082  0.00  0.00    +0.011 C 
ATOM     23  C   UNL     1      36.605 -21.489 -16.689  0.00  0.00    +0.057 C 
ATOM     24  C   UNL     1      34.735 -22.288 -15.722  0.00  0.00    +0.048 C 
ATOM     25  C   UNL     1      33.188 -22.442 -17.569  0.00  0.00    +0.001 C 
ATOM     26  C   UNL     1      33.781 -22.773 -14.822  0.00  0.00    +0.015 C 
ATOM     27  C   UNL     1      32.224 -22.928 -16.680  0.00  0.00    +0.000 C 
ATOM     28  C   UNL     1      32.517 -23.092 -15.328  0.00  0.00    +0.001 C 
ATOM     29  H   UNL     1      36.498 -21.915 -14.641  0.00  0.00    +0.152 HD
ENDBRANCH  19  21
ENDBRANCH  18  19
ENDBRANCH   1  18
TORSDOF 5
ENDMDL
MODEL 2
REMARK VINA RESULT:     -12.4      0.957      2.012
REMARK  Name = 33625
REMARK  5 active torsions:
REMARK  status: ('A' for Active; 'I' for Inactive)
REMARK    1  A    between atoms: N_1  and  C_18
REMARK    2  A    between atoms: C_2  and  N_9
REMARK    3  A    between atoms: C_10  and  C_12
REMARK    4  A    between atoms: C_18  and  C_19
REMARK    5  A    between atoms: C_19  and  C_21
REMARK                            x       y       z     vdW  Elec       q    Type
REMARK                         _______ _______ _______ _____ _____    ______ ____
ROOT
ATOM      1  N   UNL     1      34.753 -19.790 -20.987  0.00  0.00    +0.387 N 
ATOM      2  C   UNL     1      35.285 -17.519 -22.776  0.00  0.00    +0.068 C 
ATOM      3  C   UNL     1      34.317 -18.647 -23.140  0.00  0.00    -0.003 C 
ATOM      4  C   UNL     1      36.301 -18.010 -21.742  0.00  0.00    -0.003 C 
ATOM      5  C   UNL     1      33.708 -19.307 -21.899  0.00  0.00    -0.076 C 
ATOM      6  C   UNL     1      35.624 -18.692 -20.548  0.00  0.00    -0.076 C 
ATOM      7  H   UNL     1      35.328 -20.461 -21.497  0.00  0.00    -0.080 HD
ENDROOT
BRANCH   2   9
ATOM      8  O   UNL     1      34.326 -15.321 -24.356  0.00  0.00    -0.270 OA
ATOM      9  N   UNL     1      34.572 -16.357 -22.295  0.00  0.00    -0.303 N 
ATOM     10  C   UNL     1      34.148 -15.343 -23.141  0.00  0.00    +0.246 C 
ATOM     11  H   UNL     1      34.381 -16.282 -21.333  0.00  0.00    +0.150 HD
BRANCH  10  12
ATOM     12  C   UNL     1      33.452 -14.204 -22.489  0.00  0.00    +0.053 C 
ATOM     13  C   UNL     1      32.903 -13.216 -23.282  0.00  0.00    +0.005 C 
ATOM     14  C   UNL     1      33.378 -14.169 -21.112  0.00  0.00    +0.005 C 
ATOM     15  C   UNL     1      32.250 -12.147 -22.669  0.00  0.00    +0.000 C 
ATOM     16  C   UNL     1      32.724 -13.099 -20.500  0.00  0.00    +0.000 C 
ATOM     17  C   UNL     1      32.160 -12.088 -21.279  0.00  0.00    +0.000 C 
ENDBRANCH  10  12
ENDBRANCH   2   9
BRANCH   1  18
ATOM     18  C   UNL     1      34.157 -20.464 -19.834  0.00  0.00    -0.073 C 
BRANCH  18  19
ATOM     19  C   UNL     1      35.200 -21.291 -19.082  0.00  0.00    +0.005 C 
BRANCH  19  21
ATOM     20  N   UNL     1      33.206 -22.823 -16.435  0.00  0.00    -0.312 N 
ATOM     21  C   UNL     1      34.623 -21.910 -17.835  0.00  0.00    -0.008 C 
ATOM     22  C   UNL     1      35.322 -22.143 -16.639  0.00  0.00    +0.011 C 
ATOM     23  C   UNL     1      33.336 -22.325 -17.704  0.00  0.00    +0.057 C 
ATOM     24  C   UNL     1      34.403 -22.724 -15.762  0.00  0.00    +0.048 C 
ATOM     25  C   UNL     1      36.641 -21.927 -16.193  0.00  0.00    +0.001 C 
ATOM     26  C   UNL     1      34.739 -23.101 -14.457  0.00  0.00    +0.015 C 
ATOM     27  C   UNL     1      36.991 -22.299 -14.891  0.00  0.00    +0.000 C 
ATOM     28  C   UNL     1      36.054 -22.876 -14.037  0.00  0.00    +0.001 C 
ATOM     29  H   UNL     1      32.377 -23.197 -16.059  0.00  0.00    +0.152 HD
ENDBRANCH  19  21
ENDBRANCH  18  19
ENDBRANCH   1  18
TORSDOF 5
ENDMDL
MODEL 3
REMARK VINA RESULT:     -10.5      5.548      9.073
REMARK  Name = 33625
REMARK  5 active torsions:
REMARK  status: ('A' for Active; 'I' for Inactive)
REMARK    1  A    between atoms: N_1  and  C_18
REMARK    2  A    between atoms: C_2  and  N_9
REMARK    3  A    between atoms: C_10  and  C_12
REMARK    4  A    between atoms: C_18  and  C_19
REMARK    5  A    between atoms: C_19  and  C_21
REMARK                            x       y       z     vdW  Elec       q    Type
REMARK                         _______ _______ _______ _____ _____    ______ ____
ROOT
ATOM      1  N   UNL     1      31.592 -11.999 -20.488  0.00  0.00    +0.387 N 
ATOM      2  C   UNL     1      30.663  -9.234 -20.851  0.00  0.00    +0.068 C 
ATOM      3  C   UNL     1      31.362  -9.709 -19.575  0.00  0.00    -0.003 C 
ATOM      4  C   UNL     1      30.021 -10.422 -21.572  0.00  0.00    -0.003 C 
ATOM      5  C   UNL     1      32.302 -10.890 -19.839  0.00  0.00    -0.076 C 
ATOM      6  C   UNL     1      31.006 -11.579 -21.768  0.00  0.00    -0.076 C 
ATOM      7  H   UNL     1      30.829 -12.286 -19.873  0.00  0.00    -0.080 HD
ENDROOT
BRANCH   2   9
ATOM      8  O   UNL     1      30.762  -6.401 -21.312  0.00  0.00    -0.270 OA
ATOM      9  N   UNL     1      31.582  -8.533 -21.718  0.00  0.00    -0.303 N 
ATOM     10  C   UNL     1      31.551  -7.155 -21.876  0.00  0.00    +0.246 C 
ATOM     11  H   UNL     1      32.255  -9.052 -22.215  0.00  0.00    +0.150 HD
BRANCH  10  12
ATOM     12  C   UNL     1      32.545  -6.589 -22.823  0.00  0.00    +0.053 C 
ATOM     13  C   UNL     1      32.551  -5.227 -23.048  0.00  0.00    +0.005 C 
ATOM     14  C   UNL     1      33.431  -7.442 -23.449  0.00  0.00    +0.005 C 
ATOM     15  C   UNL     1      33.484  -4.696 -23.938  0.00  0.00    +0.000 C 
ATOM     16  C   UNL     1      34.364  -6.909 -24.338  0.00  0.00    +0.000 C 
ATOM     17  C   UNL     1      34.391  -5.536 -24.583  0.00  0.00    +0.000 C 
ENDBRANCH  10  12
ENDBRANCH   2   9
BRANCH   1  18
ATOM     18  C   UNL     1      32.489 -13.138 -20.684  0.00  0.00    -0.073 C 
BRANCH  18  19
ATOM     19  C   UNL     1      33.482 -12.865 -21.814  0.00  0.00    +0.005 C 
BRANCH  19  21
ATOM     20  N   UNL     1      33.185 -15.084 -24.697  0.00  0.00    -0.312 N 
ATOM     21  C   UNL     1      33.485 -13.977 -22.831  0.00  0.00    -0.008 C 
ATOM     22  C   UNL     1      33.975 -15.276 -22.619  0.00  0.00    +0.011 C 
ATOM     23  C   UNL     1      33.006 -13.868 -24.097  0.00  0.00    +0.057 C 
ATOM     24  C   UNL     1      33.776 -15.965 -23.818  0.00  0.00    +0.048 C 
ATOM     25  C   UNL     1      34.572 -15.956 -21.539  0.00  0.00    +0.001 C 
ATOM     26  C   UNL     1      34.145 -17.303 -23.991  0.00  0.00    +0.015 C 
ATOM     27  C   UNL     1      34.946 -17.295 -21.698  0.00  0.00    +0.000 C 
ATOM     28  C   UNL     1      34.735 -17.957 -22.905  0.00  0.00    +0.001 C 
ATOM     29  H   UNL     1      32.931 -15.299 -25.623  0.00  0.00    +0.152 HD
ENDBRANCH  19  21
ENDBRANCH  18  19
ENDBRANCH   1  18
TORSDOF 5
ENDMDL
MODEL 4
REMARK VINA RESULT:     -10.3      6.218     13.352
REMARK  Name = 33625
REMARK  5 active torsions:
REMARK  status: ('A' for Active; 'I' for Inactive)
REMARK    1  A    between atoms: N_1  and  C_18
REMARK    2  A    between atoms: C_2  and  N_9
REMARK    3  A    between atoms: C_10  and  C_12
REMARK    4  A    between atoms: C_18  and  C_19
REMARK    5  A    between atoms: C_19  and  C_21
REMARK                            x       y       z     vdW  Elec       q    Type
REMARK                         _______ _______ _______ _____ _____    ______ ____
ROOT
ATOM      1  N   UNL     1      31.701  -7.873 -21.183  0.00  0.00    +0.387 N 
ATOM      2  C   UNL     1      31.745 -10.028 -23.181  0.00  0.00    +0.068 C 
ATOM      3  C   UNL     1      32.748  -8.872 -23.192  0.00  0.00    -0.003 C 
ATOM      4  C   UNL     1      30.470  -9.611 -22.445  0.00  0.00    -0.003 C 
ATOM      5  C   UNL     1      32.971  -8.289 -21.793  0.00  0.00    -0.076 C 
ATOM      6  C   UNL     1      30.770  -9.003 -21.072  0.00  0.00    -0.076 C 
ATOM      7  H   UNL     1      31.275  -7.174 -21.792  0.00  0.00    -0.080 HD
ENDROOT
BRANCH   2   9
ATOM      8  O   UNL     1      32.822 -12.292 -24.582  0.00  0.00    -0.270 OA
ATOM      9  N   UNL     1      32.324 -11.214 -22.590  0.00  0.00    -0.303 N 
ATOM     10  C   UNL     1      32.820 -12.259 -23.355  0.00  0.00    +0.246 C 
ATOM     11  H   UNL     1      32.368 -11.282 -21.609  0.00  0.00    +0.150 HD
BRANCH  10  12
ATOM     12  C   UNL     1      33.358 -13.418 -22.597  0.00  0.00    +0.053 C 
ATOM     13  C   UNL     1      33.223 -13.436 -21.223  0.00  0.00    +0.005 C 
ATOM     14  C   UNL     1      33.974 -14.439 -23.290  0.00  0.00    +0.005 C 
ATOM     15  C   UNL     1      33.728 -14.524 -20.511  0.00  0.00    +0.000 C 
ATOM     16  C   UNL     1      34.479 -15.527 -22.577  0.00  0.00    +0.000 C 
ATOM     17  C   UNL     1      34.356 -15.570 -21.188  0.00  0.00    +0.000 C 
ENDBRANCH  10  12
ENDBRANCH   2   9
BRANCH   1  18
ATOM     18  C   UNL     1      31.936  -7.270 -19.871  0.00  0.00    -0.073 C 
BRANCH  18  19
ATOM     19  C   UNL     1      32.363  -5.808 -20.008  0.00  0.00    +0.005 C 
BRANCH  19  21
ATOM     20  N   UNL     1      29.881  -4.042 -22.020  0.00  0.00    -0.312 N 
ATOM     21  C   UNL     1      31.542  -5.086 -21.045  0.00  0.00    -0.008 C 
ATOM     22  C   UNL     1      31.961  -4.779 -22.351  0.00  0.00    +0.011 C 
ATOM     23  C   UNL     1      30.275  -4.635 -20.851  0.00  0.00    +0.057 C 
ATOM     24  C   UNL     1      30.890  -4.115 -22.954  0.00  0.00    +0.048 C 
ATOM     25  C   UNL     1      33.136  -4.989 -23.099  0.00  0.00    +0.001 C 
ATOM     26  C   UNL     1      30.937  -3.649 -24.272  0.00  0.00    +0.015 C 
ATOM     27  C   UNL     1      33.197  -4.528 -24.418  0.00  0.00    +0.000 C 
ATOM     28  C   UNL     1      32.113  -3.869 -24.995  0.00  0.00    +0.001 C 
ATOM     29  H   UNL     1      29.003  -3.623 -22.171  0.00  0.00    +0.152 HD
ENDBRANCH  19  21
ENDBRANCH  18  19
ENDBRANCH   1  18
TORSDOF 5
ENDMDL
MODEL 5
REMARK VINA RESULT:     -10.3      5.979      9.415
REMARK  Name = 33625
REMARK  5 active torsions:
REMARK  status: ('A' for Active; 'I' for Inactive)
REMARK    1  A    between atoms: N_1  and  C_18
REMARK    2  A    between atoms: C_2  and  N_9
REMARK    3  A    between atoms: C_10  and  C_12
REMARK    4  A    between atoms: C_18  and  C_19
REMARK    5  A    between atoms: C_19  and  C_21
REMARK                            x       y       z     vdW  Elec       q    Type
REMARK                         _______ _______ _______ _____ _____    ______ ____
ROOT
ATOM      1  N   UNL     1      37.446 -23.321 -14.626  0.00  0.00    +0.387 N 
ATOM      2  C   UNL     1      35.539 -24.495 -12.723  0.00  0.00    +0.068 C 
ATOM      3  C   UNL     1      36.157 -23.110 -12.523  0.00  0.00    -0.003 C 
ATOM      4  C   UNL     1      36.437 -25.347 -13.622  0.00  0.00    -0.003 C 
ATOM      5  C   UNL     1      36.547 -22.455 -13.852  0.00  0.00    -0.076 C 
ATOM      6  C   UNL     1      36.818 -24.617 -14.914  0.00  0.00    -0.076 C 
ATOM      7  H   UNL     1      38.278 -23.495 -14.061  0.00  0.00    -0.080 HD
ENDROOT
BRANCH   2   9
ATOM      8  O   UNL     1      33.373 -22.929 -11.671  0.00  0.00    -0.270 OA
ATOM      9  N   UNL     1      34.202 -24.395 -13.265  0.00  0.00    -0.303 N 
ATOM     10  C   UNL     1      33.220 -23.608 -12.682  0.00  0.00    +0.246 C 
ATOM     11  H   UNL     1      33.981 -24.905 -14.078  0.00  0.00    +0.150 HD
BRANCH  10  12
ATOM     12  C   UNL     1      31.891 -23.634 -13.345  0.00  0.00    +0.053 C 
ATOM     13  C   UNL     1      31.271 -24.851 -13.546  0.00  0.00    +0.005 C 
ATOM     14  C   UNL     1      31.319 -22.442 -13.738  0.00  0.00    +0.005 C 
ATOM     15  C   UNL     1      30.023 -24.875 -14.169  0.00  0.00    +0.000 C 
ATOM     16  C   UNL     1      30.071 -22.467 -14.360  0.00  0.00    +0.000 C 
ATOM     17  C   UNL     1      29.423 -23.683 -14.575  0.00  0.00    +0.000 C 
ENDBRANCH  10  12
ENDBRANCH   2   9
BRANCH   1  18
ATOM     18  C   UNL     1      37.852 -22.661 -15.866  0.00  0.00    -0.073 C 
BRANCH  18  19
ATOM     19  C   UNL     1      37.161 -21.305 -16.017  0.00  0.00    +0.005 C 
BRANCH  19  21
ATOM     20  N   UNL     1      35.400 -20.922 -19.193  0.00  0.00    -0.312 N 
ATOM     21  C   UNL     1      36.220 -21.292 -17.195  0.00  0.00    -0.008 C 
ATOM     22  C   UNL     1      34.933 -21.853 -17.219  0.00  0.00    +0.011 C 
ATOM     23  C   UNL     1      36.498 -20.727 -18.399  0.00  0.00    +0.057 C 
ATOM     24  C   UNL     1      34.428 -21.608 -18.498  0.00  0.00    +0.048 C 
ATOM     25  C   UNL     1      34.128 -22.549 -16.295  0.00  0.00    +0.001 C 
ATOM     26  C   UNL     1      33.155 -22.025 -18.901  0.00  0.00    +0.015 C 
ATOM     27  C   UNL     1      32.852 -22.972 -16.684  0.00  0.00    +0.000 C 
ATOM     28  C   UNL     1      32.374 -22.713 -17.967  0.00  0.00    +0.001 C 
ATOM     29  H   UNL     1      35.317 -20.618 -20.125  0.00  0.00    +0.152 HD
ENDBRANCH  19  21
ENDBRANCH  18  19
ENDBRANCH   1  18
TORSDOF 5
ENDMDL
MODEL 6
REMARK VINA RESULT:     -10.1      4.992      7.903
REMARK  Name = 33625
REMARK  5 active torsions:
REMARK  status: ('A' for Active; 'I' for Inactive)
REMARK    1  A    between atoms: N_1  and  C_18
REMARK    2  A    between atoms: C_2  and  N_9
REMARK    3  A    between atoms: C_10  and  C_12
REMARK    4  A    between atoms: C_18  and  C_19
REMARK    5  A    between atoms: C_19  and  C_21
REMARK                            x       y       z     vdW  Elec       q    Type
REMARK                         _______ _______ _______ _____ _____    ______ ____
ROOT
ATOM      1  N   UNL     1      34.803 -24.099 -13.149  0.00  0.00    +0.387 N 
ATOM      2  C   UNL     1      36.789 -23.301 -15.164  0.00  0.00    +0.068 C 
ATOM      3  C   UNL     1      36.422 -24.764 -14.901  0.00  0.00    -0.003 C 
ATOM      4  C   UNL     1      36.477 -22.450 -13.932  0.00  0.00    -0.003 C 
ATOM      5  C   UNL     1      34.998 -24.912 -14.357  0.00  0.00    -0.076 C 
ATOM      6  C   UNL     1      35.050 -22.677 -13.421  0.00  0.00    -0.076 C 
ATOM      7  H   UNL     1      35.481 -24.407 -12.451  0.00  0.00    -0.080 HD
ENDROOT
BRANCH   2   9
ATOM      8  O   UNL     1      37.305 -20.820 -16.516  0.00  0.00    -0.270 OA
ATOM      9  N   UNL     1      36.105 -22.797 -16.334  0.00  0.00    -0.303 N 
ATOM     10  C   UNL     1      36.428 -21.581 -16.917  0.00  0.00    +0.246 C 
ATOM     11  H   UNL     1      35.383 -23.336 -16.731  0.00  0.00    +0.150 HD
BRANCH  10  12
ATOM     12  C   UNL     1      35.614 -21.191 -18.097  0.00  0.00    +0.053 C 
ATOM     13  C   UNL     1      34.308 -21.633 -18.181  0.00  0.00    +0.005 C 
ATOM     14  C   UNL     1      36.188 -20.401 -19.071  0.00  0.00    +0.005 C 
ATOM     15  C   UNL     1      33.544 -21.268 -19.289  0.00  0.00    +0.000 C 
ATOM     16  C   UNL     1      35.422 -20.036 -20.178  0.00  0.00    +0.000 C 
ATOM     17  C   UNL     1      34.101 -20.469 -20.288  0.00  0.00    +0.000 C 
ENDBRANCH  10  12
ENDBRANCH   2   9
BRANCH   1  18
ATOM     18  C   UNL     1      33.456 -24.293 -12.613  0.00  0.00    -0.073 C 
BRANCH  18  19
ATOM     19  C   UNL     1      32.493 -23.238 -13.157  0.00  0.00    +0.005 C 
BRANCH  19  21
ATOM     20  N   UNL     1      29.372 -25.111 -13.442  0.00  0.00    -0.312 N 
ATOM     21  C   UNL     1      31.153 -23.837 -13.501  0.00  0.00    -0.008 C 
ATOM     22  C   UNL     1      30.324 -23.431 -14.560  0.00  0.00    +0.011 C 
ATOM     23  C   UNL     1      30.568 -24.859 -12.825  0.00  0.00    +0.057 C 
ATOM     24  C   UNL     1      29.196 -24.254 -14.505  0.00  0.00    +0.048 C 
ATOM     25  C   UNL     1      30.399 -22.452 -15.570  0.00  0.00    +0.001 C 
ATOM     26  C   UNL     1      28.137 -24.145 -15.412  0.00  0.00    +0.015 C 
ATOM     27  C   UNL     1      29.347 -22.331 -16.484  0.00  0.00    +0.000 C 
ATOM     28  C   UNL     1      28.234 -23.166 -16.406  0.00  0.00    +0.001 C 
ATOM     29  H   UNL     1      28.730 -25.804 -13.165  0.00  0.00    +0.152 HD
ENDBRANCH  19  21
ENDBRANCH  18  19
ENDBRANCH   1  18
TORSDOF 5
ENDMDL
MODEL 7
REMARK VINA RESULT:     -10.1      7.184     11.874
REMARK  Name = 33625
REMARK  5 active torsions:
REMARK  status: ('A' for Active; 'I' for Inactive)
REMARK    1  A    between atoms: N_1  and  C_18
REMARK    2  A    between atoms: C_2  and  N_9
REMARK    3  A    between atoms: C_10  and  C_12
REMARK    4  A    between atoms: C_18  and  C_19
REMARK    5  A    between atoms: C_19  and  C_21
REMARK                            x       y       z     vdW  Elec       q    Type
REMARK                         _______ _______ _______ _____ _____    ______ ____
ROOT
ATOM      1  N   UNL     1      31.139  -7.525 -20.960  0.00  0.00    +0.387 N 
ATOM      2  C   UNL     1      31.315  -4.842 -22.147  0.00  0.00    +0.068 C 
ATOM      3  C   UNL     1      31.877  -5.171 -20.762  0.00  0.00    -0.003 C 
ATOM      4  C   UNL     1      30.214  -5.837 -22.517  0.00  0.00    -0.003 C 
ATOM      5  C   UNL     1      32.269  -6.646 -20.634  0.00  0.00    -0.076 C 
ATOM      6  C   UNL     1      30.661  -7.290 -22.329  0.00  0.00    -0.076 C 
ATOM      7  H   UNL     1      30.376  -7.307 -20.320  0.00  0.00    -0.080 HD
ENDROOT
BRANCH   2   9
ATOM      8  O   UNL     1      31.372  -3.280 -24.557  0.00  0.00    -0.270 OA
ATOM      9  N   UNL     1      32.363  -4.829 -23.143  0.00  0.00    -0.303 N 
ATOM     10  C   UNL     1      32.298  -4.037 -24.279  0.00  0.00    +0.246 C 
ATOM     11  H   UNL     1      33.151  -5.404 -23.010  0.00  0.00    +0.150 HD
BRANCH  10  12
ATOM     12  C   UNL     1      33.442  -4.158 -25.219  0.00  0.00    +0.053 C 
ATOM     13  C   UNL     1      33.911  -3.022 -25.848  0.00  0.00    +0.005 C 
ATOM     14  C   UNL     1      33.999  -5.401 -25.434  0.00  0.00    +0.005 C 
ATOM     15  C   UNL     1      34.984  -3.136 -26.732  0.00  0.00    +0.000 C 
ATOM     16  C   UNL     1      35.073  -5.514 -26.317  0.00  0.00    +0.000 C 
ATOM     17  C   UNL     1      35.566  -4.381 -26.966  0.00  0.00    +0.000 C 
ENDBRANCH  10  12
ENDBRANCH   2   9
BRANCH   1  18
ATOM     18  C   UNL     1      31.513  -8.928 -20.782  0.00  0.00    -0.073 C 
BRANCH  18  19
ATOM     19  C   UNL     1      30.971  -9.789 -21.924  0.00  0.00    +0.005 C 
BRANCH  19  21
ATOM     20  N   UNL     1      33.560 -11.707 -23.641  0.00  0.00    -0.312 N 
ATOM     21  C   UNL     1      32.004 -10.771 -22.416  0.00  0.00    -0.008 C 
ATOM     22  C   UNL     1      32.342 -11.983 -21.792  0.00  0.00    +0.011 C 
ATOM     23  C   UNL     1      32.748 -10.609 -23.540  0.00  0.00    +0.057 C 
ATOM     24  C   UNL     1      33.334 -12.563 -22.586  0.00  0.00    +0.048 C 
ATOM     25  C   UNL     1      31.919 -12.663 -20.633  0.00  0.00    +0.001 C 
ATOM     26  C   UNL     1      33.925 -13.792 -22.278  0.00  0.00    +0.015 C 
ATOM     27  C   UNL     1      32.502 -13.894 -20.313  0.00  0.00    +0.000 C 
ATOM     28  C   UNL     1      33.489 -14.449 -21.124  0.00  0.00    +0.001 C 
ATOM     29  H   UNL     1      34.212 -11.861 -24.362  0.00  0.00    +0.152 HD
ENDBRANCH  19  21
ENDBRANCH  18  19
ENDBRANCH   1  18
TORSDOF 5
ENDMDL
MODEL 8
REMARK VINA RESULT:      -9.9      4.529     10.963
REMARK  Name = 33625
REMARK  5 active torsions:
REMARK  status: ('A' for Active; 'I' for Inactive)
REMARK    1  A    between atoms: N_1  and  C_18
REMARK    2  A    between atoms: C_2  and  N_9
REMARK    3  A    between atoms: C_10  and  C_12
REMARK    4  A    between atoms: C_18  and  C_19
REMARK    5  A    between atoms: C_19  and  C_21
REMARK                            x       y       z     vdW  Elec       q    Type
REMARK                         _______ _______ _______ _____ _____    ______ ____
ROOT
ATOM      1  N   UNL     1      31.960 -11.560 -21.875  0.00  0.00    +0.387 N 
ATOM      2  C   UNL     1      33.474 -13.209 -23.779  0.00  0.00    +0.068 C 
ATOM      3  C   UNL     1      34.106 -12.047 -23.008  0.00  0.00    -0.003 C 
ATOM      4  C   UNL     1      31.961 -13.011 -23.881  0.00  0.00    -0.003 C 
ATOM      5  C   UNL     1      33.397 -11.786 -21.676  0.00  0.00    -0.076 C 
ATOM      6  C   UNL     1      31.324 -12.716 -22.519  0.00  0.00    -0.076 C 
ATOM      7  H   UNL     1      31.851 -10.757 -22.495  0.00  0.00    -0.080 HD
ENDROOT
BRANCH   2   9
ATOM      8  O   UNL     1      34.110 -15.662 -25.130  0.00  0.00    -0.270 OA
ATOM      9  N   UNL     1      33.794 -14.477 -23.162  0.00  0.00    -0.303 N 
ATOM     10  C   UNL     1      34.088 -15.611 -23.904  0.00  0.00    +0.246 C 
ATOM     11  H   UNL     1      33.802 -14.538 -22.179  0.00  0.00    +0.150 HD
BRANCH  10  12
ATOM     12  C   UNL     1      34.369 -16.842 -23.121  0.00  0.00    +0.053 C 
ATOM     13  C   UNL     1      33.997 -18.064 -23.645  0.00  0.00    +0.005 C 
ATOM     14  C   UNL     1      34.992 -16.725 -21.896  0.00  0.00    +0.005 C 
ATOM     15  C   UNL     1      34.260 -19.220 -22.910  0.00  0.00    +0.000 C 
ATOM     16  C   UNL     1      35.255 -17.882 -21.162  0.00  0.00    +0.000 C 
ATOM     17  C   UNL     1      34.889 -19.129 -21.668  0.00  0.00    +0.000 C 
ENDBRANCH  10  12
ENDBRANCH   2   9
BRANCH   1  18
ATOM     18  C   UNL     1      31.307 -11.259 -20.601  0.00  0.00    -0.073 C 
BRANCH  18  19
ATOM     19  C   UNL     1      30.469  -9.984 -20.701  0.00  0.00    +0.005 C 
BRANCH  19  21
ATOM     20  N   UNL     1      32.429  -7.077 -19.681  0.00  0.00    -0.312 N 
ATOM     21  C   UNL     1      31.323  -8.749 -20.565  0.00  0.00    -0.008 C 
ATOM     22  C   UNL     1      31.897  -8.031 -21.627  0.00  0.00    +0.011 C 
ATOM     23  C   UNL     1      31.651  -8.163 -19.384  0.00  0.00    +0.057 C 
ATOM     24  C   UNL     1      32.596  -6.971 -21.045  0.00  0.00    +0.048 C 
ATOM     25  C   UNL     1      31.904  -8.157 -23.030  0.00  0.00    +0.001 C 
ATOM     26  C   UNL     1      33.305  -6.030 -21.797  0.00  0.00    +0.015 C 
ATOM     27  C   UNL     1      32.610  -7.222 -23.796  0.00  0.00    +0.000 C 
ATOM     28  C   UNL     1      33.298  -6.175 -23.188  0.00  0.00    +0.001 C 
ATOM     29  H   UNL     1      32.814  -6.461 -19.018  0.00  0.00    +0.152 HD
ENDBRANCH  19  21
ENDBRANCH  18  19
ENDBRANCH   1  18
TORSDOF 5
ENDMDL
MODEL 9
REMARK VINA RESULT:      -9.8      2.545      9.063
REMARK  Name = 33625
REMARK  5 active torsions:
REMARK  status: ('A' for Active; 'I' for Inactive)
REMARK    1  A    between atoms: N_1  and  C_18
REMARK    2  A    between atoms: C_2  and  N_9
REMARK    3  A    between atoms: C_10  and  C_12
REMARK    4  A    between atoms: C_18  and  C_19
REMARK    5  A    between atoms: C_19  and  C_21
REMARK                            x       y       z     vdW  Elec       q    Type
REMARK                         _______ _______ _______ _____ _____    ______ ____
ROOT
ATOM      1  N   UNL     1      34.859 -19.094 -20.720  0.00  0.00    +0.387 N 
ATOM      2  C   UNL     1      34.817 -21.806 -19.589  0.00  0.00    +0.068 C 
ATOM      3  C   UNL     1      36.050 -20.902 -19.520  0.00  0.00    -0.003 C 
ATOM      4  C   UNL     1      33.920 -21.385 -20.755  0.00  0.00    -0.003 C 
ATOM      5  C   UNL     1      35.678 -19.417 -19.544  0.00  0.00    -0.076 C 
ATOM      6  C   UNL     1      33.620 -19.882 -20.738  0.00  0.00    -0.076 C 
ATOM      7  H   UNL     1      35.396 -19.336 -21.553  0.00  0.00    -0.080 HD
ENDROOT
BRANCH   2   9
ATOM      8  O   UNL     1      33.158 -23.904 -18.543  0.00  0.00    -0.270 OA
ATOM      9  N   UNL     1      34.090 -21.790 -18.339  0.00  0.00    -0.303 N 
ATOM     10  C   UNL     1      33.312 -22.858 -17.919  0.00  0.00    +0.246 C 
ATOM     11  H   UNL     1      34.150 -20.992 -17.766  0.00  0.00    +0.150 HD
BRANCH  10  12
ATOM     12  C   UNL     1      32.607 -22.675 -16.624  0.00  0.00    +0.053 C 
ATOM     13  C   UNL     1      31.238 -22.495 -16.630  0.00  0.00    +0.005 C 
ATOM     14  C   UNL     1      33.342 -22.691 -15.457  0.00  0.00    +0.005 C 
ATOM     15  C   UNL     1      30.576 -22.323 -15.414  0.00  0.00    +0.000 C 
ATOM     16  C   UNL     1      32.679 -22.519 -14.242  0.00  0.00    +0.000 C 
ATOM     17  C   UNL     1      31.296 -22.335 -14.220  0.00  0.00    +0.000 C 
ENDBRANCH  10  12
ENDBRANCH   2   9
BRANCH   1  18
ATOM     18  C   UNL     1      34.557 -17.663 -20.757  0.00  0.00    -0.073 C 
BRANCH  18  19
ATOM     19  C   UNL     1      35.392 -16.954 -21.824  0.00  0.00    +0.005 C 
BRANCH  19  21
ATOM     20  N   UNL     1      33.485 -15.188 -24.388  0.00  0.00    -0.312 N 
ATOM     21  C   UNL     1      34.547 -16.036 -22.670  0.00  0.00    -0.008 C 
ATOM     22  C   UNL     1      33.924 -14.858 -22.226  0.00  0.00    +0.011 C 
ATOM     23  C   UNL     1      34.275 -16.231 -23.986  0.00  0.00    +0.057 C 
ATOM     24  C   UNL     1      33.254 -14.333 -23.333  0.00  0.00    +0.048 C 
ATOM     25  C   UNL     1      33.850 -14.167 -21.000  0.00  0.00    +0.001 C 
ATOM     26  C   UNL     1      32.511 -13.150 -23.276  0.00  0.00    +0.015 C 
ATOM     27  C   UNL     1      33.110 -12.982 -20.928  0.00  0.00    +0.000 C 
ATOM     28  C   UNL     1      32.452 -12.482 -22.049  0.00  0.00    +0.001 C 
ATOM     29  H   UNL     1      33.132 -15.067 -25.299  0.00  0.00    +0.152 HD
ENDBRANCH  19  21
ENDBRANCH  18  19
ENDBRANCH   1  18
TORSDOF 5
ENDMDL
