MODEL 1
REMARK VINA RESULT:     -11.6      0.000      0.000
REMARK  Name = 56960912
REMARK  4 active torsions:
REMARK  status: ('A' for Active; 'I' for Inactive)
REMARK    1  A    between atoms: C_2  and  C_12
REMARK    2  A    between atoms: C_9  and  O_22
REMARK    3  A    between atoms: C_15  and  C_19
REMARK    4  A    between atoms: C_19  and  O_20
REMARK                            x       y       z     vdW  Elec       q    Type
REMARK                         _______ _______ _______ _____ _____    ______ ____
ROOT
ATOM      1  N   UNL     1      33.686 -18.718 -21.165  0.00  0.00    -0.406 NA
ATOM      2  C   UNL     1      34.703 -17.986 -21.676  0.00  0.00    +0.131 C 
ATOM      3  C   UNL     1      35.312 -19.987 -19.921  0.00  0.00    +0.099 C 
ATOM      4  C   UNL     1      33.983 -19.705 -20.299  0.00  0.00    +0.117 C 
ATOM      5  C   UNL     1      36.033 -18.188 -21.365  0.00  0.00    +0.028 C 
ATOM      6  C   UNL     1      36.336 -19.206 -20.472  0.00  0.00    -0.012 C 
ATOM      7  C   UNL     1      35.586 -21.026 -19.014  0.00  0.00    +0.022 C 
ATOM      8  C   UNL     1      32.967 -20.481 -19.750  0.00  0.00    +0.031 C 
ATOM      9  C   UNL     1      34.550 -21.785 -18.480  0.00  0.00    +0.130 C 
ATOM     10  C   UNL     1      33.239 -21.513 -18.849  0.00  0.00    +0.039 C 
ENDROOT
BRANCH   2  12
ATOM     11 CL   UNL     1      33.695 -18.863 -24.453  0.00  0.00    -0.082 Cl
ATOM     12  C   UNL     1      34.303 -16.948 -22.595  0.00  0.00    +0.040 C 
ATOM     13  C   UNL     1      33.832 -17.238 -23.875  0.00  0.00    +0.060 C 
ATOM     14  C   UNL     1      34.398 -15.622 -22.171  0.00  0.00    +0.004 C 
ATOM     15  C   UNL     1      33.550 -14.877 -24.308  0.00  0.00    +0.076 C 
ATOM     16  C   UNL     1      33.456 -16.203 -24.732  0.00  0.00    +0.018 C 
ATOM     17  C   UNL     1      34.021 -14.587 -23.027  0.00  0.00    +0.007 C 
BRANCH  15  19
ATOM     18  O   UNL     1      33.044 -13.890 -26.426  0.00  0.00    -0.245 OA
ATOM     19  C   UNL     1      33.157 -13.799 -25.199  0.00  0.00    +0.338 C 
BRANCH  19  20
ATOM     20  O   UNL     1      32.914 -12.636 -24.535  0.00  0.00    -0.477 OA
ATOM     21  H   UNL     1      33.607 -12.020 -24.401  0.00  0.00    +0.295 HD
ENDBRANCH  19  20
ENDBRANCH  15  19
ENDBRANCH   2  12
BRANCH   9  22
ATOM     22  O   UNL     1      34.821 -22.790 -17.603  0.00  0.00    -0.506 OA
ATOM     23  H   UNL     1      34.997 -22.593 -16.705  0.00  0.00    +0.292 HD
ENDBRANCH   9  22
TORSDOF 4
ENDMDL
MODEL 2
REMARK VINA RESULT:     -11.0      1.715      7.524
REMARK  Name = 56960912
REMARK  4 active torsions:
REMARK  status: ('A' for Active; 'I' for Inactive)
REMARK    1  A    between atoms: C_2  and  C_12
REMARK    2  A    between atoms: C_9  and  O_22
REMARK    3  A    between atoms: C_15  and  C_19
REMARK    4  A    between atoms: C_19  and  O_20
REMARK                            x       y       z     vdW  Elec       q    Type
REMARK                         _______ _______ _______ _____ _____    ______ ____
ROOT
ATOM      1  N   UNL     1      33.995 -16.457 -21.003  0.00  0.00    -0.406 NA
ATOM      2  C   UNL     1      34.155 -17.586 -21.730  0.00  0.00    +0.131 C 
ATOM      3  C   UNL     1      34.062 -15.204 -23.060  0.00  0.00    +0.099 C 
ATOM      4  C   UNL     1      33.949 -15.280 -21.656  0.00  0.00    +0.117 C 
ATOM      5  C   UNL     1      34.273 -17.611 -23.106  0.00  0.00    +0.028 C 
ATOM      6  C   UNL     1      34.225 -16.397 -23.775  0.00  0.00    -0.012 C 
ATOM      7  C   UNL     1      34.009 -13.958 -23.709  0.00  0.00    +0.022 C 
ATOM      8  C   UNL     1      33.786 -14.094 -20.947  0.00  0.00    +0.031 C 
ATOM      9  C   UNL     1      33.845 -12.788 -22.974  0.00  0.00    +0.130 C 
ATOM     10  C   UNL     1      33.734 -12.856 -21.591  0.00  0.00    +0.039 C 
ENDROOT
BRANCH   2  12
ATOM     11 CL   UNL     1      36.927 -18.659 -20.916  0.00  0.00    -0.082 Cl
ATOM     12  C   UNL     1      34.194 -18.806 -20.959  0.00  0.00    +0.040 C 
ATOM     13  C   UNL     1      35.397 -19.374 -20.539  0.00  0.00    +0.060 C 
ATOM     14  C   UNL     1      32.983 -19.417 -20.632  0.00  0.00    +0.004 C 
ATOM     15  C   UNL     1      34.178 -21.165 -19.468  0.00  0.00    +0.076 C 
ATOM     16  C   UNL     1      35.389 -20.553 -19.794  0.00  0.00    +0.018 C 
ATOM     17  C   UNL     1      32.974 -20.596 -19.887  0.00  0.00    +0.007 C 
BRANCH  15  19
ATOM     18  O   UNL     1      33.530 -23.412 -18.969  0.00  0.00    -0.245 OA
ATOM     19  C   UNL     1      34.170 -22.393 -18.691  0.00  0.00    +0.338 C 
BRANCH  19  20
ATOM     20  O   UNL     1      34.962 -22.315 -17.586  0.00  0.00    -0.477 OA
ATOM     21  H   UNL     1      35.775 -21.851 -17.625  0.00  0.00    +0.295 HD
ENDBRANCH  19  20
ENDBRANCH  15  19
ENDBRANCH   2  12
BRANCH   9  22
ATOM     22  O   UNL     1      33.795 -11.584 -23.607  0.00  0.00    -0.506 OA
ATOM     23  H   UNL     1      32.979 -11.259 -23.931  0.00  0.00    +0.292 HD
ENDBRANCH   9  22
TORSDOF 4
ENDMDL
MODEL 3
REMARK VINA RESULT:     -10.8      3.406      9.030
REMARK  Name = 56960912
REMARK  4 active torsions:
REMARK  status: ('A' for Active; 'I' for Inactive)
REMARK    1  A    between atoms: C_2  and  C_12
REMARK    2  A    between atoms: C_9  and  O_22
REMARK    3  A    between atoms: C_15  and  C_19
REMARK    4  A    between atoms: C_19  and  O_20
REMARK                            x       y       z     vdW  Elec       q    Type
REMARK                         _______ _______ _______ _____ _____    ______ ____
ROOT
ATOM      1  N   UNL     1      35.823 -20.249 -19.169  0.00  0.00    -0.406 NA
ATOM      2  C   UNL     1      34.915 -21.046 -18.560  0.00  0.00    +0.131 C 
ATOM      3  C   UNL     1      34.147 -19.711 -20.814  0.00  0.00    +0.099 C 
ATOM      4  C   UNL     1      35.448 -19.590 -20.281  0.00  0.00    +0.117 C 
ATOM      5  C   UNL     1      33.621 -21.226 -19.006  0.00  0.00    +0.028 C 
ATOM      6  C   UNL     1      33.237 -20.545 -20.152  0.00  0.00    -0.012 C 
ATOM      7  C   UNL     1      33.789 -19.008 -21.978  0.00  0.00    +0.022 C 
ATOM      8  C   UNL     1      36.351 -18.761 -20.940  0.00  0.00    +0.031 C 
ATOM      9  C   UNL     1      34.713 -18.185 -22.615  0.00  0.00    +0.130 C 
ATOM     10  C   UNL     1      35.995 -18.062 -22.096  0.00  0.00    +0.039 C 
ENDROOT
BRANCH   2  12
ATOM     11 CL   UNL     1      32.886 -22.740 -16.974  0.00  0.00    -0.082 Cl
ATOM     12  C   UNL     1      35.393 -21.717 -17.375  0.00  0.00    +0.040 C 
ATOM     13  C   UNL     1      34.556 -22.508 -16.588  0.00  0.00    +0.060 C 
ATOM     14  C   UNL     1      36.734 -21.557 -17.024  0.00  0.00    +0.004 C 
ATOM     15  C   UNL     1      36.401 -22.979 -15.099  0.00  0.00    +0.076 C 
ATOM     16  C   UNL     1      35.060 -23.139 -15.450  0.00  0.00    +0.018 C 
ATOM     17  C   UNL     1      37.239 -22.189 -15.887  0.00  0.00    +0.007 C 
BRANCH  15  19
ATOM     18  O   UNL     1      37.664 -23.116 -13.073  0.00  0.00    -0.245 OA
ATOM     19  C   UNL     1      36.926 -23.638 -13.915  0.00  0.00    +0.338 C 
BRANCH  19  20
ATOM     20  O   UNL     1      36.514 -24.932 -13.812  0.00  0.00    -0.477 OA
ATOM     21  H   UNL     1      36.799 -25.459 -13.091  0.00  0.00    +0.295 HD
ENDBRANCH  19  20
ENDBRANCH  15  19
ENDBRANCH   2  12
BRANCH   9  22
ATOM     22  O   UNL     1      34.361 -17.507 -23.741  0.00  0.00    -0.506 OA
ATOM     23  H   UNL     1      33.457 -17.364 -23.939  0.00  0.00    +0.292 HD
ENDBRANCH   9  22
TORSDOF 4
ENDMDL
MODEL 4
REMARK VINA RESULT:     -10.7      1.462      7.660
REMARK  Name = 56960912
REMARK  4 active torsions:
REMARK  status: ('A' for Active; 'I' for Inactive)
REMARK    1  A    between atoms: C_2  and  C_12
REMARK    2  A    between atoms: C_9  and  O_22
REMARK    3  A    between atoms: C_15  and  C_19
REMARK    4  A    between atoms: C_19  and  O_20
REMARK                            x       y       z     vdW  Elec       q    Type
REMARK                         _______ _______ _______ _____ _____    ______ ____
ROOT
ATOM      1  N   UNL     1      34.458 -17.604 -21.393  0.00  0.00    -0.406 NA
ATOM      2  C   UNL     1      34.383 -18.935 -21.627  0.00  0.00    +0.131 C 
ATOM      3  C   UNL     1      33.927 -17.235 -23.714  0.00  0.00    +0.099 C 
ATOM      4  C   UNL     1      34.234 -16.764 -22.420  0.00  0.00    +0.117 C 
ATOM      5  C   UNL     1      34.089 -19.489 -22.857  0.00  0.00    +0.028 C 
ATOM      6  C   UNL     1      33.858 -18.620 -23.913  0.00  0.00    -0.012 C 
ATOM      7  C   UNL     1      33.699 -16.328 -24.763  0.00  0.00    +0.022 C 
ATOM      8  C   UNL     1      34.301 -15.388 -22.223  0.00  0.00    +0.031 C 
ATOM      9  C   UNL     1      33.772 -14.957 -24.537  0.00  0.00    +0.130 C 
ATOM     10  C   UNL     1      34.074 -14.487 -23.266  0.00  0.00    +0.039 C 
ENDROOT
BRANCH   2  12
ATOM     11 CL   UNL     1      31.960 -20.335 -20.335  0.00  0.00    -0.082 Cl
ATOM     12  C   UNL     1      34.635 -19.769 -20.476  0.00  0.00    +0.040 C 
ATOM     13  C   UNL     1      33.608 -20.447 -19.819  0.00  0.00    +0.060 C 
ATOM     14  C   UNL     1      35.949 -19.889 -20.025  0.00  0.00    +0.004 C 
ATOM     15  C   UNL     1      35.210 -21.363 -18.259  0.00  0.00    +0.076 C 
ATOM     16  C   UNL     1      33.895 -21.244 -18.710  0.00  0.00    +0.018 C 
ATOM     17  C   UNL     1      36.237 -20.686 -18.917  0.00  0.00    +0.007 C 
BRANCH  15  19
ATOM     18  O   UNL     1      34.684 -22.849 -16.460  0.00  0.00    -0.245 OA
ATOM     19  C   UNL     1      35.510 -22.195 -17.105  0.00  0.00    +0.338 C 
BRANCH  19  20
ATOM     20  O   UNL     1      36.834 -22.186 -16.787  0.00  0.00    -0.477 OA
ATOM     21  H   UNL     1      37.106 -22.384 -15.912  0.00  0.00    +0.295 HD
ENDBRANCH  19  20
ENDBRANCH  15  19
ENDBRANCH   2  12
BRANCH   9  22
ATOM     22  O   UNL     1      33.551 -14.083 -25.557  0.00  0.00    -0.506 OA
ATOM     23  H   UNL     1      33.090 -14.363 -26.322  0.00  0.00    +0.292 HD
ENDBRANCH   9  22
TORSDOF 4
ENDMDL
MODEL 5
REMARK VINA RESULT:     -10.5      5.163      9.671
REMARK  Name = 56960912
REMARK  4 active torsions:
REMARK  status: ('A' for Active; 'I' for Inactive)
REMARK    1  A    between atoms: C_2  and  C_12
REMARK    2  A    between atoms: C_9  and  O_22
REMARK    3  A    between atoms: C_15  and  C_19
REMARK    4  A    between atoms: C_19  and  O_20
REMARK                            x       y       z     vdW  Elec       q    Type
REMARK                         _______ _______ _______ _____ _____    ______ ____
ROOT
ATOM      1  N   UNL     1      32.950 -10.606 -22.781  0.00  0.00    -0.406 NA
ATOM      2  C   UNL     1      32.243 -11.582 -22.164  0.00  0.00    +0.131 C 
ATOM      3  C   UNL     1      31.101  -9.112 -22.385  0.00  0.00    +0.099 C 
ATOM      4  C   UNL     1      32.389  -9.387 -22.891  0.00  0.00    +0.117 C 
ATOM      5  C   UNL     1      30.979 -11.407 -21.637  0.00  0.00    +0.028 C 
ATOM      6  C   UNL     1      30.405 -10.150 -21.752  0.00  0.00    -0.012 C 
ATOM      7  C   UNL     1      30.546  -7.827 -22.518  0.00  0.00    +0.022 C 
ATOM      8  C   UNL     1      33.080  -8.355 -23.519  0.00  0.00    +0.031 C 
ATOM      9  C   UNL     1      31.261  -6.814 -23.150  0.00  0.00    +0.130 C 
ATOM     10  C   UNL     1      32.529  -7.079 -23.651  0.00  0.00    +0.039 C 
ENDROOT
BRANCH   2  12
ATOM     11 CL   UNL     1      32.779 -13.067 -24.811  0.00  0.00    -0.082 Cl
ATOM     12  C   UNL     1      32.913 -12.858 -22.084  0.00  0.00    +0.040 C 
ATOM     13  C   UNL     1      33.202 -13.610 -23.223  0.00  0.00    +0.060 C 
ATOM     14  C   UNL     1      33.272 -13.335 -20.824  0.00  0.00    +0.004 C 
ATOM     15  C   UNL     1      34.210 -15.316 -21.840  0.00  0.00    +0.076 C 
ATOM     16  C   UNL     1      33.851 -14.839 -23.101  0.00  0.00    +0.018 C 
ATOM     17  C   UNL     1      33.921 -14.564 -20.701  0.00  0.00    +0.007 C 
BRANCH  15  19
ATOM     18  O   UNL     1      35.206 -17.136 -20.649  0.00  0.00    -0.245 OA
ATOM     19  C   UNL     1      34.888 -16.597 -21.714  0.00  0.00    +0.338 C 
BRANCH  19  20
ATOM     20  O   UNL     1      35.149 -17.169 -22.921  0.00  0.00    -0.477 OA
ATOM     21  H   UNL     1      36.026 -17.414 -23.143  0.00  0.00    +0.295 HD
ENDBRANCH  19  20
ENDBRANCH  15  19
ENDBRANCH   2  12
BRANCH   9  22
ATOM     22  O   UNL     1      30.719  -5.572 -23.277  0.00  0.00    -0.506 OA
ATOM     23  H   UNL     1      30.742  -4.975 -22.556  0.00  0.00    +0.292 HD
ENDBRANCH   9  22
TORSDOF 4
ENDMDL
MODEL 6
REMARK VINA RESULT:     -10.4      3.904      8.307
REMARK  Name = 56960912
REMARK  4 active torsions:
REMARK  status: ('A' for Active; 'I' for Inactive)
REMARK    1  A    between atoms: C_2  and  C_12
REMARK    2  A    between atoms: C_9  and  O_22
REMARK    3  A    between atoms: C_15  and  C_19
REMARK    4  A    between atoms: C_19  and  O_20
REMARK                            x       y       z     vdW  Elec       q    Type
REMARK                         _______ _______ _______ _____ _____    ______ ____
ROOT
ATOM      1  N   UNL     1      32.506 -12.776 -21.591  0.00  0.00    -0.406 NA
ATOM      2  C   UNL     1      33.317 -13.307 -22.534  0.00  0.00    +0.131 C 
ATOM      3  C   UNL     1      32.305 -10.809 -22.968  0.00  0.00    +0.099 C 
ATOM      4  C   UNL     1      32.005 -11.544 -21.802  0.00  0.00    +0.117 C 
ATOM      5  C   UNL     1      33.666 -12.665 -23.706  0.00  0.00    +0.028 C 
ATOM      6  C   UNL     1      33.148 -11.396 -23.920  0.00  0.00    -0.012 C 
ATOM      7  C   UNL     1      31.765  -9.525 -23.155  0.00  0.00    +0.022 C 
ATOM      8  C   UNL     1      31.167 -10.960 -20.857  0.00  0.00    +0.031 C 
ATOM      9  C   UNL     1      30.928  -8.966 -22.194  0.00  0.00    +0.130 C 
ATOM     10  C   UNL     1      30.630  -9.684 -21.043  0.00  0.00    +0.039 C 
ENDROOT
BRANCH   2  12
ATOM     11 CL   UNL     1      33.787 -15.214 -24.910  0.00  0.00    -0.082 Cl
ATOM     12  C   UNL     1      33.812 -14.630 -22.236  0.00  0.00    +0.040 C 
ATOM     13  C   UNL     1      34.058 -15.568 -23.238  0.00  0.00    +0.060 C 
ATOM     14  C   UNL     1      34.044 -14.959 -20.900  0.00  0.00    +0.004 C 
ATOM     15  C   UNL     1      34.769 -17.165 -21.570  0.00  0.00    +0.076 C 
ATOM     16  C   UNL     1      34.536 -16.835 -22.905  0.00  0.00    +0.018 C 
ATOM     17  C   UNL     1      34.523 -16.226 -20.567  0.00  0.00    +0.007 C 
BRANCH  15  19
ATOM     18  O   UNL     1      34.708 -19.554 -21.483  0.00  0.00    -0.245 OA
ATOM     19  C   UNL     1      35.269 -18.485 -21.223  0.00  0.00    +0.338 C 
BRANCH  19  20
ATOM     20  O   UNL     1      36.457 -18.435 -20.561  0.00  0.00    -0.477 OA
ATOM     21  H   UNL     1      36.495 -18.086 -19.691  0.00  0.00    +0.295 HD
ENDBRANCH  19  20
ENDBRANCH  15  19
ENDBRANCH   2  12
BRANCH   9  22
ATOM     22  O   UNL     1      30.408  -7.722 -22.379  0.00  0.00    -0.506 OA
ATOM     23  H   UNL     1      29.623  -7.472 -21.936  0.00  0.00    +0.292 HD
ENDBRANCH   9  22
TORSDOF 4
ENDMDL
MODEL 7
REMARK VINA RESULT:     -10.4      8.192      9.453
REMARK  Name = 56960912
REMARK  4 active torsions:
REMARK  status: ('A' for Active; 'I' for Inactive)
REMARK    1  A    between atoms: C_2  and  C_12
REMARK    2  A    between atoms: C_9  and  O_22
REMARK    3  A    between atoms: C_15  and  C_19
REMARK    4  A    between atoms: C_19  and  O_20
REMARK                            x       y       z     vdW  Elec       q    Type
REMARK                         _______ _______ _______ _____ _____    ______ ____
ROOT
ATOM      1  N   UNL     1      35.131 -24.167 -15.052  0.00  0.00    -0.406 NA
ATOM      2  C   UNL     1      34.699 -22.964 -15.497  0.00  0.00    +0.131 C 
ATOM      3  C   UNL     1      37.387 -23.335 -15.198  0.00  0.00    +0.099 C 
ATOM      4  C   UNL     1      36.456 -24.353 -14.904  0.00  0.00    +0.117 C 
ATOM      5  C   UNL     1      35.533 -21.910 -15.809  0.00  0.00    +0.028 C 
ATOM      6  C   UNL     1      36.898 -22.104 -15.655  0.00  0.00    -0.012 C 
ATOM      7  C   UNL     1      38.764 -23.563 -15.032  0.00  0.00    +0.022 C 
ATOM      8  C   UNL     1      36.943 -25.574 -14.449  0.00  0.00    +0.031 C 
ATOM      9  C   UNL     1      39.223 -24.795 -14.575  0.00  0.00    +0.130 C 
ATOM     10  C   UNL     1      38.311 -25.801 -14.283  0.00  0.00    +0.039 C 
ENDROOT
BRANCH   2  12
ATOM     11 CL   UNL     1      33.572 -22.464 -18.322  0.00  0.00    -0.082 Cl
ATOM     12  C   UNL     1      33.266 -22.844 -15.628  0.00  0.00    +0.040 C 
ATOM     13  C   UNL     1      32.656 -22.618 -16.862  0.00  0.00    +0.060 C 
ATOM     14  C   UNL     1      32.488 -22.961 -14.476  0.00  0.00    +0.004 C 
ATOM     15  C   UNL     1      30.489 -22.625 -15.793  0.00  0.00    +0.076 C 
ATOM     16  C   UNL     1      31.268 -22.508 -16.944  0.00  0.00    +0.018 C 
ATOM     17  C   UNL     1      31.099 -22.852 -14.558  0.00  0.00    +0.007 C 
BRANCH  15  19
ATOM     18  O   UNL     1      28.428 -21.712 -16.591  0.00  0.00    -0.245 OA
ATOM     19  C   UNL     1      29.043 -22.512 -15.878  0.00  0.00    +0.338 C 
BRANCH  19  20
ATOM     20  O   UNL     1      28.402 -23.403 -15.072  0.00  0.00    -0.477 OA
ATOM     21  H   UNL     1      28.183 -23.164 -14.192  0.00  0.00    +0.295 HD
ENDBRANCH  19  20
ENDBRANCH  15  19
ENDBRANCH   2  12
BRANCH   9  22
ATOM     22  O   UNL     1      40.557 -25.011 -14.416  0.00  0.00    -0.506 OA
ATOM     23  H   UNL     1      41.053 -25.408 -15.104  0.00  0.00    +0.292 HD
ENDBRANCH   9  22
TORSDOF 4
ENDMDL
MODEL 8
REMARK VINA RESULT:     -10.1      3.897      5.945
REMARK  Name = 56960912
REMARK  4 active torsions:
REMARK  status: ('A' for Active; 'I' for Inactive)
REMARK    1  A    between atoms: C_2  and  C_12
REMARK    2  A    between atoms: C_9  and  O_22
REMARK    3  A    between atoms: C_15  and  C_19
REMARK    4  A    between atoms: C_19  and  O_20
REMARK                            x       y       z     vdW  Elec       q    Type
REMARK                         _______ _______ _______ _____ _____    ______ ____
ROOT
ATOM      1  N   UNL     1      35.591 -21.974 -16.954  0.00  0.00    -0.406 NA
ATOM      2  C   UNL     1      34.458 -21.874 -17.688  0.00  0.00    +0.131 C 
ATOM      3  C   UNL     1      34.403 -23.427 -15.443  0.00  0.00    +0.099 C 
ATOM      4  C   UNL     1      35.566 -22.739 -15.846  0.00  0.00    +0.117 C 
ATOM      5  C   UNL     1      33.274 -22.509 -17.373  0.00  0.00    +0.028 C 
ATOM      6  C   UNL     1      33.252 -23.297 -16.231  0.00  0.00    -0.012 C 
ATOM      7  C   UNL     1      34.413 -24.217 -14.280  0.00  0.00    +0.022 C 
ATOM      8  C   UNL     1      36.709 -22.869 -15.062  0.00  0.00    +0.031 C 
ATOM      9  C   UNL     1      35.570 -24.330 -13.516  0.00  0.00    +0.130 C 
ATOM     10  C   UNL     1      36.719 -23.655 -13.908  0.00  0.00    +0.039 C 
ENDROOT
BRANCH   2  12
ATOM     11 CL   UNL     1      31.834 -20.904 -18.980  0.00  0.00    -0.082 Cl
ATOM     12  C   UNL     1      34.565 -21.037 -18.859  0.00  0.00    +0.040 C 
ATOM     13  C   UNL     1      33.439 -20.545 -19.518  0.00  0.00    +0.060 C 
ATOM     14  C   UNL     1      35.841 -20.723 -19.328  0.00  0.00    +0.004 C 
ATOM     15  C   UNL     1      34.863 -19.425 -21.117  0.00  0.00    +0.076 C 
ATOM     16  C   UNL     1      33.587 -19.739 -20.647  0.00  0.00    +0.018 C 
ATOM     17  C   UNL     1      35.990 -19.916 -20.457  0.00  0.00    +0.007 C 
BRANCH  15  19
ATOM     18  O   UNL     1      34.177 -18.441 -23.186  0.00  0.00    -0.245 OA
ATOM     19  C   UNL     1      35.017 -18.584 -22.292  0.00  0.00    +0.338 C 
BRANCH  19  20
ATOM     20  O   UNL     1      36.218 -17.942 -22.319  0.00  0.00    -0.477 OA
ATOM     21  H   UNL     1      36.528 -17.562 -23.118  0.00  0.00    +0.295 HD
ENDBRANCH  19  20
ENDBRANCH  15  19
ENDBRANCH   2  12
BRANCH   9  22
ATOM     22  O   UNL     1      35.575 -25.096 -12.391  0.00  0.00    -0.506 OA
ATOM     23  H   UNL     1      35.029 -25.854 -12.338  0.00  0.00    +0.292 HD
ENDBRANCH   9  22
TORSDOF 4
ENDMDL
MODEL 9
REMARK VINA RESULT:     -10.1      4.264      6.264
REMARK  Name = 56960912
REMARK  4 active torsions:
REMARK  status: ('A' for Active; 'I' for Inactive)
REMARK    1  A    between atoms: C_2  and  C_12
REMARK    2  A    between atoms: C_9  and  O_22
REMARK    3  A    between atoms: C_15  and  C_19
REMARK    4  A    between atoms: C_19  and  O_20
REMARK                            x       y       z     vdW  Elec       q    Type
REMARK                         _______ _______ _______ _____ _____    ______ ____
ROOT
ATOM      1  N   UNL     1      31.592 -22.020 -17.451  0.00  0.00    -0.406 NA
ATOM      2  C   UNL     1      32.931 -21.948 -17.632  0.00  0.00    +0.131 C 
ATOM      3  C   UNL     1      31.997 -23.353 -15.485  0.00  0.00    +0.099 C 
ATOM      4  C   UNL     1      31.129 -22.712 -16.393  0.00  0.00    +0.117 C 
ATOM      5  C   UNL     1      33.857 -22.541 -16.798  0.00  0.00    +0.028 C 
ATOM      6  C   UNL     1      33.377 -23.253 -15.709  0.00  0.00    -0.012 C 
ATOM      7  C   UNL     1      31.479 -24.067 -14.391  0.00  0.00    +0.022 C 
ATOM      8  C   UNL     1      29.759 -22.812 -16.169  0.00  0.00    +0.031 C 
ATOM      9  C   UNL     1      30.104 -24.149 -14.192  0.00  0.00    +0.130 C 
ATOM     10  C   UNL     1      29.243 -23.521 -15.082  0.00  0.00    +0.039 C 
ENDROOT
BRANCH   2  12
ATOM     11 CL   UNL     1      35.960 -21.586 -18.071  0.00  0.00    -0.082 Cl
ATOM     12  C   UNL     1      33.348 -21.189 -18.786  0.00  0.00    +0.040 C 
ATOM     13  C   UNL     1      34.694 -20.967 -19.075  0.00  0.00    +0.060 C 
ATOM     14  C   UNL     1      32.360 -20.670 -19.625  0.00  0.00    +0.004 C 
ATOM     15  C   UNL     1      34.066 -19.709 -21.040  0.00  0.00    +0.076 C 
ATOM     16  C   UNL     1      35.054 -20.227 -20.202  0.00  0.00    +0.018 C 
ATOM     17  C   UNL     1      32.719 -19.931 -20.752  0.00  0.00    +0.007 C 
BRANCH  15  19
ATOM     18  O   UNL     1      33.746 -18.792 -23.226  0.00  0.00    -0.245 OA
ATOM     19  C   UNL     1      34.441 -18.939 -22.215  0.00  0.00    +0.338 C 
BRANCH  19  20
ATOM     20  O   UNL     1      35.674 -18.373 -22.096  0.00  0.00    -0.477 OA
ATOM     21  H   UNL     1      36.322 -18.518 -22.758  0.00  0.00    +0.295 HD
ENDBRANCH  19  20
ENDBRANCH  15  19
ENDBRANCH   2  12
BRANCH   9  22
ATOM     22  O   UNL     1      29.607 -24.842 -13.131  0.00  0.00    -0.506 OA
ATOM     23  H   UNL     1      28.714 -24.728 -12.874  0.00  0.00    +0.292 HD
ENDBRANCH   9  22
TORSDOF 4
ENDMDL
