MODEL 1
REMARK VINA RESULT:     -10.0      0.000      0.000
REMARK  Name = 57331386
REMARK  4 active torsions:
REMARK  status: ('A' for Active; 'I' for Inactive)
REMARK    1  A    between atoms: N_3  and  C_26
REMARK    2  A    between atoms: C_14  and  N_25
REMARK    3  A    between atoms: C_16  and  C_22
REMARK    4  A    between atoms: C_26  and  C_27
REMARK                            x       y       z     vdW  Elec       q    Type
REMARK                         _______ _______ _______ _____ _____    ______ ____
ROOT
ATOM      1  S   UNL     1      32.361 -13.430 -23.104  0.00  0.00    -0.037 S 
ATOM      2  O   UNL     1      33.453 -14.596 -19.168  0.00  0.00    -0.209 OA
ATOM      3  N   UNL     1      31.181  -8.664 -22.796  0.00  0.00    +0.389 N 
ATOM      4  N   UNL     1      32.354 -11.109 -21.929  0.00  0.00    -0.282 N 
ATOM      5  N   UNL     1      33.128 -12.832 -20.575  0.00  0.00    -0.310 NA
ATOM      6  C   UNL     1      30.495  -9.516 -21.814  0.00  0.00    -0.055 C 
ATOM      7  C   UNL     1      31.967  -9.488 -23.727  0.00  0.00    -0.055 C 
ATOM      8  C   UNL     1      33.005 -10.323 -22.974  0.00  0.00    +0.071 C 
ATOM      9  C   UNL     1      31.500 -10.352 -21.020  0.00  0.00    +0.071 C 
ATOM     10  C   UNL     1      32.664 -12.407 -21.711  0.00  0.00    +0.227 C 
ATOM     11  C   UNL     1      33.399 -14.809 -22.721  0.00  0.00    +0.067 C 
ATOM     12  C   UNL     1      33.829 -15.050 -21.416  0.00  0.00    +0.102 C 
ATOM     13  C   UNL     1      33.440 -14.144 -20.311  0.00  0.00    +0.207 C 
ATOM     14  C   UNL     1      33.769 -15.696 -23.741  0.00  0.00    +0.150 C 
ATOM     15  C   UNL     1      34.618 -16.174 -21.132  0.00  0.00    +0.017 C 
ATOM     16  C   UNL     1      34.986 -17.047 -22.154  0.00  0.00    +0.074 C 
ATOM     17  C   UNL     1      34.562 -16.809 -23.458  0.00  0.00    +0.028 C 
ATOM     18  H   UNL     1      31.817  -8.043 -22.297  0.00  0.00    -0.080 HD
ENDROOT
BRANCH  16  22
ATOM     19  F   UNL     1      35.191 -19.415 -22.098  0.00  0.00    -0.166 F 
ATOM     20  F   UNL     1      36.986 -18.287 -22.581  0.00  0.00    -0.166 F 
ATOM     21  F   UNL     1      36.235 -18.304 -20.547  0.00  0.00    -0.166 F 
ATOM     22  C   UNL     1      35.834 -18.236 -21.851  0.00  0.00    +0.419 C 
ENDBRANCH  16  22
BRANCH  14  25
ATOM     23  O   UNL     1      33.792 -14.513 -25.720  0.00  0.00    -0.126 OA
ATOM     24  O   UNL     1      32.592 -16.348 -25.613  0.00  0.00    -0.126 OA
ATOM     25  N   UNL     1      33.364 -15.510 -25.095  0.00  0.00    +0.058 N 
ENDBRANCH  14  25
BRANCH   3  26
ATOM     26  C   UNL     1      30.217  -7.843 -23.526  0.00  0.00    -0.077 C 
BRANCH  26  27
ATOM     27  C   UNL     1      30.708  -6.403 -23.659  0.00  0.00    -0.021 C 
ATOM     28  C   UNL     1      31.794  -6.102 -22.617  0.00  0.00    -0.002 C 
ATOM     29  C   UNL     1      31.224  -6.134 -25.079  0.00  0.00    -0.002 C 
ATOM     30  C   UNL     1      31.771  -4.715 -25.221  0.00  0.00    -0.000 C 
ATOM     31  C   UNL     1      32.339  -4.683 -22.764  0.00  0.00    -0.000 C 
ATOM     32  C   UNL     1      32.842  -4.417 -24.178  0.00  0.00    -0.000 C 
ENDBRANCH  26  27
ENDBRANCH   3  26
TORSDOF 4
ENDMDL
MODEL 2
REMARK VINA RESULT:      -9.9      6.048     10.251
REMARK  Name = 57331386
REMARK  4 active torsions:
REMARK  status: ('A' for Active; 'I' for Inactive)
REMARK    1  A    between atoms: N_3  and  C_26
REMARK    2  A    between atoms: C_14  and  N_25
REMARK    3  A    between atoms: C_16  and  C_22
REMARK    4  A    between atoms: C_26  and  C_27
REMARK                            x       y       z     vdW  Elec       q    Type
REMARK                         _______ _______ _______ _____ _____    ______ ____
ROOT
ATOM      1  S   UNL     1      33.259  -8.777 -23.260  0.00  0.00    -0.037 S 
ATOM      2  O   UNL     1      31.088  -7.639 -19.791  0.00  0.00    -0.209 OA
ATOM      3  N   UNL     1      33.233 -13.696 -23.287  0.00  0.00    +0.389 N 
ATOM      4  N   UNL     1      32.360 -11.100 -22.510  0.00  0.00    -0.282 N 
ATOM      5  N   UNL     1      31.525  -9.332 -21.253  0.00  0.00    -0.310 NA
ATOM      6  C   UNL     1      33.679 -13.106 -22.017  0.00  0.00    -0.055 C 
ATOM      7  C   UNL     1      33.025 -12.644 -24.294  0.00  0.00    -0.055 C 
ATOM      8  C   UNL     1      31.983 -11.631 -23.817  0.00  0.00    +0.071 C 
ATOM      9  C   UNL     1      32.652 -12.103 -21.490  0.00  0.00    +0.071 C 
ATOM     10  C   UNL     1      32.269  -9.783 -22.218  0.00  0.00    +0.227 C 
ATOM     11  C   UNL     1      32.463  -7.212 -23.046  0.00  0.00    +0.067 C 
ATOM     12  C   UNL     1      31.651  -6.959 -21.940  0.00  0.00    +0.102 C 
ATOM     13  C   UNL     1      31.419  -8.004 -20.917  0.00  0.00    +0.207 C 
ATOM     14  C   UNL     1      32.678  -6.197 -23.987  0.00  0.00    +0.150 C 
ATOM     15  C   UNL     1      31.064  -5.697 -21.773  0.00  0.00    +0.017 C 
ATOM     16  C   UNL     1      31.280  -4.695 -22.717  0.00  0.00    +0.074 C 
ATOM     17  C   UNL     1      32.086  -4.944 -23.824  0.00  0.00    +0.028 C 
ATOM     18  H   UNL     1      32.346 -14.173 -23.129  0.00  0.00    -0.080 HD
ENDROOT
BRANCH  16  22
ATOM     19  F   UNL     1      30.058  -2.901 -23.688  0.00  0.00    -0.166 F 
ATOM     20  F   UNL     1      29.663  -3.335 -21.595  0.00  0.00    -0.166 F 
ATOM     21  F   UNL     1      31.524  -2.379 -22.168  0.00  0.00    -0.166 F 
ATOM     22  C   UNL     1      30.646  -3.356 -22.542  0.00  0.00    +0.419 C 
ENDBRANCH  16  22
BRANCH  14  25
ATOM     23  O   UNL     1      32.977  -6.275 -26.272  0.00  0.00    -0.126 OA
ATOM     24  O   UNL     1      34.707  -6.662 -24.978  0.00  0.00    -0.126 OA
ATOM     25  N   UNL     1      33.497  -6.387 -25.139  0.00  0.00    +0.058 N 
ENDBRANCH  14  25
BRANCH   3  26
ATOM     26  C   UNL     1      34.203 -14.680 -23.765  0.00  0.00    -0.077 C 
BRANCH  26  27
ATOM     27  C   UNL     1      33.880 -16.075 -23.235  0.00  0.00    -0.021 C 
ATOM     28  C   UNL     1      33.803 -17.088 -24.387  0.00  0.00    -0.002 C 
ATOM     29  C   UNL     1      34.918 -16.513 -22.193  0.00  0.00    -0.002 C 
ATOM     30  C   UNL     1      34.647 -17.928 -21.687  0.00  0.00    -0.000 C 
ATOM     31  C   UNL     1      33.534 -18.502 -23.877  0.00  0.00    -0.000 C 
ATOM     32  C   UNL     1      34.561 -18.930 -22.834  0.00  0.00    -0.000 C 
ENDBRANCH  26  27
ENDBRANCH   3  26
TORSDOF 4
ENDMDL
MODEL 3
REMARK VINA RESULT:      -9.6      0.588      1.187
REMARK  Name = 57331386
REMARK  4 active torsions:
REMARK  status: ('A' for Active; 'I' for Inactive)
REMARK    1  A    between atoms: N_3  and  C_26
REMARK    2  A    between atoms: C_14  and  N_25
REMARK    3  A    between atoms: C_16  and  C_22
REMARK    4  A    between atoms: C_26  and  C_27
REMARK                            x       y       z     vdW  Elec       q    Type
REMARK                         _______ _______ _______ _____ _____    ______ ____
ROOT
ATOM      1  S   UNL     1      32.421 -13.401 -23.064  0.00  0.00    -0.037 S 
ATOM      2  O   UNL     1      33.379 -14.781 -19.162  0.00  0.00    -0.209 OA
ATOM      3  N   UNL     1      31.277  -8.645 -22.546  0.00  0.00    +0.389 N 
ATOM      4  N   UNL     1      32.400 -11.144 -21.771  0.00  0.00    -0.282 N 
ATOM      5  N   UNL     1      33.115 -12.943 -20.485  0.00  0.00    -0.310 NA
ATOM      6  C   UNL     1      30.553  -9.539 -21.631  0.00  0.00    -0.055 C 
ATOM      7  C   UNL     1      32.084  -9.429 -23.493  0.00  0.00    -0.055 C 
ATOM      8  C   UNL     1      33.090 -10.313 -22.753  0.00  0.00    +0.071 C 
ATOM      9  C   UNL     1      31.524 -10.426 -20.850  0.00  0.00    +0.071 C 
ATOM     10  C   UNL     1      32.690 -12.455 -21.611  0.00  0.00    +0.227 C 
ATOM     11  C   UNL     1      33.434 -14.810 -22.721  0.00  0.00    +0.067 C 
ATOM     12  C   UNL     1      33.821 -15.122 -21.417  0.00  0.00    +0.102 C 
ATOM     13  C   UNL     1      33.405 -14.270 -20.279  0.00  0.00    +0.207 C 
ATOM     14  C   UNL     1      33.828 -15.646 -23.773  0.00  0.00    +0.150 C 
ATOM     15  C   UNL     1      34.590 -16.268 -21.167  0.00  0.00    +0.017 C 
ATOM     16  C   UNL     1      34.981 -17.091 -22.221  0.00  0.00    +0.074 C 
ATOM     17  C   UNL     1      34.601 -16.781 -23.524  0.00  0.00    +0.028 C 
ATOM     18  H   UNL     1      31.903  -8.057 -21.996  0.00  0.00    -0.080 HD
ENDROOT
BRANCH  16  22
ATOM     19  F   UNL     1      35.243 -19.443 -22.449  0.00  0.00    -0.166 F 
ATOM     20  F   UNL     1      37.056 -18.246 -22.505  0.00  0.00    -0.166 F 
ATOM     21  F   UNL     1      36.015 -18.543 -20.626  0.00  0.00    -0.166 F 
ATOM     22  C   UNL     1      35.808 -18.303 -21.955  0.00  0.00    +0.419 C 
ENDBRANCH  16  22
BRANCH  14  25
ATOM     23  O   UNL     1      32.725 -16.204 -25.720  0.00  0.00    -0.126 OA
ATOM     24  O   UNL     1      33.905 -14.352 -25.680  0.00  0.00    -0.126 OA
ATOM     25  N   UNL     1      33.467 -15.387 -25.128  0.00  0.00    +0.058 N 
ENDBRANCH  14  25
BRANCH   3  26
ATOM     26  C   UNL     1      30.344  -7.777 -23.261  0.00  0.00    -0.077 C 
BRANCH  26  27
ATOM     27  C   UNL     1      30.915  -6.370 -23.426  0.00  0.00    -0.021 C 
ATOM     28  C   UNL     1      30.996  -5.988 -24.911  0.00  0.00    -0.002 C 
ATOM     29  C   UNL     1      30.076  -5.349 -22.645  0.00  0.00    -0.002 C 
ATOM     30  C   UNL     1      30.596  -3.926 -22.838  0.00  0.00    -0.000 C 
ATOM     31  C   UNL     1      31.514  -4.564 -25.099  0.00  0.00    -0.000 C 
ATOM     32  C   UNL     1      30.684  -3.554 -24.314  0.00  0.00    -0.000 C 
ENDBRANCH  26  27
ENDBRANCH   3  26
TORSDOF 4
ENDMDL
MODEL 4
REMARK VINA RESULT:      -9.5      5.427      9.959
REMARK  Name = 57331386
REMARK  4 active torsions:
REMARK  status: ('A' for Active; 'I' for Inactive)
REMARK    1  A    between atoms: N_3  and  C_26
REMARK    2  A    between atoms: C_14  and  N_25
REMARK    3  A    between atoms: C_16  and  C_22
REMARK    4  A    between atoms: C_26  and  C_27
REMARK                            x       y       z     vdW  Elec       q    Type
REMARK                         _______ _______ _______ _____ _____    ______ ____
ROOT
ATOM      1  S   UNL     1      33.555 -10.334 -22.529  0.00  0.00    -0.037 S 
ATOM      2  O   UNL     1      30.268  -9.487 -19.976  0.00  0.00    -0.209 OA
ATOM      3  N   UNL     1      33.812 -15.240 -22.778  0.00  0.00    +0.389 N 
ATOM      4  N   UNL     1      32.584 -12.730 -22.237  0.00  0.00    -0.282 N 
ATOM      5  N   UNL     1      31.272 -11.072 -21.270  0.00  0.00    -0.310 NA
ATOM      6  C   UNL     1      33.763 -14.711 -21.407  0.00  0.00    -0.055 C 
ATOM      7  C   UNL     1      33.904 -14.139 -23.748  0.00  0.00    -0.055 C 
ATOM      8  C   UNL     1      32.707 -13.195 -23.616  0.00  0.00    +0.071 C 
ATOM      9  C   UNL     1      32.564 -13.780 -21.223  0.00  0.00    +0.071 C 
ATOM     10  C   UNL     1      32.325 -11.436 -21.938  0.00  0.00    +0.227 C 
ATOM     11  C   UNL     1      32.649  -8.816 -22.535  0.00  0.00    +0.067 C 
ATOM     12  C   UNL     1      31.495  -8.659 -21.768  0.00  0.00    +0.102 C 
ATOM     13  C   UNL     1      30.984  -9.771 -20.933  0.00  0.00    +0.207 C 
ATOM     14  C   UNL     1      33.116  -7.739 -23.300  0.00  0.00    +0.150 C 
ATOM     15  C   UNL     1      30.817  -7.432 -21.758  0.00  0.00    +0.017 C 
ATOM     16  C   UNL     1      31.287  -6.368 -22.526  0.00  0.00    +0.074 C 
ATOM     17  C   UNL     1      32.436  -6.520 -23.297  0.00  0.00    +0.028 C 
ATOM     18  H   UNL     1      32.952 -15.758 -22.956  0.00  0.00    -0.080 HD
ENDROOT
BRANCH  16  22
ATOM     19  F   UNL     1      29.477  -5.072 -21.688  0.00  0.00    -0.166 F 
ATOM     20  F   UNL     1      31.325  -4.011 -22.121  0.00  0.00    -0.166 F 
ATOM     21  F   UNL     1      30.073  -4.708 -23.748  0.00  0.00    -0.166 F 
ATOM     22  C   UNL     1      30.558  -5.066 -22.523  0.00  0.00    +0.419 C 
ENDBRANCH  16  22
BRANCH  14  25
ATOM     23  O   UNL     1      34.366  -7.124 -25.137  0.00  0.00    -0.126 OA
ATOM     24  O   UNL     1      35.201  -8.613 -23.755  0.00  0.00    -0.126 OA
ATOM     25  N   UNL     1      34.289  -7.829 -24.105  0.00  0.00    +0.058 N 
ENDBRANCH  14  25
BRANCH   3  26
ATOM     26  C   UNL     1      34.940 -16.157 -22.934  0.00  0.00    -0.077 C 
BRANCH  26  27
ATOM     27  C   UNL     1      34.958 -17.204 -21.822  0.00  0.00    -0.021 C 
ATOM     28  C   UNL     1      33.891 -18.279 -22.072  0.00  0.00    -0.002 C 
ATOM     29  C   UNL     1      36.351 -17.836 -21.695  0.00  0.00    -0.002 C 
ATOM     30  C   UNL     1      36.381 -18.926 -20.626  0.00  0.00    -0.000 C 
ATOM     31  C   UNL     1      33.925 -19.367 -21.001  0.00  0.00    -0.000 C 
ATOM     32  C   UNL     1      35.313 -19.987 -20.871  0.00  0.00    -0.000 C 
ENDBRANCH  26  27
ENDBRANCH   3  26
TORSDOF 4
ENDMDL
MODEL 5
REMARK VINA RESULT:      -9.3      1.951      3.483
REMARK  Name = 57331386
REMARK  4 active torsions:
REMARK  status: ('A' for Active; 'I' for Inactive)
REMARK    1  A    between atoms: N_3  and  C_26
REMARK    2  A    between atoms: C_14  and  N_25
REMARK    3  A    between atoms: C_16  and  C_22
REMARK    4  A    between atoms: C_26  and  C_27
REMARK                            x       y       z     vdW  Elec       q    Type
REMARK                         _______ _______ _______ _____ _____    ______ ____
ROOT
ATOM      1  S   UNL     1      33.710 -12.802 -22.311  0.00  0.00    -0.037 S 
ATOM      2  O   UNL     1      33.085 -13.747 -26.405  0.00  0.00    -0.209 OA
ATOM      3  N   UNL     1      31.897  -8.269 -21.705  0.00  0.00    +0.389 N 
ATOM      4  N   UNL     1      32.259 -10.764 -23.027  0.00  0.00    -0.282 N 
ATOM      5  N   UNL     1      32.481 -12.375 -24.688  0.00  0.00    -0.310 NA
ATOM      6  C   UNL     1      32.842  -8.392 -22.825  0.00  0.00    -0.055 C 
ATOM      7  C   UNL     1      31.829  -9.531 -20.953  0.00  0.00    -0.055 C 
ATOM      8  C   UNL     1      31.388 -10.683 -21.858  0.00  0.00    +0.071 C 
ATOM      9  C   UNL     1      32.424  -9.518 -23.771  0.00  0.00    +0.071 C 
ATOM     10  C   UNL     1      32.731 -11.944 -23.488  0.00  0.00    +0.227 C 
ATOM     11  C   UNL     1      33.620 -14.445 -22.956  0.00  0.00    +0.067 C 
ATOM     12  C   UNL     1      33.274 -14.683 -24.286  0.00  0.00    +0.102 C 
ATOM     13  C   UNL     1      32.955 -13.559 -25.197  0.00  0.00    +0.207 C 
ATOM     14  C   UNL     1      33.934 -15.528 -22.124  0.00  0.00    +0.150 C 
ATOM     15  C   UNL     1      33.249 -15.993 -24.784  0.00  0.00    +0.017 C 
ATOM     16  C   UNL     1      33.559 -17.065 -23.948  0.00  0.00    +0.074 C 
ATOM     17  C   UNL     1      33.901 -16.833 -22.618  0.00  0.00    +0.028 C 
ATOM     18  H   UNL     1      30.972  -8.067 -22.083  0.00  0.00    -0.080 HD
ENDROOT
BRANCH  16  22
ATOM     19  F   UNL     1      33.778 -19.392 -23.513  0.00  0.00    -0.166 F 
ATOM     20  F   UNL     1      32.317 -18.809 -25.014  0.00  0.00    -0.166 F 
ATOM     21  F   UNL     1      34.435 -18.694 -25.465  0.00  0.00    -0.166 F 
ATOM     22  C   UNL     1      33.522 -18.459 -24.476  0.00  0.00    +0.419 C 
ENDBRANCH  16  22
BRANCH  14  25
ATOM     23  O   UNL     1      34.766 -16.336 -20.131  0.00  0.00    -0.126 OA
ATOM     24  O   UNL     1      34.132 -14.236 -20.225  0.00  0.00    -0.126 OA
ATOM     25  N   UNL     1      34.297 -15.358 -20.756  0.00  0.00    +0.058 N 
ENDBRANCH  14  25
BRANCH   3  26
ATOM     26  C   UNL     1      32.283  -7.167 -20.826  0.00  0.00    -0.077 C 
BRANCH  26  27
ATOM     27  C   UNL     1      31.862  -5.820 -21.410  0.00  0.00    -0.021 C 
ATOM     28  C   UNL     1      32.781  -5.424 -22.575  0.00  0.00    -0.002 C 
ATOM     29  C   UNL     1      30.396  -5.858 -21.861  0.00  0.00    -0.002 C 
ATOM     30  C   UNL     1      29.966  -4.539 -22.499  0.00  0.00    -0.000 C 
ATOM     31  C   UNL     1      32.347  -4.105 -23.211  0.00  0.00    -0.000 C 
ATOM     32  C   UNL     1      30.887  -4.144 -23.649  0.00  0.00    -0.000 C 
ENDBRANCH  26  27
ENDBRANCH   3  26
TORSDOF 4
ENDMDL
MODEL 6
REMARK VINA RESULT:      -8.4      5.453      9.937
REMARK  Name = 57331386
REMARK  4 active torsions:
REMARK  status: ('A' for Active; 'I' for Inactive)
REMARK    1  A    between atoms: N_3  and  C_26
REMARK    2  A    between atoms: C_14  and  N_25
REMARK    3  A    between atoms: C_16  and  C_22
REMARK    4  A    between atoms: C_26  and  C_27
REMARK                            x       y       z     vdW  Elec       q    Type
REMARK                         _______ _______ _______ _____ _____    ______ ____
ROOT
ATOM      1  S   UNL     1      31.557 -10.632 -21.887  0.00  0.00    -0.037 S 
ATOM      2  O   UNL     1      32.358  -7.434 -24.566  0.00  0.00    -0.209 OA
ATOM      3  N   UNL     1      33.495 -14.637 -23.985  0.00  0.00    +0.389 N 
ATOM      4  N   UNL     1      33.113 -11.845 -23.582  0.00  0.00    -0.282 N 
ATOM      5  N   UNL     1      32.921  -9.561 -23.969  0.00  0.00    -0.310 NA
ATOM      6  C   UNL     1      32.606 -13.869 -24.868  0.00  0.00    -0.055 C 
ATOM      7  C   UNL     1      33.480 -14.072 -22.627  0.00  0.00    -0.055 C 
ATOM      8  C   UNL     1      33.926 -12.609 -22.640  0.00  0.00    +0.071 C 
ATOM      9  C   UNL     1      33.031 -12.401 -24.929  0.00  0.00    +0.071 C 
ATOM     10  C   UNL     1      32.625 -10.621 -23.279  0.00  0.00    +0.227 C 
ATOM     11  C   UNL     1      31.622  -8.928 -21.420  0.00  0.00    +0.067 C 
ATOM     12  C   UNL     1      32.027  -7.945 -22.323  0.00  0.00    +0.102 C 
ATOM     13  C   UNL     1      32.432  -8.305 -23.702  0.00  0.00    +0.207 C 
ATOM     14  C   UNL     1      31.227  -8.553 -20.129  0.00  0.00    +0.150 C 
ATOM     15  C   UNL     1      32.031  -6.596 -21.940  0.00  0.00    +0.017 C 
ATOM     16  C   UNL     1      31.642  -6.234 -20.653  0.00  0.00    +0.074 C 
ATOM     17  C   UNL     1      31.240  -7.211 -19.746  0.00  0.00    +0.028 C 
ATOM     18  H   UNL     1      34.445 -14.576 -24.350  0.00  0.00    -0.080 HD
ENDROOT
BRANCH  16  22
ATOM     19  F   UNL     1      30.405  -4.311 -19.996  0.00  0.00    -0.166 F 
ATOM     20  F   UNL     1      32.373  -4.561 -19.107  0.00  0.00    -0.166 F 
ATOM     21  F   UNL     1      32.194  -3.967 -21.185  0.00  0.00    -0.166 F 
ATOM     22  C   UNL     1      31.656  -4.799 -20.244  0.00  0.00    +0.419 C 
ENDBRANCH  16  22
BRANCH  14  25
ATOM     23  O   UNL     1      31.667 -10.093 -18.469  0.00  0.00    -0.126 OA
ATOM     24  O   UNL     1      29.575  -9.723 -19.025  0.00  0.00    -0.126 OA
ATOM     25  N   UNL     1      30.801  -9.505 -19.157  0.00  0.00    +0.058 N 
ENDBRANCH  14  25
BRANCH   3  26
ATOM     26  C   UNL     1      33.103 -16.045 -23.960  0.00  0.00    -0.077 C 
BRANCH  26  27
ATOM     27  C   UNL     1      34.218 -16.918 -23.387  0.00  0.00    -0.021 C 
ATOM     28  C   UNL     1      34.522 -16.526 -21.935  0.00  0.00    -0.002 C 
ATOM     29  C   UNL     1      33.848 -18.404 -23.485  0.00  0.00    -0.002 C 
ATOM     30  C   UNL     1      34.924 -19.296 -22.869  0.00  0.00    -0.000 C 
ATOM     31  C   UNL     1      35.598 -17.420 -21.322  0.00  0.00    -0.000 C 
ATOM     32  C   UNL     1      35.231 -18.896 -21.429  0.00  0.00    -0.000 C 
ENDBRANCH  26  27
ENDBRANCH   3  26
TORSDOF 4
ENDMDL
MODEL 7
REMARK VINA RESULT:      -7.8      6.373     10.241
REMARK  Name = 57331386
REMARK  4 active torsions:
REMARK  status: ('A' for Active; 'I' for Inactive)
REMARK    1  A    between atoms: N_3  and  C_26
REMARK    2  A    between atoms: C_14  and  N_25
REMARK    3  A    between atoms: C_16  and  C_22
REMARK    4  A    between atoms: C_26  and  C_27
REMARK                            x       y       z     vdW  Elec       q    Type
REMARK                         _______ _______ _______ _____ _____    ______ ____
ROOT
ATOM      1  S   UNL     1      33.038  -7.755 -23.126  0.00  0.00    -0.037 S 
ATOM      2  O   UNL     1      29.728  -5.372 -21.940  0.00  0.00    -0.209 OA
ATOM      3  N   UNL     1      32.106 -12.269 -21.405  0.00  0.00    +0.389 N 
ATOM      4  N   UNL     1      31.472  -9.602 -22.173  0.00  0.00    -0.282 N 
ATOM      5  N   UNL     1      30.485  -7.498 -22.253  0.00  0.00    -0.310 NA
ATOM      6  C   UNL     1      31.991 -11.206 -20.395  0.00  0.00    -0.055 C 
ATOM      7  C   UNL     1      32.607 -11.716 -22.673  0.00  0.00    -0.055 C 
ATOM      8  C   UNL     1      31.674 -10.623 -23.198  0.00  0.00    +0.071 C 
ATOM      9  C   UNL     1      31.046 -10.102 -20.869  0.00  0.00    +0.071 C 
ATOM     10  C   UNL     1      31.501  -8.281 -22.462  0.00  0.00    +0.227 C 
ATOM     11  C   UNL     1      32.546  -6.257 -23.926  0.00  0.00    +0.067 C 
ATOM     12  C   UNL     1      31.367  -5.601 -23.571  0.00  0.00    +0.102 C 
ATOM     13  C   UNL     1      30.482  -6.151 -22.518  0.00  0.00    +0.207 C 
ATOM     14  C   UNL     1      33.371  -5.702 -24.912  0.00  0.00    +0.150 C 
ATOM     15  C   UNL     1      31.020  -4.393 -24.192  0.00  0.00    +0.017 C 
ATOM     16  C   UNL     1      31.845  -3.850 -25.176  0.00  0.00    +0.074 C 
ATOM     17  C   UNL     1      33.020  -4.504 -25.537  0.00  0.00    +0.028 C 
ATOM     18  H   UNL     1      31.180 -12.663 -21.567  0.00  0.00    -0.080 HD
ENDROOT
BRANCH  16  22
ATOM     19  F   UNL     1      32.551  -1.786 -26.121  0.00  0.00    -0.166 F 
ATOM     20  F   UNL     1      30.827  -2.743 -27.036  0.00  0.00    -0.166 F 
ATOM     21  F   UNL     1      30.632  -1.790 -25.098  0.00  0.00    -0.166 F 
ATOM     22  C   UNL     1      31.469  -2.571 -25.843  0.00  0.00    +0.419 C 
ENDBRANCH  16  22
BRANCH  14  25
ATOM     23  O   UNL     1      35.199  -5.850 -26.310  0.00  0.00    -0.126 OA
ATOM     24  O   UNL     1      35.006  -7.311 -24.683  0.00  0.00    -0.126 OA
ATOM     25  N   UNL     1      34.589  -6.319 -25.322  0.00  0.00    +0.058 N 
ENDBRANCH  14  25
BRANCH   3  26
ATOM     26  C   UNL     1      32.982 -13.338 -20.929  0.00  0.00    -0.077 C 
BRANCH  26  27
ATOM     27  C   UNL     1      33.703 -14.019 -22.090  0.00  0.00    -0.021 C 
ATOM     28  C   UNL     1      34.256 -15.385 -21.657  0.00  0.00    -0.002 C 
ATOM     29  C   UNL     1      32.768 -14.167 -23.298  0.00  0.00    -0.002 C 
ATOM     30  C   UNL     1      33.451 -14.895 -24.454  0.00  0.00    -0.000 C 
ATOM     31  C   UNL     1      34.937 -16.110 -22.816  0.00  0.00    -0.000 C 
ATOM     32  C   UNL     1      34.008 -16.246 -24.018  0.00  0.00    -0.000 C 
ENDBRANCH  26  27
ENDBRANCH   3  26
TORSDOF 4
ENDMDL
MODEL 8
REMARK VINA RESULT:      -7.7      6.262     10.653
REMARK  Name = 57331386
REMARK  4 active torsions:
REMARK  status: ('A' for Active; 'I' for Inactive)
REMARK    1  A    between atoms: N_3  and  C_26
REMARK    2  A    between atoms: C_14  and  N_25
REMARK    3  A    between atoms: C_16  and  C_22
REMARK    4  A    between atoms: C_26  and  C_27
REMARK                            x       y       z     vdW  Elec       q    Type
REMARK                         _______ _______ _______ _____ _____    ______ ____
ROOT
ATOM      1  S   UNL     1      31.529  -8.594 -21.508  0.00  0.00    -0.037 S 
ATOM      2  O   UNL     1      29.895  -7.132 -25.146  0.00  0.00    -0.209 OA
ATOM      3  N   UNL     1      33.374 -13.028 -22.571  0.00  0.00    +0.389 N 
ATOM      4  N   UNL     1      32.375 -10.427 -23.150  0.00  0.00    -0.282 N 
ATOM      5  N   UNL     1      31.312  -8.651 -24.209  0.00  0.00    -0.310 NA
ATOM      6  C   UNL     1      31.981 -12.840 -22.999  0.00  0.00    -0.055 C 
ATOM      7  C   UNL     1      33.834 -11.862 -21.802  0.00  0.00    -0.055 C 
ATOM      8  C   UNL     1      33.732 -10.583 -22.636  0.00  0.00    +0.071 C 
ATOM      9  C   UNL     1      31.838 -11.584 -23.859  0.00  0.00    +0.071 C 
ATOM     10  C   UNL     1      31.733  -9.236 -23.128  0.00  0.00    +0.227 C 
ATOM     11  C   UNL     1      31.269  -6.883 -21.872  0.00  0.00    +0.067 C 
ATOM     12  C   UNL     1      30.859  -6.467 -23.139  0.00  0.00    +0.102 C 
ATOM     13  C   UNL     1      30.644  -7.450 -24.226  0.00  0.00    +0.207 C 
ATOM     14  C   UNL     1      31.445  -5.930 -20.860  0.00  0.00    +0.150 C 
ATOM     15  C   UNL     1      30.620  -5.109 -23.390  0.00  0.00    +0.017 C 
ATOM     16  C   UNL     1      30.803  -4.168 -22.379  0.00  0.00    +0.074 C 
ATOM     17  C   UNL     1      31.216  -4.577 -21.114  0.00  0.00    +0.028 C 
ATOM     18  H   UNL     1      33.959 -13.119 -23.401  0.00  0.00    -0.080 HD
ENDROOT
BRANCH  16  22
ATOM     19  F   UNL     1      30.134  -2.493 -23.929  0.00  0.00    -0.166 F 
ATOM     20  F   UNL     1      29.608  -2.166 -21.845  0.00  0.00    -0.166 F 
ATOM     21  F   UNL     1      31.666  -1.939 -22.488  0.00  0.00    -0.166 F 
ATOM     22  C   UNL     1      30.559  -2.722 -22.652  0.00  0.00    +0.419 C 
ENDBRANCH  16  22
BRANCH  14  25
ATOM     23  O   UNL     1      32.992  -5.920 -19.150  0.00  0.00    -0.126 OA
ATOM     24  O   UNL     1      31.082  -6.954 -18.827  0.00  0.00    -0.126 OA
ATOM     25  N   UNL     1      31.861  -6.286 -19.544  0.00  0.00    +0.058 N 
ENDBRANCH  14  25
BRANCH   3  26
ATOM     26  C   UNL     1      33.509 -14.250 -21.780  0.00  0.00    -0.077 C 
BRANCH  26  27
ATOM     27  C   UNL     1      34.215 -15.347 -22.575  0.00  0.00    -0.021 C 
ATOM     28  C   UNL     1      34.602 -16.517 -21.658  0.00  0.00    -0.002 C 
ATOM     29  C   UNL     1      33.334 -15.831 -23.734  0.00  0.00    -0.002 C 
ATOM     30  C   UNL     1      33.997 -16.966 -24.511  0.00  0.00    -0.000 C 
ATOM     31  C   UNL     1      35.263 -17.650 -22.439  0.00  0.00    -0.000 C 
ATOM     32  C   UNL     1      34.388 -18.122 -23.596  0.00  0.00    -0.000 C 
ENDBRANCH  26  27
ENDBRANCH   3  26
TORSDOF 4
ENDMDL
MODEL 9
REMARK VINA RESULT:      -7.6      8.559     11.763
REMARK  Name = 57331386
REMARK  4 active torsions:
REMARK  status: ('A' for Active; 'I' for Inactive)
REMARK    1  A    between atoms: N_3  and  C_26
REMARK    2  A    between atoms: C_14  and  N_25
REMARK    3  A    between atoms: C_16  and  C_22
REMARK    4  A    between atoms: C_26  and  C_27
REMARK                            x       y       z     vdW  Elec       q    Type
REMARK                         _______ _______ _______ _____ _____    ______ ____
ROOT
ATOM      1  S   UNL     1      34.411 -21.662 -16.400  0.00  0.00    -0.037 S 
ATOM      2  O   UNL     1      38.536 -22.251 -15.575  0.00  0.00    -0.209 OA
ATOM      3  N   UNL     1      34.202 -20.083 -21.054  0.00  0.00    +0.389 N 
ATOM      4  N   UNL     1      35.401 -21.303 -18.779  0.00  0.00    -0.282 N 
ATOM      5  N   UNL     1      36.973 -22.001 -17.215  0.00  0.00    -0.310 NA
ATOM      6  C   UNL     1      35.136 -19.329 -20.206  0.00  0.00    -0.055 C 
ATOM      7  C   UNL     1      33.454 -21.059 -20.247  0.00  0.00    -0.055 C 
ATOM      8  C   UNL     1      34.405 -22.036 -19.553  0.00  0.00    +0.071 C 
ATOM      9  C   UNL     1      36.123 -20.267 -19.512  0.00  0.00    +0.071 C 
ATOM     10  C   UNL     1      35.755 -21.677 -17.528  0.00  0.00    +0.227 C 
ATOM     11  C   UNL     1      35.037 -22.736 -15.142  0.00  0.00    +0.067 C 
ATOM     12  C   UNL     1      36.403 -22.988 -15.020  0.00  0.00    +0.102 C 
ATOM     13  C   UNL     1      37.373 -22.371 -15.954  0.00  0.00    +0.207 C 
ATOM     14  C   UNL     1      34.147 -23.321 -14.231  0.00  0.00    +0.150 C 
ATOM     15  C   UNL     1      36.878 -23.811 -13.989  0.00  0.00    +0.017 C 
ATOM     16  C   UNL     1      35.984 -24.392 -13.091  0.00  0.00    +0.074 C 
ATOM     17  C   UNL     1      34.619 -24.147 -13.211  0.00  0.00    +0.028 C 
ATOM     18  H   UNL     1      34.739 -20.589 -21.758  0.00  0.00    -0.080 HD
ENDROOT
BRANCH  16  22
ATOM     19  F   UNL     1      35.743 -25.183 -10.861  0.00  0.00    -0.166 F 
ATOM     20  F   UNL     1      36.493 -26.601 -12.329  0.00  0.00    -0.166 F 
ATOM     21  F   UNL     1      37.773 -25.000 -11.622  0.00  0.00    -0.166 F 
ATOM     22  C   UNL     1      36.490 -25.276 -12.001  0.00  0.00    +0.419 C 
ENDBRANCH  16  22
BRANCH  14  25
ATOM     23  O   UNL     1      32.175 -22.515 -13.349  0.00  0.00    -0.126 OA
ATOM     24  O   UNL     1      32.114 -23.516 -15.302  0.00  0.00    -0.126 OA
ATOM     25  N   UNL     1      32.739 -23.105 -14.298  0.00  0.00    +0.058 N 
ENDBRANCH  14  25
BRANCH   3  26
ATOM     26  C   UNL     1      33.285 -19.176 -21.742  0.00  0.00    -0.077 C 
BRANCH  26  27
ATOM     27  C   UNL     1      34.048 -18.146 -22.574  0.00  0.00    -0.021 C 
ATOM     28  C   UNL     1      33.384 -17.959 -23.945  0.00  0.00    -0.002 C 
ATOM     29  C   UNL     1      34.145 -16.809 -21.827  0.00  0.00    -0.002 C 
ATOM     30  C   UNL     1      34.857 -15.747 -22.662  0.00  0.00    -0.000 C 
ATOM     31  C   UNL     1      34.098 -16.895 -24.776  0.00  0.00    -0.000 C 
ATOM     32  C   UNL     1      34.201 -15.570 -24.027  0.00  0.00    -0.000 C 
ENDBRANCH  26  27
ENDBRANCH   3  26
TORSDOF 4
ENDMDL
