MODEL 1
REMARK VINA RESULT:     -12.6      0.000      0.000
REMARK  Name = 24963046
REMARK  6 active torsions:
REMARK  status: ('A' for Active; 'I' for Inactive)
REMARK    1  A    between atoms: N_1  and  C_27
REMARK    2  A    between atoms: C_4  and  C_16
REMARK    3  A    between atoms: C_13  and  C_22
REMARK    4  A    between atoms: N_21  and  C_24
REMARK    5  A    between atoms: C_27  and  C_28
REMARK    6  A    between atoms: C_28  and  N_30
REMARK                            x       y       z     vdW  Elec       q    Type
REMARK                         _______ _______ _______ _____ _____    ______ ____
ROOT
ATOM      1  N   UNL     1      33.464 -23.639 -16.292  0.00  0.00    -0.270 N 
ATOM      2  N   UNL     1      34.577 -22.186 -17.724  0.00  0.00    -0.338 NA
ATOM      3  N   UNL     1      32.170 -22.324 -17.697  0.00  0.00    -0.170 NA
ATOM      4  C   UNL     1      34.427 -19.276 -20.705  0.00  0.00    -0.000 C 
ATOM      5  C   UNL     1      33.246 -19.818 -20.206  0.00  0.00    +0.004 C 
ATOM      6  C   UNL     1      33.293 -20.800 -19.201  0.00  0.00    +0.050 C 
ATOM      7  C   UNL     1      33.399 -22.673 -17.282  0.00  0.00    +0.145 C 
ATOM      8  C   UNL     1      35.648 -19.711 -20.201  0.00  0.00    +0.003 C 
ATOM      9  C   UNL     1      34.520 -21.248 -18.685  0.00  0.00    +0.146 C 
ATOM     10  C   UNL     1      35.685 -20.687 -19.202  0.00  0.00    +0.033 C 
ATOM     11  C   UNL     1      32.150 -21.382 -18.660  0.00  0.00    +0.114 C 
ATOM     12  H   UNL     1      32.619 -24.012 -15.950  0.00  0.00    +0.159 HD
ENDROOT
BRANCH   4  16
ATOM     13  C   UNL     1      34.209 -15.937 -22.354  0.00  0.00    +0.053 C 
ATOM     14  C   UNL     1      34.252 -16.928 -21.373  0.00  0.00    +0.004 C 
ATOM     15  C   UNL     1      34.298 -16.285 -23.701  0.00  0.00    +0.004 C 
ATOM     16  C   UNL     1      34.384 -18.267 -21.739  0.00  0.00    -0.004 C 
ATOM     17  C   UNL     1      34.473 -18.615 -23.088  0.00  0.00    -0.022 C 
ATOM     18  C   UNL     1      34.430 -17.624 -24.069  0.00  0.00    -0.004 C 
ATOM     19  C   UNL     1      34.616 -20.040 -23.519  0.00  0.00    +0.031 C 
BRANCH  13  22
ATOM     20  O   UNL     1      34.193 -14.192 -20.784  0.00  0.00    -0.270 OA
ATOM     21  N   UNL     1      33.779 -13.627 -22.992  0.00  0.00    -0.302 N 
ATOM     22  C   UNL     1      34.071 -14.540 -21.972  0.00  0.00    +0.246 C 
ATOM     23  H   UNL     1      33.694 -13.966 -23.914  0.00  0.00    +0.150 HD
BRANCH  21  24
ATOM     24  C   UNL     1      33.594 -12.220 -22.764  0.00  0.00    +0.072 C 
ATOM     25  C   UNL     1      32.804 -11.375 -23.718  0.00  0.00    +0.021 C 
ATOM     26  C   UNL     1      32.263 -11.669 -22.350  0.00  0.00    +0.021 C 
ENDBRANCH  21  24
ENDBRANCH  13  22
ENDBRANCH   4  16
BRANCH   1  27
ATOM     27  C   UNL     1      34.700 -24.130 -15.731  0.00  0.00    +0.075 C 
BRANCH  27  28
ATOM     28  C   UNL     1      34.591 -24.174 -14.212  0.00  0.00    -0.055 C 
BRANCH  28  30
ATOM     29  O   UNL     1      38.287 -25.839 -13.120  0.00  0.00    -0.358 OA
ATOM     30  N   UNL     1      35.597 -25.078 -13.656  0.00  0.00    +0.391 N 
ATOM     31  C   UNL     1      36.396 -24.399 -12.627  0.00  0.00    -0.045 C 
ATOM     32  C   UNL     1      36.473 -25.598 -14.714  0.00  0.00    -0.045 C 
ATOM     33  C   UNL     1      37.446 -25.357 -12.071  0.00  0.00    +0.119 C 
ATOM     34  C   UNL     1      37.520 -26.529 -14.109  0.00  0.00    +0.119 C 
ATOM     35  H   UNL     1      35.107 -25.861 -13.223  0.00  0.00    -0.079 HD
ENDBRANCH  28  30
ENDBRANCH  27  28
ENDBRANCH   1  27
TORSDOF 6
ENDMDL
MODEL 2
REMARK VINA RESULT:     -12.0      1.193      1.364
REMARK  Name = 24963046
REMARK  6 active torsions:
REMARK  status: ('A' for Active; 'I' for Inactive)
REMARK    1  A    between atoms: N_1  and  C_27
REMARK    2  A    between atoms: C_4  and  C_16
REMARK    3  A    between atoms: C_13  and  C_22
REMARK    4  A    between atoms: N_21  and  C_24
REMARK    5  A    between atoms: C_27  and  C_28
REMARK    6  A    between atoms: C_28  and  N_30
REMARK                            x       y       z     vdW  Elec       q    Type
REMARK                         _______ _______ _______ _____ _____    ______ ____
ROOT
ATOM      1  N   UNL     1      33.905 -23.311 -16.325  0.00  0.00    -0.270 N 
ATOM      2  N   UNL     1      34.878 -21.872 -17.869  0.00  0.00    -0.338 NA
ATOM      3  N   UNL     1      32.496 -22.237 -17.822  0.00  0.00    -0.170 NA
ATOM      4  C   UNL     1      34.461 -19.228 -21.064  0.00  0.00    -0.000 C 
ATOM      5  C   UNL     1      33.335 -19.840 -20.520  0.00  0.00    +0.004 C 
ATOM      6  C   UNL     1      33.472 -20.733 -19.443  0.00  0.00    +0.050 C 
ATOM      7  C   UNL     1      33.751 -22.435 -17.387  0.00  0.00    +0.145 C 
ATOM      8  C   UNL     1      35.716 -19.504 -20.533  0.00  0.00    +0.003 C 
ATOM      9  C   UNL     1      34.735 -21.021 -18.899  0.00  0.00    +0.146 C 
ATOM     10  C   UNL     1      35.843 -20.393 -19.462  0.00  0.00    +0.033 C 
ATOM     11  C   UNL     1      32.389 -21.378 -18.855  0.00  0.00    +0.114 C 
ATOM     12  H   UNL     1      33.098 -23.736 -15.953  0.00  0.00    +0.159 HD
ENDROOT
BRANCH   4  16
ATOM     13  C   UNL     1      34.071 -16.041 -22.964  0.00  0.00    +0.053 C 
ATOM     14  C   UNL     1      34.203 -16.945 -21.911  0.00  0.00    +0.004 C 
ATOM     15  C   UNL     1      34.061 -16.501 -24.281  0.00  0.00    +0.004 C 
ATOM     16  C   UNL     1      34.325 -18.310 -22.173  0.00  0.00    -0.004 C 
ATOM     17  C   UNL     1      34.315 -18.770 -23.490  0.00  0.00    -0.022 C 
ATOM     18  C   UNL     1      34.184 -17.865 -24.544  0.00  0.00    -0.004 C 
ATOM     19  C   UNL     1      34.444 -20.225 -23.811  0.00  0.00    +0.031 C 
BRANCH  13  22
ATOM     20  O   UNL     1      34.536 -13.782 -23.397  0.00  0.00    -0.270 OA
ATOM     21  N   UNL     1      33.151 -14.247 -21.599  0.00  0.00    -0.302 N 
ATOM     22  C   UNL     1      33.944 -14.618 -22.691  0.00  0.00    +0.246 C 
ATOM     23  H   UNL     1      32.708 -14.958 -21.079  0.00  0.00    +0.150 HD
BRANCH  21  24
ATOM     24  C   UNL     1      32.950 -12.883 -21.196  0.00  0.00    +0.072 C 
ATOM     25  C   UNL     1      31.763 -12.098 -21.673  0.00  0.00    +0.021 C 
ATOM     26  C   UNL     1      31.862 -12.510 -20.234  0.00  0.00    +0.021 C 
ENDBRANCH  21  24
ENDBRANCH  13  22
ENDBRANCH   4  16
BRANCH   1  27
ATOM     27  C   UNL     1      35.180 -23.637 -15.733  0.00  0.00    +0.075 C 
BRANCH  27  28
ATOM     28  C   UNL     1      34.987 -24.685 -14.644  0.00  0.00    -0.055 C 
BRANCH  28  30
ATOM     29  O   UNL     1      37.944 -22.951 -12.223  0.00  0.00    -0.358 OA
ATOM     30  N   UNL     1      35.858 -24.401 -13.505  0.00  0.00    +0.391 N 
ATOM     31  C   UNL     1      35.654 -23.028 -13.023  0.00  0.00    -0.045 C 
ATOM     32  C   UNL     1      37.268 -24.606 -13.862  0.00  0.00    -0.045 C 
ATOM     33  C   UNL     1      36.581 -22.751 -11.843  0.00  0.00    +0.119 C 
ATOM     34  C   UNL     1      38.157 -24.293 -12.662  0.00  0.00    +0.119 C 
ATOM     35  H   UNL     1      35.613 -25.049 -12.756  0.00  0.00    -0.079 HD
ENDBRANCH  28  30
ENDBRANCH  27  28
ENDBRANCH   1  27
TORSDOF 6
ENDMDL
MODEL 3
REMARK VINA RESULT:     -11.8      3.420     11.602
REMARK  Name = 24963046
REMARK  6 active torsions:
REMARK  status: ('A' for Active; 'I' for Inactive)
REMARK    1  A    between atoms: N_1  and  C_27
REMARK    2  A    between atoms: C_4  and  C_16
REMARK    3  A    between atoms: C_13  and  C_22
REMARK    4  A    between atoms: N_21  and  C_24
REMARK    5  A    between atoms: C_27  and  C_28
REMARK    6  A    between atoms: C_28  and  N_30
REMARK                            x       y       z     vdW  Elec       q    Type
REMARK                         _______ _______ _______ _____ _____    ______ ____
ROOT
ATOM      1  N   UNL     1      32.792 -11.564 -24.149  0.00  0.00    -0.270 N 
ATOM      2  N   UNL     1      33.340 -13.080 -22.475  0.00  0.00    -0.338 NA
ATOM      3  N   UNL     1      33.250 -13.746 -24.789  0.00  0.00    -0.170 NA
ATOM      4  C   UNL     1      34.396 -16.952 -21.350  0.00  0.00    -0.000 C 
ATOM      5  C   UNL     1      34.179 -16.655 -22.692  0.00  0.00    +0.004 C 
ATOM      6  C   UNL     1      33.823 -15.351 -23.075  0.00  0.00    +0.050 C 
ATOM      7  C   UNL     1      33.143 -12.855 -23.790  0.00  0.00    +0.145 C 
ATOM      8  C   UNL     1      34.259 -15.950 -20.395  0.00  0.00    +0.003 C 
ATOM      9  C   UNL     1      33.681 -14.331 -22.120  0.00  0.00    +0.146 C 
ATOM     10  C   UNL     1      33.904 -14.655 -20.784  0.00  0.00    +0.033 C 
ATOM     11  C   UNL     1      33.592 -14.989 -24.399  0.00  0.00    +0.114 C 
ATOM     12  H   UNL     1      32.643 -11.371 -25.104  0.00  0.00    +0.159 HD
ENDROOT
BRANCH   4  16
ATOM     13  C   UNL     1      34.126 -20.409 -19.974  0.00  0.00    +0.053 C 
ATOM     14  C   UNL     1      33.796 -19.112 -20.366  0.00  0.00    +0.004 C 
ATOM     15  C   UNL     1      35.422 -20.888 -20.167  0.00  0.00    +0.004 C 
ATOM     16  C   UNL     1      34.762 -18.293 -20.951  0.00  0.00    -0.004 C 
ATOM     17  C   UNL     1      36.058 -18.772 -21.144  0.00  0.00    -0.022 C 
ATOM     18  C   UNL     1      36.388 -20.070 -20.753  0.00  0.00    -0.004 C 
ATOM     19  C   UNL     1      37.120 -17.924 -21.769  0.00  0.00    +0.031 C 
BRANCH  13  22
ATOM     20  O   UNL     1      31.968 -21.319 -19.830  0.00  0.00    -0.270 OA
ATOM     21  N   UNL     1      33.504 -21.992 -18.232  0.00  0.00    -0.302 N 
ATOM     22  C   UNL     1      33.120 -21.264 -19.364  0.00  0.00    +0.246 C 
ATOM     23  H   UNL     1      34.432 -21.905 -17.912  0.00  0.00    +0.150 HD
BRANCH  21  24
ATOM     24  C   UNL     1      32.613 -22.860 -17.512  0.00  0.00    +0.072 C 
ATOM     25  C   UNL     1      32.691 -22.988 -16.019  0.00  0.00    +0.021 C 
ATOM     26  C   UNL     1      31.514 -22.307 -16.655  0.00  0.00    +0.021 C 
ENDBRANCH  21  24
ENDBRANCH  13  22
ENDBRANCH   4  16
BRANCH   1  27
ATOM     27  C   UNL     1      32.635 -10.484 -23.205  0.00  0.00    +0.075 C 
BRANCH  27  28
ATOM     28  C   UNL     1      31.230 -10.518 -22.617  0.00  0.00    -0.055 C 
BRANCH  28  30
ATOM     29  O   UNL     1      32.149  -8.071 -19.333  0.00  0.00    -0.358 OA
ATOM     30  N   UNL     1      31.107  -9.542 -21.536  0.00  0.00    +0.391 N 
ATOM     31  C   UNL     1      32.045  -8.427 -21.731  0.00  0.00    -0.045 C 
ATOM     32  C   UNL     1      31.342 -10.176 -20.231  0.00  0.00    -0.045 C 
ATOM     33  C   UNL     1      31.908  -7.428 -20.586  0.00  0.00    +0.119 C 
ATOM     34  C   UNL     1      31.220  -9.135 -19.121  0.00  0.00    +0.119 C 
ATOM     35  H   UNL     1      30.156  -9.174 -21.554  0.00  0.00    -0.079 HD
ENDBRANCH  28  30
ENDBRANCH  27  28
ENDBRANCH   1  27
TORSDOF 6
ENDMDL
MODEL 4
REMARK VINA RESULT:     -11.8      1.591      1.999
REMARK  Name = 24963046
REMARK  6 active torsions:
REMARK  status: ('A' for Active; 'I' for Inactive)
REMARK    1  A    between atoms: N_1  and  C_27
REMARK    2  A    between atoms: C_4  and  C_16
REMARK    3  A    between atoms: C_13  and  C_22
REMARK    4  A    between atoms: N_21  and  C_24
REMARK    5  A    between atoms: C_27  and  C_28
REMARK    6  A    between atoms: C_28  and  N_30
REMARK                            x       y       z     vdW  Elec       q    Type
REMARK                         _______ _______ _______ _____ _____    ______ ____
ROOT
ATOM      1  N   UNL     1      35.548 -22.301 -17.037  0.00  0.00    -0.270 N 
ATOM      2  N   UNL     1      35.992 -20.628 -18.588  0.00  0.00    -0.338 NA
ATOM      3  N   UNL     1      33.820 -21.662 -18.446  0.00  0.00    -0.170 NA
ATOM      4  C   UNL     1      34.680 -18.183 -21.699  0.00  0.00    -0.000 C 
ATOM      5  C   UNL     1      33.805 -19.099 -21.122  0.00  0.00    +0.004 C 
ATOM      6  C   UNL     1      34.245 -19.925 -20.073  0.00  0.00    +0.050 C 
ATOM      7  C   UNL     1      35.098 -21.495 -18.070  0.00  0.00    +0.145 C 
ATOM      8  C   UNL     1      35.987 -18.093 -21.230  0.00  0.00    +0.003 C 
ATOM      9  C   UNL     1      35.562 -19.843 -19.591  0.00  0.00    +0.146 C 
ATOM     10  C   UNL     1      36.415 -18.918 -20.186  0.00  0.00    +0.033 C 
ATOM     11  C   UNL     1      33.421 -20.860 -19.453  0.00  0.00    +0.114 C 
ATOM     12  H   UNL     1      34.915 -22.943 -16.640  0.00  0.00    +0.159 HD
ENDROOT
BRANCH   4  16
ATOM     13  C   UNL     1      33.603 -15.134 -23.559  0.00  0.00    +0.053 C 
ATOM     14  C   UNL     1      34.033 -15.974 -22.532  0.00  0.00    +0.004 C 
ATOM     15  C   UNL     1      33.373 -15.651 -24.833  0.00  0.00    +0.004 C 
ATOM     16  C   UNL     1      34.234 -17.332 -22.779  0.00  0.00    -0.004 C 
ATOM     17  C   UNL     1      34.004 -17.849 -24.055  0.00  0.00    -0.022 C 
ATOM     18  C   UNL     1      33.574 -17.009 -25.082  0.00  0.00    -0.004 C 
ATOM     19  C   UNL     1      34.209 -19.300 -24.358  0.00  0.00    +0.031 C 
BRANCH  13  22
ATOM     20  O   UNL     1      33.605 -12.874 -24.190  0.00  0.00    -0.270 OA
ATOM     21  N   UNL     1      32.968 -13.360 -22.016  0.00  0.00    -0.302 N 
ATOM     22  C   UNL     1      33.393 -13.718 -23.301  0.00  0.00    +0.246 C 
ATOM     23  H   UNL     1      32.819 -14.076 -21.357  0.00  0.00    +0.150 HD
BRANCH  21  24
ATOM     24  C   UNL     1      32.741 -12.001 -21.610  0.00  0.00    +0.072 C 
ATOM     25  C   UNL     1      31.693 -11.156 -22.273  0.00  0.00    +0.021 C 
ATOM     26  C   UNL     1      31.504 -11.613 -20.856  0.00  0.00    +0.021 C 
ENDBRANCH  21  24
ENDBRANCH  13  22
ENDBRANCH   4  16
BRANCH   1  27
ATOM     27  C   UNL     1      36.890 -22.252 -16.509  0.00  0.00    +0.075 C 
BRANCH  27  28
ATOM     28  C   UNL     1      36.899 -22.787 -15.082  0.00  0.00    -0.055 C 
BRANCH  28  30
ATOM     29  O   UNL     1      37.775 -26.670 -13.752  0.00  0.00    -0.358 OA
ATOM     30  N   UNL     1      37.314 -24.188 -15.067  0.00  0.00    +0.391 N 
ATOM     31  C   UNL     1      36.202 -25.056 -14.653  0.00  0.00    -0.045 C 
ATOM     32  C   UNL     1      38.465 -24.382 -14.175  0.00  0.00    -0.045 C 
ATOM     33  C   UNL     1      36.662 -26.511 -14.632  0.00  0.00    +0.119 C 
ATOM     34  C   UNL     1      38.871 -25.853 -14.167  0.00  0.00    +0.119 C 
ATOM     35  H   UNL     1      37.589 -24.443 -16.016  0.00  0.00    -0.079 HD
ENDBRANCH  28  30
ENDBRANCH  27  28
ENDBRANCH   1  27
TORSDOF 6
ENDMDL
MODEL 5
REMARK VINA RESULT:     -11.8      2.087     11.165
REMARK  Name = 24963046
REMARK  6 active torsions:
REMARK  status: ('A' for Active; 'I' for Inactive)
REMARK    1  A    between atoms: N_1  and  C_27
REMARK    2  A    between atoms: C_4  and  C_16
REMARK    3  A    between atoms: C_13  and  C_22
REMARK    4  A    between atoms: N_21  and  C_24
REMARK    5  A    between atoms: C_27  and  C_28
REMARK    6  A    between atoms: C_28  and  N_30
REMARK                            x       y       z     vdW  Elec       q    Type
REMARK                         _______ _______ _______ _____ _____    ______ ____
ROOT
ATOM      1  N   UNL     1      33.722 -19.033 -22.168  0.00  0.00    -0.270 N 
ATOM      2  N   UNL     1      34.765 -20.023 -20.342  0.00  0.00    -0.338 NA
ATOM      3  N   UNL     1      32.381 -20.178 -20.660  0.00  0.00    -0.170 NA
ATOM      4  C   UNL     1      34.493 -22.261 -16.836  0.00  0.00    -0.000 C 
ATOM      5  C   UNL     1      33.343 -21.975 -17.566  0.00  0.00    +0.004 C 
ATOM      6  C   UNL     1      33.431 -21.220 -18.749  0.00  0.00    +0.050 C 
ATOM      7  C   UNL     1      33.616 -19.778 -21.004  0.00  0.00    +0.145 C 
ATOM      8  C   UNL     1      35.725 -21.797 -17.286  0.00  0.00    +0.003 C 
ATOM      9  C   UNL     1      34.669 -20.745 -19.212  0.00  0.00    +0.146 C 
ATOM     10  C   UNL     1      35.803 -21.048 -18.463  0.00  0.00    +0.033 C 
ATOM     11  C   UNL     1      32.321 -20.899 -19.524  0.00  0.00    +0.114 C 
ATOM     12  H   UNL     1      32.898 -18.840 -22.672  0.00  0.00    +0.159 HD
ENDROOT
BRANCH   4  16
ATOM     13  C   UNL     1      35.515 -24.327 -13.902  0.00  0.00    +0.053 C 
ATOM     14  C   UNL     1      35.573 -23.576 -15.076  0.00  0.00    +0.004 C 
ATOM     15  C   UNL     1      34.290 -24.537 -13.270  0.00  0.00    +0.004 C 
ATOM     16  C   UNL     1      34.407 -23.036 -15.618  0.00  0.00    -0.004 C 
ATOM     17  C   UNL     1      33.182 -23.247 -14.985  0.00  0.00    -0.022 C 
ATOM     18  C   UNL     1      33.123 -23.997 -13.810  0.00  0.00    -0.004 C 
ATOM     19  C   UNL     1      31.910 -22.684 -15.536  0.00  0.00    +0.031 C 
BRANCH  13  22
ATOM     20  O   UNL     1      36.681 -25.635 -12.342  0.00  0.00    -0.270 OA
ATOM     21  N   UNL     1      37.940 -24.538 -13.948  0.00  0.00    -0.302 N 
ATOM     22  C   UNL     1      36.731 -24.890 -13.336  0.00  0.00    +0.246 C 
ATOM     23  H   UNL     1      37.912 -23.943 -14.732  0.00  0.00    +0.150 HD
BRANCH  21  24
ATOM     24  C   UNL     1      39.221 -24.999 -13.488  0.00  0.00    +0.072 C 
ATOM     25  C   UNL     1      39.994 -26.033 -14.251  0.00  0.00    +0.021 C 
ATOM     26  C   UNL     1      40.485 -24.616 -14.198  0.00  0.00    +0.021 C 
ENDBRANCH  21  24
ENDBRANCH  13  22
ENDBRANCH   4  16
BRANCH   1  27
ATOM     27  C   UNL     1      34.970 -18.525 -22.683  0.00  0.00    +0.075 C 
BRANCH  27  28
ATOM     28  C   UNL     1      35.323 -17.220 -21.980  0.00  0.00    -0.055 C 
BRANCH  28  30
ATOM     29  O   UNL     1      32.991 -14.349 -23.965  0.00  0.00    -0.358 OA
ATOM     30  N   UNL     1      34.932 -16.078 -22.803  0.00  0.00    +0.391 N 
ATOM     31  C   UNL     1      34.215 -15.077 -21.999  0.00  0.00    -0.045 C 
ATOM     32  C   UNL     1      34.097 -16.509 -23.933  0.00  0.00    -0.045 C 
ATOM     33  C   UNL     1      33.807 -13.901 -22.881  0.00  0.00    +0.119 C 
ATOM     34  C   UNL     1      33.694 -15.298 -24.769  0.00  0.00    +0.119 C 
ATOM     35  H   UNL     1      35.783 -15.651 -23.169  0.00  0.00    -0.079 HD
ENDBRANCH  28  30
ENDBRANCH  27  28
ENDBRANCH   1  27
TORSDOF 6
ENDMDL
MODEL 6
REMARK VINA RESULT:     -11.6      3.996      8.140
REMARK  Name = 24963046
REMARK  6 active torsions:
REMARK  status: ('A' for Active; 'I' for Inactive)
REMARK    1  A    between atoms: N_1  and  C_27
REMARK    2  A    between atoms: C_4  and  C_16
REMARK    3  A    between atoms: C_13  and  C_22
REMARK    4  A    between atoms: N_21  and  C_24
REMARK    5  A    between atoms: C_27  and  C_28
REMARK    6  A    between atoms: C_28  and  N_30
REMARK                            x       y       z     vdW  Elec       q    Type
REMARK                         _______ _______ _______ _____ _____    ______ ____
ROOT
ATOM      1  N   UNL     1      34.612 -18.042 -23.251  0.00  0.00    -0.270 N 
ATOM      2  N   UNL     1      34.178 -16.003 -22.223  0.00  0.00    -0.338 NA
ATOM      3  N   UNL     1      33.892 -16.296 -24.598  0.00  0.00    -0.170 NA
ATOM      4  C   UNL     1      32.972 -12.024 -22.517  0.00  0.00    -0.000 C 
ATOM      5  C   UNL     1      33.024 -12.818 -23.659  0.00  0.00    +0.004 C 
ATOM      6  C   UNL     1      33.431 -14.160 -23.564  0.00  0.00    +0.050 C 
ATOM      7  C   UNL     1      34.210 -16.721 -23.365  0.00  0.00    +0.145 C 
ATOM      8  C   UNL     1      33.322 -12.568 -21.287  0.00  0.00    +0.003 C 
ATOM      9  C   UNL     1      33.788 -14.721 -22.326  0.00  0.00    +0.146 C 
ATOM     10  C   UNL     1      33.725 -13.904 -21.200  0.00  0.00    +0.033 C 
ATOM     11  C   UNL     1      33.506 -15.007 -24.666  0.00  0.00    +0.114 C 
ATOM     12  H   UNL     1      34.644 -18.589 -24.069  0.00  0.00    +0.159 HD
ENDROOT
BRANCH   4  16
ATOM     13  C   UNL     1      33.042  -8.373 -23.282  0.00  0.00    +0.053 C 
ATOM     14  C   UNL     1      33.423  -9.711 -23.181  0.00  0.00    +0.004 C 
ATOM     15  C   UNL     1      31.793  -7.966 -22.814  0.00  0.00    +0.004 C 
ATOM     16  C   UNL     1      32.555 -10.642 -22.611  0.00  0.00    -0.004 C 
ATOM     17  C   UNL     1      31.306 -10.235 -22.143  0.00  0.00    -0.022 C 
ATOM     18  C   UNL     1      30.924  -8.897 -22.245  0.00  0.00    -0.004 C 
ATOM     19  C   UNL     1      30.348 -11.204 -21.526  0.00  0.00    +0.031 C 
BRANCH  13  22
ATOM     20  O   UNL     1      35.076  -7.745 -24.271  0.00  0.00    -0.270 OA
ATOM     21  N   UNL     1      33.495  -6.079 -23.962  0.00  0.00    -0.302 N 
ATOM     22  C   UNL     1      33.947  -7.402 -23.877  0.00  0.00    +0.246 C 
ATOM     23  H   UNL     1      32.590  -5.872 -23.632  0.00  0.00    +0.150 HD
BRANCH  21  24
ATOM     24  C   UNL     1      34.284  -5.008 -24.506  0.00  0.00    +0.072 C 
ATOM     25  C   UNL     1      34.504  -4.877 -25.984  0.00  0.00    +0.021 C 
ATOM     26  C   UNL     1      33.647  -3.880 -25.260  0.00  0.00    +0.021 C 
ENDBRANCH  21  24
ENDBRANCH  13  22
ENDBRANCH   4  16
BRANCH   1  27
ATOM     27  C   UNL     1      34.988 -18.661 -22.003  0.00  0.00    +0.075 C 
BRANCH  27  28
ATOM     28  C   UNL     1      33.784 -19.377 -21.404  0.00  0.00    -0.055 C 
BRANCH  28  30
ATOM     29  O   UNL     1      34.900 -22.075 -18.389  0.00  0.00    -0.358 OA
ATOM     30  N   UNL     1      34.122 -19.934 -20.096  0.00  0.00    +0.391 N 
ATOM     31  C   UNL     1      35.499 -20.451 -20.090  0.00  0.00    -0.045 C 
ATOM     32  C   UNL     1      33.182 -21.000 -19.723  0.00  0.00    -0.045 C 
ATOM     33  C   UNL     1      35.825 -21.037 -18.720  0.00  0.00    +0.119 C 
ATOM     34  C   UNL     1      33.563 -21.573 -18.361  0.00  0.00    +0.119 C 
ATOM     35  H   UNL     1      34.054 -19.183 -19.409  0.00  0.00    -0.079 HD
ENDBRANCH  28  30
ENDBRANCH  27  28
ENDBRANCH   1  27
TORSDOF 6
ENDMDL
MODEL 7
REMARK VINA RESULT:     -11.1      4.055     13.085
REMARK  Name = 24963046
REMARK  6 active torsions:
REMARK  status: ('A' for Active; 'I' for Inactive)
REMARK    1  A    between atoms: N_1  and  C_27
REMARK    2  A    between atoms: C_4  and  C_16
REMARK    3  A    between atoms: C_13  and  C_22
REMARK    4  A    between atoms: N_21  and  C_24
REMARK    5  A    between atoms: C_27  and  C_28
REMARK    6  A    between atoms: C_28  and  N_30
REMARK                            x       y       z     vdW  Elec       q    Type
REMARK                         _______ _______ _______ _____ _____    ______ ____
ROOT
ATOM      1  N   UNL     1      31.557  -8.942 -21.740  0.00  0.00    -0.270 N 
ATOM      2  N   UNL     1      32.193 -11.069 -21.050  0.00  0.00    -0.338 NA
ATOM      3  N   UNL     1      32.329 -10.408 -23.364  0.00  0.00    -0.170 NA
ATOM      4  C   UNL     1      33.668 -14.852 -21.992  0.00  0.00    -0.000 C 
ATOM      5  C   UNL     1      33.497 -13.905 -22.998  0.00  0.00    +0.004 C 
ATOM      6  C   UNL     1      32.999 -12.628 -22.684  0.00  0.00    +0.050 C 
ATOM      7  C   UNL     1      32.048 -10.195 -22.068  0.00  0.00    +0.145 C 
ATOM      8  C   UNL     1      33.345 -14.524 -20.680  0.00  0.00    +0.003 C 
ATOM      9  C   UNL     1      32.669 -12.286 -21.362  0.00  0.00    +0.146 C 
ATOM     10  C   UNL     1      32.851 -13.253 -20.376  0.00  0.00    +0.033 C 
ATOM     11  C   UNL     1      32.805 -11.637 -23.641  0.00  0.00    +0.114 C 
ATOM     12  H   UNL     1      31.442  -8.284 -22.464  0.00  0.00    +0.159 HD
ENDROOT
BRANCH   4  16
ATOM     13  C   UNL     1      35.246 -18.207 -21.579  0.00  0.00    +0.053 C 
ATOM     14  C   UNL     1      34.747 -16.936 -21.296  0.00  0.00    +0.004 C 
ATOM     15  C   UNL     1      35.176 -18.709 -22.878  0.00  0.00    +0.004 C 
ATOM     16  C   UNL     1      34.179 -16.167 -22.311  0.00  0.00    -0.004 C 
ATOM     17  C   UNL     1      34.109 -16.670 -23.610  0.00  0.00    -0.022 C 
ATOM     18  C   UNL     1      34.607 -17.942 -23.894  0.00  0.00    -0.004 C 
ATOM     19  C   UNL     1      33.506 -15.875 -24.725  0.00  0.00    +0.031 C 
BRANCH  13  22
ATOM     20  O   UNL     1      36.778 -18.564 -19.838  0.00  0.00    -0.270 OA
ATOM     21  N   UNL     1      35.319 -20.295 -20.330  0.00  0.00    -0.302 N 
ATOM     22  C   UNL     1      35.839 -19.009 -20.521  0.00  0.00    +0.246 C 
ATOM     23  H   UNL     1      34.575 -20.590 -20.904  0.00  0.00    +0.150 HD
BRANCH  21  24
ATOM     24  C   UNL     1      35.817 -21.209 -19.338  0.00  0.00    +0.072 C 
ATOM     25  C   UNL     1      36.086 -20.759 -17.932  0.00  0.00    +0.021 C 
ATOM     26  C   UNL     1      34.944 -21.689 -18.218  0.00  0.00    +0.021 C 
ENDBRANCH  21  24
ENDBRANCH  13  22
ENDBRANCH   4  16
BRANCH   1  27
ATOM     27  C   UNL     1      31.205  -8.545 -20.398  0.00  0.00    +0.075 C 
BRANCH  27  28
ATOM     28  C   UNL     1      31.779  -7.165 -20.104  0.00  0.00    -0.055 C 
BRANCH  28  30
ATOM     29  O   UNL     1      31.521  -3.675 -22.421  0.00  0.00    -0.358 OA
ATOM     30  N   UNL     1      31.434  -6.233 -21.175  0.00  0.00    +0.391 N 
ATOM     31  C   UNL     1      32.644  -5.751 -21.858  0.00  0.00    -0.045 C 
ATOM     32  C   UNL     1      30.665  -5.096 -20.651  0.00  0.00    -0.045 C 
ATOM     33  C   UNL     1      32.260  -4.772 -22.962  0.00  0.00    +0.119 C 
ATOM     34  C   UNL     1      30.326  -4.132 -21.785  0.00  0.00    +0.119 C 
ATOM     35  H   UNL     1      30.857  -6.734 -21.851  0.00  0.00    -0.079 HD
ENDBRANCH  28  30
ENDBRANCH  27  28
ENDBRANCH   1  27
TORSDOF 6
ENDMDL
MODEL 8
REMARK VINA RESULT:     -10.9      2.311      3.359
REMARK  Name = 24963046
REMARK  6 active torsions:
REMARK  status: ('A' for Active; 'I' for Inactive)
REMARK    1  A    between atoms: N_1  and  C_27
REMARK    2  A    between atoms: C_4  and  C_16
REMARK    3  A    between atoms: C_13  and  C_22
REMARK    4  A    between atoms: N_21  and  C_24
REMARK    5  A    between atoms: C_27  and  C_28
REMARK    6  A    between atoms: C_28  and  N_30
REMARK                            x       y       z     vdW  Elec       q    Type
REMARK                         _______ _______ _______ _____ _____    ______ ____
ROOT
ATOM      1  N   UNL     1      35.155 -23.471 -15.728  0.00  0.00    -0.270 N 
ATOM      2  N   UNL     1      34.101 -22.290 -17.430  0.00  0.00    -0.338 NA
ATOM      3  N   UNL     1      36.435 -21.956 -16.931  0.00  0.00    -0.170 NA
ATOM      4  C   UNL     1      34.298 -19.465 -20.488  0.00  0.00    -0.000 C 
ATOM      5  C   UNL     1      35.435 -19.757 -19.741  0.00  0.00    +0.004 C 
ATOM      6  C   UNL     1      35.372 -20.709 -18.709  0.00  0.00    +0.050 C 
ATOM      7  C   UNL     1      35.236 -22.529 -16.741  0.00  0.00    +0.145 C 
ATOM      8  C   UNL     1      33.105 -20.120 -20.207  0.00  0.00    +0.003 C 
ATOM      9  C   UNL     1      34.172 -21.378 -18.415  0.00  0.00    +0.146 C 
ATOM     10  C   UNL     1      33.051 -21.066 -19.179  0.00  0.00    +0.033 C 
ATOM     11  C   UNL     1      36.472 -21.047 -17.925  0.00  0.00    +0.114 C 
ATOM     12  H   UNL     1      35.969 -23.666 -15.210  0.00  0.00    +0.159 HD
ENDROOT
BRANCH   4  16
ATOM     13  C   UNL     1      34.272 -16.172 -22.242  0.00  0.00    +0.053 C 
ATOM     14  C   UNL     1      34.218 -17.134 -21.234  0.00  0.00    +0.004 C 
ATOM     15  C   UNL     1      34.468 -16.560 -23.567  0.00  0.00    +0.004 C 
ATOM     16  C   UNL     1      34.358 -18.485 -21.551  0.00  0.00    -0.004 C 
ATOM     17  C   UNL     1      34.554 -18.873 -22.877  0.00  0.00    -0.022 C 
ATOM     18  C   UNL     1      34.610 -17.911 -23.885  0.00  0.00    -0.004 C 
ATOM     19  C   UNL     1      34.710 -20.312 -23.255  0.00  0.00    +0.031 C 
BRANCH  13  22
ATOM     20  O   UNL     1      34.195 -14.378 -20.732  0.00  0.00    -0.270 OA
ATOM     21  N   UNL     1      33.886 -13.882 -22.974  0.00  0.00    -0.302 N 
ATOM     22  C   UNL     1      34.126 -14.763 -21.912  0.00  0.00    +0.246 C 
ATOM     23  H   UNL     1      33.842 -14.250 -23.887  0.00  0.00    +0.150 HD
BRANCH  21  24
ATOM     24  C   UNL     1      33.700 -12.467 -22.799  0.00  0.00    +0.072 C 
ATOM     25  C   UNL     1      32.967 -11.648 -23.820  0.00  0.00    +0.021 C 
ATOM     26  C   UNL     1      32.352 -11.897 -22.474  0.00  0.00    +0.021 C 
ENDBRANCH  21  24
ENDBRANCH  13  22
ENDBRANCH   4  16
BRANCH   1  27
ATOM     27  C   UNL     1      33.946 -24.183 -15.390  0.00  0.00    +0.075 C 
BRANCH  27  28
ATOM     28  C   UNL     1      33.454 -23.734 -14.019  0.00  0.00    -0.055 C 
BRANCH  28  30
ATOM     29  O   UNL     1      29.381 -24.247 -14.895  0.00  0.00    -0.358 OA
ATOM     30  N   UNL     1      32.004 -23.552 -14.034  0.00  0.00    +0.391 N 
ATOM     31  C   UNL     1      31.322 -24.753 -13.529  0.00  0.00    -0.045 C 
ATOM     32  C   UNL     1      31.531 -23.237 -15.389  0.00  0.00    -0.045 C 
ATOM     33  C   UNL     1      29.811 -24.544 -13.566  0.00  0.00    +0.119 C 
ATOM     34  C   UNL     1      30.015 -23.062 -15.381  0.00  0.00    +0.119 C 
ATOM     35  H   UNL     1      31.781 -22.769 -13.420  0.00  0.00    -0.079 HD
ENDBRANCH  28  30
ENDBRANCH  27  28
ENDBRANCH   1  27
TORSDOF 6
ENDMDL
MODEL 9
REMARK VINA RESULT:     -10.8      4.583      9.078
REMARK  Name = 24963046
REMARK  6 active torsions:
REMARK  status: ('A' for Active; 'I' for Inactive)
REMARK    1  A    between atoms: N_1  and  C_27
REMARK    2  A    between atoms: C_4  and  C_16
REMARK    3  A    between atoms: C_13  and  C_22
REMARK    4  A    between atoms: N_21  and  C_24
REMARK    5  A    between atoms: C_27  and  C_28
REMARK    6  A    between atoms: C_28  and  N_30
REMARK                            x       y       z     vdW  Elec       q    Type
REMARK                         _______ _______ _______ _____ _____    ______ ____
ROOT
ATOM      1  N   UNL     1      34.166 -17.158 -24.211  0.00  0.00    -0.270 N 
ATOM      2  N   UNL     1      33.913 -15.194 -22.994  0.00  0.00    -0.338 NA
ATOM      3  N   UNL     1      33.293 -15.317 -25.319  0.00  0.00    -0.170 NA
ATOM      4  C   UNL     1      32.744 -11.197 -22.841  0.00  0.00    -0.000 C 
ATOM      5  C   UNL     1      32.623 -11.909 -24.030  0.00  0.00    +0.004 C 
ATOM      6  C   UNL     1      33.017 -13.257 -24.086  0.00  0.00    +0.050 C 
ATOM      7  C   UNL     1      33.773 -15.830 -24.175  0.00  0.00    +0.145 C 
ATOM      8  C   UNL     1      33.254 -11.828 -21.712  0.00  0.00    +0.003 C 
ATOM      9  C   UNL     1      33.534 -13.906 -22.952  0.00  0.00    +0.146 C 
ATOM     10  C   UNL     1      33.643 -13.169 -21.775  0.00  0.00    +0.033 C 
ATOM     11  C   UNL     1      32.922 -14.024 -25.243  0.00  0.00    +0.114 C 
ATOM     12  H   UNL     1      34.073 -17.647 -25.061  0.00  0.00    +0.159 HD
ENDROOT
BRANCH   4  16
ATOM     13  C   UNL     1      32.812  -7.492 -23.275  0.00  0.00    +0.053 C 
ATOM     14  C   UNL     1      33.180  -8.836 -23.323  0.00  0.00    +0.004 C 
ATOM     15  C   UNL     1      31.604  -7.120 -22.685  0.00  0.00    +0.004 C 
ATOM     16  C   UNL     1      32.341  -9.809 -22.779  0.00  0.00    -0.004 C 
ATOM     17  C   UNL     1      31.133  -9.436 -22.189  0.00  0.00    -0.022 C 
ATOM     18  C   UNL     1      30.764  -8.092 -22.142  0.00  0.00    -0.004 C 
ATOM     19  C   UNL     1      30.207 -10.451 -21.596  0.00  0.00    +0.031 C 
BRANCH  13  22
ATOM     20  O   UNL     1      34.160  -5.577 -23.126  0.00  0.00    -0.270 OA
ATOM     21  N   UNL     1      33.945  -6.554 -25.216  0.00  0.00    -0.302 N 
ATOM     22  C   UNL     1      33.686  -6.477 -23.842  0.00  0.00    +0.246 C 
ATOM     23  H   UNL     1      33.539  -7.292 -25.728  0.00  0.00    +0.150 HD
BRANCH  21  24
ATOM     24  C   UNL     1      34.772  -5.611 -25.917  0.00  0.00    +0.072 C 
ATOM     25  C   UNL     1      34.393  -5.108 -27.279  0.00  0.00    +0.021 C 
ATOM     26  C   UNL     1      34.343  -4.186 -26.096  0.00  0.00    +0.021 C 
ENDBRANCH  21  24
ENDBRANCH  13  22
ENDBRANCH   4  16
BRANCH   1  27
ATOM     27  C   UNL     1      34.702 -17.867 -23.073  0.00  0.00    +0.075 C 
BRANCH  27  28
ATOM     28  C   UNL     1      33.627 -18.768 -22.478  0.00  0.00    -0.055 C 
BRANCH  28  30
ATOM     29  O   UNL     1      35.114 -20.446 -18.930  0.00  0.00    -0.358 OA
ATOM     30  N   UNL     1      34.221 -19.709 -21.530  0.00  0.00    +0.391 N 
ATOM     31  C   UNL     1      33.272 -20.034 -20.455  0.00  0.00    -0.045 C 
ATOM     32  C   UNL     1      35.460 -19.163 -20.959  0.00  0.00    -0.045 C 
ATOM     33  C   UNL     1      33.917 -21.007 -19.472  0.00  0.00    +0.119 C 
ATOM     34  C   UNL     1      36.054 -20.157 -19.965  0.00  0.00    +0.119 C 
ATOM     35  H   UNL     1      34.444 -20.565 -22.038  0.00  0.00    -0.079 HD
ENDBRANCH  28  30
ENDBRANCH  27  28
ENDBRANCH   1  27
TORSDOF 6
ENDMDL
