MODEL 1
REMARK VINA RESULT:     -10.9      0.000      0.000
REMARK  Name = 3360
REMARK  10 active torsions:
REMARK  status: ('A' for Active; 'I' for Inactive)
REMARK    1  A    between atoms: N_1  and  C_5
REMARK    2  A    between atoms: N_1  and  C_17
REMARK    3  A    between atoms: C_7  and  C_16
REMARK    4  A    between atoms: C_18  and  C_24
REMARK    5  A    between atoms: C_24  and  O_25
REMARK    6  A    between atoms: O_25  and  C_26
REMARK    7  A    between atoms: C_26  and  C_27
REMARK    8  A    between atoms: C_27  and  O_28
REMARK    9  A    between atoms: C_27  and  C_30
REMARK   10  A    between atoms: C_30  and  O_31
REMARK                            x       y       z     vdW  Elec       q    Type
REMARK                         _______ _______ _______ _____ _____    ______ ____
ROOT
ATOM      1  N   UNL     1      33.373 -23.031 -17.029  0.00  0.00    -0.312 N 
ATOM      2  H   UNL     1      33.235 -23.870 -17.525  0.00  0.00    +0.152 HD
ENDROOT
BRANCH   1   5
ATOM      3  N   UNL     1      36.066 -20.390 -18.871  0.00  0.00    -0.244 NA
ATOM      4  C   UNL     1      33.851 -21.332 -18.744  0.00  0.00    +0.031 C 
ATOM      5  C   UNL     1      34.260 -22.131 -17.667  0.00  0.00    +0.051 C 
ATOM      6  C   UNL     1      34.799 -20.463 -19.323  0.00  0.00    +0.086 C 
ATOM      7  C   UNL     1      34.393 -19.669 -20.392  0.00  0.00    +0.089 C 
ATOM      8  C   UNL     1      32.539 -21.384 -19.242  0.00  0.00    +0.003 C 
ATOM      9  C   UNL     1      35.563 -22.058 -17.198  0.00  0.00    +0.035 C 
ATOM     10  C   UNL     1      33.088 -19.720 -20.888  0.00  0.00    +0.005 C 
ATOM     11  C   UNL     1      32.159 -20.578 -20.313  0.00  0.00    +0.000 C 
ATOM     12  C   UNL     1      36.419 -21.178 -17.830  0.00  0.00    +0.100 C 
BRANCH   7  16
ATOM     13  F   UNL     1      36.661 -18.988 -20.737  0.00  0.00    -0.166 F 
ATOM     14  F   UNL     1      35.297 -18.752 -22.408  0.00  0.00    -0.166 F 
ATOM     15  F   UNL     1      35.142 -17.432 -20.688  0.00  0.00    -0.166 F 
ATOM     16  C   UNL     1      35.358 -18.729 -21.046  0.00  0.00    +0.420 C 
ENDBRANCH   7  16
ENDBRANCH   1   5
BRANCH   1  17
ATOM     17  C   UNL     1      32.651 -22.958 -15.826  0.00  0.00    +0.055 C 
ATOM     18  C   UNL     1      33.196 -23.422 -14.625  0.00  0.00    +0.089 C 
ATOM     19  C   UNL     1      31.364 -22.410 -15.831  0.00  0.00    +0.015 C 
ATOM     20  C   UNL     1      32.464 -23.339 -13.441  0.00  0.00    +0.008 C 
ATOM     21  C   UNL     1      30.631 -22.328 -14.646  0.00  0.00    +0.001 C 
ATOM     22  C   UNL     1      31.180 -22.792 -13.452  0.00  0.00    +0.000 C 
BRANCH  18  24
ATOM     23  O   UNL     1      34.929 -24.904 -15.323  0.00  0.00    -0.245 OA
ATOM     24  C   UNL     1      34.535 -23.999 -14.580  0.00  0.00    +0.342 C 
BRANCH  24  25
ATOM     25  O   UNL     1      35.300 -23.410 -13.612  0.00  0.00    -0.443 OA
BRANCH  25  26
ATOM     26  C   UNL     1      36.615 -23.940 -13.420  0.00  0.00    +0.240 C 
BRANCH  26  27
ATOM     27  C   UNL     1      36.717 -24.586 -12.043  0.00  0.00    +0.184 C 
BRANCH  27  28
ATOM     28  O   UNL     1      36.381 -25.970 -12.160  0.00  0.00    -0.378 OA
ATOM     29  H   UNL     1      36.744 -26.456 -11.402  0.00  0.00    +0.211 HD
ENDBRANCH  27  28
BRANCH  27  30
ATOM     30  C   UNL     1      35.749 -23.949 -11.055  0.00  0.00    +0.170 C 
BRANCH  30  31
ATOM     31  O   UNL     1      34.534 -24.691 -11.054  0.00  0.00    -0.379 OA
ATOM     32  H   UNL     1      33.787 -24.089 -10.911  0.00  0.00    +0.211 HD
ENDBRANCH  30  31
ENDBRANCH  27  30
ENDBRANCH  26  27
ENDBRANCH  25  26
ENDBRANCH  24  25
ENDBRANCH  18  24
ENDBRANCH   1  17
TORSDOF 10
ENDMDL
MODEL 2
REMARK VINA RESULT:     -10.6      6.199      9.365
REMARK  Name = 3360
REMARK  10 active torsions:
REMARK  status: ('A' for Active; 'I' for Inactive)
REMARK    1  A    between atoms: N_1  and  C_5
REMARK    2  A    between atoms: N_1  and  C_17
REMARK    3  A    between atoms: C_7  and  C_16
REMARK    4  A    between atoms: C_18  and  C_24
REMARK    5  A    between atoms: C_24  and  O_25
REMARK    6  A    between atoms: O_25  and  C_26
REMARK    7  A    between atoms: C_26  and  C_27
REMARK    8  A    between atoms: C_27  and  O_28
REMARK    9  A    between atoms: C_27  and  C_30
REMARK   10  A    between atoms: C_30  and  O_31
REMARK                            x       y       z     vdW  Elec       q    Type
REMARK                         _______ _______ _______ _____ _____    ______ ____
ROOT
ATOM      1  N   UNL     1      34.426 -15.462 -22.076  0.00  0.00    -0.312 N 
ATOM      2  H   UNL     1      35.381 -15.302 -21.898  0.00  0.00    +0.152 HD
ENDROOT
BRANCH   1   5
ATOM      3  N   UNL     1      31.872 -12.716 -20.191  0.00  0.00    -0.244 NA
ATOM      4  C   UNL     1      33.225 -13.314 -22.094  0.00  0.00    +0.031 C 
ATOM      5  C   UNL     1      33.566 -14.520 -21.464  0.00  0.00    +0.051 C 
ATOM      6  C   UNL     1      32.362 -12.431 -21.412  0.00  0.00    +0.086 C 
ATOM      7  C   UNL     1      32.022 -11.234 -22.039  0.00  0.00    +0.089 C 
ATOM      8  C   UNL     1      33.718 -12.985 -23.367  0.00  0.00    +0.003 C 
ATOM      9  C   UNL     1      33.063 -14.816 -20.206  0.00  0.00    +0.035 C 
ATOM     10  C   UNL     1      32.512 -10.905 -23.305  0.00  0.00    +0.005 C 
ATOM     11  C   UNL     1      33.361 -11.781 -23.970  0.00  0.00    +0.000 C 
ATOM     12  C   UNL     1      32.227 -13.889 -19.618  0.00  0.00    +0.100 C 
BRANCH   7  16
ATOM     13  F   UNL     1      31.073  -9.039 -21.971  0.00  0.00    -0.166 F 
ATOM     14  F   UNL     1      29.813 -10.676 -21.310  0.00  0.00    -0.166 F 
ATOM     15  F   UNL     1      31.474 -10.017 -20.071  0.00  0.00    -0.166 F 
ATOM     16  C   UNL     1      31.111 -10.258 -21.362  0.00  0.00    +0.420 C 
ENDBRANCH   7  16
ENDBRANCH   1   5
BRANCH   1  17
ATOM     17  C   UNL     1      34.181 -16.581 -22.890  0.00  0.00    +0.055 C 
ATOM     18  C   UNL     1      34.411 -17.879 -22.425  0.00  0.00    +0.089 C 
ATOM     19  C   UNL     1      33.698 -16.391 -24.189  0.00  0.00    +0.015 C 
ATOM     20  C   UNL     1      34.160 -18.976 -23.248  0.00  0.00    +0.008 C 
ATOM     21  C   UNL     1      33.448 -17.489 -25.013  0.00  0.00    +0.001 C 
ATOM     22  C   UNL     1      33.678 -18.781 -24.543  0.00  0.00    +0.000 C 
BRANCH  18  24
ATOM     23  O   UNL     1      35.864 -17.511 -20.571  0.00  0.00    -0.245 OA
ATOM     24  C   UNL     1      34.914 -18.117 -21.077  0.00  0.00    +0.342 C 
BRANCH  24  25
ATOM     25  O   UNL     1      34.199 -19.095 -20.443  0.00  0.00    -0.443 OA
BRANCH  25  26
ATOM     26  C   UNL     1      34.923 -20.262 -20.040  0.00  0.00    +0.240 C 
BRANCH  26  27
ATOM     27  C   UNL     1      34.053 -21.124 -19.134  0.00  0.00    +0.184 C 
BRANCH  27  28
ATOM     28  O   UNL     1      34.316 -22.500 -19.419  0.00  0.00    -0.378 OA
ATOM     29  H   UNL     1      34.622 -22.945 -18.612  0.00  0.00    +0.211 HD
ENDBRANCH  27  28
BRANCH  27  30
ATOM     30  C   UNL     1      32.571 -20.869 -19.376  0.00  0.00    +0.170 C 
BRANCH  30  31
ATOM     31  O   UNL     1      31.815 -21.569 -18.394  0.00  0.00    -0.379 OA
ATOM     32  H   UNL     1      31.952 -22.524 -18.500  0.00  0.00    +0.211 HD
ENDBRANCH  30  31
ENDBRANCH  27  30
ENDBRANCH  26  27
ENDBRANCH  25  26
ENDBRANCH  24  25
ENDBRANCH  18  24
ENDBRANCH   1  17
TORSDOF 10
ENDMDL
MODEL 3
REMARK VINA RESULT:     -10.0      1.791      2.805
REMARK  Name = 3360
REMARK  10 active torsions:
REMARK  status: ('A' for Active; 'I' for Inactive)
REMARK    1  A    between atoms: N_1  and  C_5
REMARK    2  A    between atoms: N_1  and  C_17
REMARK    3  A    between atoms: C_7  and  C_16
REMARK    4  A    between atoms: C_18  and  C_24
REMARK    5  A    between atoms: C_24  and  O_25
REMARK    6  A    between atoms: O_25  and  C_26
REMARK    7  A    between atoms: C_26  and  C_27
REMARK    8  A    between atoms: C_27  and  O_28
REMARK    9  A    between atoms: C_27  and  C_30
REMARK   10  A    between atoms: C_30  and  O_31
REMARK                            x       y       z     vdW  Elec       q    Type
REMARK                         _______ _______ _______ _____ _____    ______ ____
ROOT
ATOM      1  N   UNL     1      32.783 -22.575 -17.865  0.00  0.00    -0.312 N 
ATOM      2  H   UNL     1      33.291 -23.392 -18.076  0.00  0.00    +0.152 HD
ENDROOT
BRANCH   1   5
ATOM      3  N   UNL     1      32.996 -19.593 -20.811  0.00  0.00    -0.244 NA
ATOM      4  C   UNL     1      34.114 -20.994 -19.200  0.00  0.00    +0.031 C 
ATOM      5  C   UNL     1      32.883 -21.569 -18.855  0.00  0.00    +0.051 C 
ATOM      6  C   UNL     1      34.124 -19.997 -20.197  0.00  0.00    +0.086 C 
ATOM      7  C   UNL     1      35.347 -19.426 -20.541  0.00  0.00    +0.089 C 
ATOM      8  C   UNL     1      35.311 -21.391 -18.581  0.00  0.00    +0.003 C 
ATOM      9  C   UNL     1      31.719 -21.156 -19.485  0.00  0.00    +0.035 C 
ATOM     10  C   UNL     1      36.538 -19.820 -19.924  0.00  0.00    +0.005 C 
ATOM     11  C   UNL     1      36.520 -20.804 -18.943  0.00  0.00    +0.000 C 
ATOM     12  C   UNL     1      31.828 -20.173 -20.448  0.00  0.00    +0.100 C 
BRANCH   7  16
ATOM     13  F   UNL     1      34.832 -17.190 -21.217  0.00  0.00    -0.166 F 
ATOM     14  F   UNL     1      36.694 -18.033 -21.943  0.00  0.00    -0.166 F 
ATOM     15  F   UNL     1      34.799 -18.733 -22.748  0.00  0.00    -0.166 F 
ATOM     16  C   UNL     1      35.418 -18.362 -21.592  0.00  0.00    +0.420 C 
ENDBRANCH   7  16
ENDBRANCH   1   5
BRANCH   1  17
ATOM     17  C   UNL     1      32.097 -22.636 -16.640  0.00  0.00    +0.055 C 
ATOM     18  C   UNL     1      32.787 -22.771 -15.431  0.00  0.00    +0.089 C 
ATOM     19  C   UNL     1      30.701 -22.557 -16.631  0.00  0.00    +0.015 C 
ATOM     20  C   UNL     1      32.088 -22.827 -14.225  0.00  0.00    +0.008 C 
ATOM     21  C   UNL     1      30.002 -22.614 -15.424  0.00  0.00    +0.001 C 
ATOM     22  C   UNL     1      30.695 -22.749 -14.222  0.00  0.00    +0.000 C 
BRANCH  18  24
ATOM     23  O   UNL     1      34.994 -21.880 -15.300  0.00  0.00    -0.245 OA
ATOM     24  C   UNL     1      34.242 -22.855 -15.401  0.00  0.00    +0.342 C 
BRANCH  24  25
ATOM     25  O   UNL     1      34.669 -24.150 -15.498  0.00  0.00    -0.443 OA
BRANCH  25  26
ATOM     26  C   UNL     1      35.120 -24.771 -14.290  0.00  0.00    +0.240 C 
BRANCH  26  27
ATOM     27  C   UNL     1      36.616 -25.048 -14.377  0.00  0.00    +0.184 C 
BRANCH  27  28
ATOM     28  O   UNL     1      37.186 -24.185 -15.363  0.00  0.00    -0.378 OA
ATOM     29  H   UNL     1      36.477 -23.782 -15.889  0.00  0.00    +0.211 HD
ENDBRANCH  27  28
BRANCH  27  30
ATOM     30  C   UNL     1      36.894 -26.486 -14.795  0.00  0.00    +0.170 C 
BRANCH  30  31
ATOM     31  O   UNL     1      36.212 -26.753 -16.015  0.00  0.00    -0.379 OA
ATOM     32  H   UNL     1      35.345 -27.143 -15.823  0.00  0.00    +0.211 HD
ENDBRANCH  30  31
ENDBRANCH  27  30
ENDBRANCH  26  27
ENDBRANCH  25  26
ENDBRANCH  24  25
ENDBRANCH  18  24
ENDBRANCH   1  17
TORSDOF 10
ENDMDL
MODEL 4
REMARK VINA RESULT:     -10.0      2.394      4.010
REMARK  Name = 3360
REMARK  10 active torsions:
REMARK  status: ('A' for Active; 'I' for Inactive)
REMARK    1  A    between atoms: N_1  and  C_5
REMARK    2  A    between atoms: N_1  and  C_17
REMARK    3  A    between atoms: C_7  and  C_16
REMARK    4  A    between atoms: C_18  and  C_24
REMARK    5  A    between atoms: C_24  and  O_25
REMARK    6  A    between atoms: O_25  and  C_26
REMARK    7  A    between atoms: C_26  and  C_27
REMARK    8  A    between atoms: C_27  and  O_28
REMARK    9  A    between atoms: C_27  and  C_30
REMARK   10  A    between atoms: C_30  and  O_31
REMARK                            x       y       z     vdW  Elec       q    Type
REMARK                         _______ _______ _______ _____ _____    ______ ____
ROOT
ATOM      1  N   UNL     1      35.623 -23.328 -15.289  0.00  0.00    -0.312 N 
ATOM      2  H   UNL     1      36.484 -23.362 -15.765  0.00  0.00    +0.152 HD
ENDROOT
BRANCH   1   5
ATOM      3  N   UNL     1      32.349 -22.185 -17.654  0.00  0.00    -0.244 NA
ATOM      4  C   UNL     1      34.723 -22.135 -17.244  0.00  0.00    +0.031 C 
ATOM      5  C   UNL     1      34.537 -22.929 -16.104  0.00  0.00    +0.051 C 
ATOM      6  C   UNL     1      33.586 -21.782 -18.001  0.00  0.00    +0.086 C 
ATOM      7  C   UNL     1      33.772 -20.994 -19.134  0.00  0.00    +0.089 C 
ATOM      8  C   UNL     1      36.000 -21.697 -17.635  0.00  0.00    +0.003 C 
ATOM      9  C   UNL     1      33.264 -23.346 -15.745  0.00  0.00    +0.035 C 
ATOM     10  C   UNL     1      35.040 -20.557 -19.522  0.00  0.00    +0.005 C 
ATOM     11  C   UNL     1      36.156 -20.909 -18.773  0.00  0.00    +0.000 C 
ATOM     12  C   UNL     1      32.212 -22.949 -16.546  0.00  0.00    +0.100 C 
BRANCH   7  16
ATOM     13  F   UNL     1      31.869 -21.645 -20.429  0.00  0.00    -0.166 F 
ATOM     14  F   UNL     1      31.712 -19.791 -19.315  0.00  0.00    -0.166 F 
ATOM     15  F   UNL     1      32.973 -19.890 -21.083  0.00  0.00    -0.166 F 
ATOM     16  C   UNL     1      32.600 -20.589 -19.974  0.00  0.00    +0.420 C 
ENDBRANCH   7  16
ENDBRANCH   1   5
BRANCH   1  17
ATOM     17  C   UNL     1      35.709 -23.684 -13.933  0.00  0.00    +0.055 C 
ATOM     18  C   UNL     1      36.090 -24.973 -13.546  0.00  0.00    +0.089 C 
ATOM     19  C   UNL     1      35.411 -22.732 -12.953  0.00  0.00    +0.015 C 
ATOM     20  C   UNL     1      36.172 -25.307 -12.195  0.00  0.00    +0.008 C 
ATOM     21  C   UNL     1      35.493 -23.066 -11.600  0.00  0.00    +0.001 C 
ATOM     22  C   UNL     1      35.873 -24.353 -11.221  0.00  0.00    +0.000 C 
BRANCH  18  24
ATOM     23  O   UNL     1      35.723 -26.230 -15.539  0.00  0.00    -0.245 OA
ATOM     24  C   UNL     1      36.409 -25.992 -14.539  0.00  0.00    +0.342 C 
BRANCH  24  25
ATOM     25  O   UNL     1      37.564 -26.651 -14.223  0.00  0.00    -0.443 OA
BRANCH  25  26
ATOM     26  C   UNL     1      38.587 -25.885 -13.578  0.00  0.00    +0.240 C 
BRANCH  26  27
ATOM     27  C   UNL     1      39.786 -25.734 -14.507  0.00  0.00    +0.184 C 
BRANCH  27  28
ATOM     28  O   UNL     1      40.945 -26.245 -13.846  0.00  0.00    -0.378 OA
ATOM     29  H   UNL     1      40.673 -26.808 -13.103  0.00  0.00    +0.211 HD
ENDBRANCH  27  28
BRANCH  27  30
ATOM     30  C   UNL     1      40.046 -24.274 -14.850  0.00  0.00    +0.170 C 
BRANCH  30  31
ATOM     31  O   UNL     1      38.818 -23.662 -15.231  0.00  0.00    -0.379 OA
ATOM     32  H   UNL     1      38.764 -23.621 -16.198  0.00  0.00    +0.211 HD
ENDBRANCH  30  31
ENDBRANCH  27  30
ENDBRANCH  26  27
ENDBRANCH  25  26
ENDBRANCH  24  25
ENDBRANCH  18  24
ENDBRANCH   1  17
TORSDOF 10
ENDMDL
MODEL 5
REMARK VINA RESULT:      -9.8      6.442      9.645
REMARK  Name = 3360
REMARK  10 active torsions:
REMARK  status: ('A' for Active; 'I' for Inactive)
REMARK    1  A    between atoms: N_1  and  C_5
REMARK    2  A    between atoms: N_1  and  C_17
REMARK    3  A    between atoms: C_7  and  C_16
REMARK    4  A    between atoms: C_18  and  C_24
REMARK    5  A    between atoms: C_24  and  O_25
REMARK    6  A    between atoms: O_25  and  C_26
REMARK    7  A    between atoms: C_26  and  C_27
REMARK    8  A    between atoms: C_27  and  O_28
REMARK    9  A    between atoms: C_27  and  C_30
REMARK   10  A    between atoms: C_30  and  O_31
REMARK                            x       y       z     vdW  Elec       q    Type
REMARK                         _______ _______ _______ _____ _____    ______ ____
ROOT
ATOM      1  N   UNL     1      34.465 -15.220 -23.028  0.00  0.00    -0.312 N 
ATOM      2  H   UNL     1      35.356 -15.165 -22.613  0.00  0.00    +0.152 HD
ENDROOT
BRANCH   1   5
ATOM      3  N   UNL     1      32.506 -11.523 -23.355  0.00  0.00    -0.244 NA
ATOM      4  C   UNL     1      33.060 -13.461 -22.034  0.00  0.00    +0.031 C 
ATOM      5  C   UNL     1      33.796 -13.976 -23.111  0.00  0.00    +0.051 C 
ATOM      6  C   UNL     1      32.424 -12.214 -22.202  0.00  0.00    +0.086 C 
ATOM      7  C   UNL     1      31.694 -11.701 -21.132  0.00  0.00    +0.089 C 
ATOM      8  C   UNL     1      32.954 -14.154 -20.817  0.00  0.00    +0.003 C 
ATOM      9  C   UNL     1      33.883 -13.267 -24.300  0.00  0.00    +0.035 C 
ATOM     10  C   UNL     1      31.587 -12.391 -19.922  0.00  0.00    +0.005 C 
ATOM     11  C   UNL     1      32.217 -13.619 -19.764  0.00  0.00    +0.000 C 
ATOM     12  C   UNL     1      33.225 -12.056 -24.370  0.00  0.00    +0.100 C 
BRANCH   7  16
ATOM     13  F   UNL     1      31.797  -9.389 -21.737  0.00  0.00    -0.166 F 
ATOM     14  F   UNL     1      29.919 -10.415 -22.089  0.00  0.00    -0.166 F 
ATOM     15  F   UNL     1      30.526  -9.930 -20.058  0.00  0.00    -0.166 F 
ATOM     16  C   UNL     1      30.997 -10.382 -21.254  0.00  0.00    +0.420 C 
ENDBRANCH   7  16
ENDBRANCH   1   5
BRANCH   1  17
ATOM     17  C   UNL     1      34.104 -16.519 -23.424  0.00  0.00    +0.055 C 
ATOM     18  C   UNL     1      34.459 -17.635 -22.659  0.00  0.00    +0.089 C 
ATOM     19  C   UNL     1      33.376 -16.699 -24.605  0.00  0.00    +0.015 C 
ATOM     20  C   UNL     1      34.090 -18.915 -23.069  0.00  0.00    +0.008 C 
ATOM     21  C   UNL     1      33.008 -17.981 -25.015  0.00  0.00    +0.001 C 
ATOM     22  C   UNL     1      33.365 -19.088 -24.248  0.00  0.00    +0.000 C 
BRANCH  18  24
ATOM     23  O   UNL     1      34.971 -16.646 -20.550  0.00  0.00    -0.245 OA
ATOM     24  C   UNL     1      35.217 -17.487 -21.422  0.00  0.00    +0.342 C 
BRANCH  24  25
ATOM     25  O   UNL     1      36.234 -18.397 -21.348  0.00  0.00    -0.443 OA
BRANCH  25  26
ATOM     26  C   UNL     1      36.402 -19.076 -20.099  0.00  0.00    +0.240 C 
BRANCH  26  27
ATOM     27  C   UNL     1      35.455 -20.268 -20.026  0.00  0.00    +0.184 C 
BRANCH  27  28
ATOM     28  O   UNL     1      34.120 -19.785 -19.860  0.00  0.00    -0.378 OA
ATOM     29  H   UNL     1      33.920 -19.141 -20.559  0.00  0.00    +0.211 HD
ENDBRANCH  27  28
BRANCH  27  30
ATOM     30  C   UNL     1      35.780 -21.166 -18.839  0.00  0.00    +0.170 C 
BRANCH  30  31
ATOM     31  O   UNL     1      34.713 -22.090 -18.653  0.00  0.00    -0.379 OA
ATOM     32  H   UNL     1      35.067 -22.993 -18.640  0.00  0.00    +0.211 HD
ENDBRANCH  30  31
ENDBRANCH  27  30
ENDBRANCH  26  27
ENDBRANCH  25  26
ENDBRANCH  24  25
ENDBRANCH  18  24
ENDBRANCH   1  17
TORSDOF 10
ENDMDL
MODEL 6
REMARK VINA RESULT:      -9.6      4.280      7.108
REMARK  Name = 3360
REMARK  10 active torsions:
REMARK  status: ('A' for Active; 'I' for Inactive)
REMARK    1  A    between atoms: N_1  and  C_5
REMARK    2  A    between atoms: N_1  and  C_17
REMARK    3  A    between atoms: C_7  and  C_16
REMARK    4  A    between atoms: C_18  and  C_24
REMARK    5  A    between atoms: C_24  and  O_25
REMARK    6  A    between atoms: O_25  and  C_26
REMARK    7  A    between atoms: C_26  and  C_27
REMARK    8  A    between atoms: C_27  and  O_28
REMARK    9  A    between atoms: C_27  and  C_30
REMARK   10  A    between atoms: C_30  and  O_31
REMARK                            x       y       z     vdW  Elec       q    Type
REMARK                         _______ _______ _______ _____ _____    ______ ____
ROOT
ATOM      1  N   UNL     1      33.754 -23.995 -15.612  0.00  0.00    -0.312 N 
ATOM      2  H   UNL     1      33.708 -24.830 -16.132  0.00  0.00    +0.152 HD
ENDROOT
BRANCH   1   5
ATOM      3  N   UNL     1      37.624 -22.864 -14.444  0.00  0.00    -0.244 NA
ATOM      4  C   UNL     1      36.019 -24.610 -14.872  0.00  0.00    +0.031 C 
ATOM      5  C   UNL     1      35.066 -23.641 -15.216  0.00  0.00    +0.051 C 
ATOM      6  C   UNL     1      37.303 -24.171 -14.488  0.00  0.00    +0.086 C 
ATOM      7  C   UNL     1      38.250 -25.133 -14.147  0.00  0.00    +0.089 C 
ATOM      8  C   UNL     1      35.718 -25.982 -14.906  0.00  0.00    +0.003 C 
ATOM      9  C   UNL     1      35.393 -22.294 -15.173  0.00  0.00    +0.035 C 
ATOM     10  C   UNL     1      37.952 -26.498 -14.179  0.00  0.00    +0.005 C 
ATOM     11  C   UNL     1      36.684 -26.923 -14.559  0.00  0.00    +0.000 C 
ATOM     12  C   UNL     1      36.675 -21.961 -14.783  0.00  0.00    +0.100 C 
BRANCH   7  16
ATOM     13  F   UNL     1      39.643 -23.873 -12.665  0.00  0.00    -0.166 F 
ATOM     14  F   UNL     1      40.417 -25.775 -13.364  0.00  0.00    -0.166 F 
ATOM     15  F   UNL     1      40.304 -24.084 -14.726  0.00  0.00    -0.166 F 
ATOM     16  C   UNL     1      39.629 -24.724 -13.730  0.00  0.00    +0.420 C 
ENDBRANCH   7  16
ENDBRANCH   1   5
BRANCH   1  17
ATOM     17  C   UNL     1      32.505 -23.384 -15.409  0.00  0.00    +0.055 C 
ATOM     18  C   UNL     1      31.860 -22.695 -16.441  0.00  0.00    +0.089 C 
ATOM     19  C   UNL     1      31.896 -23.469 -14.153  0.00  0.00    +0.015 C 
ATOM     20  C   UNL     1      30.619 -22.098 -16.220  0.00  0.00    +0.008 C 
ATOM     21  C   UNL     1      30.655 -22.871 -13.932  0.00  0.00    +0.001 C 
ATOM     22  C   UNL     1      30.017 -22.185 -14.964  0.00  0.00    +0.000 C 
BRANCH  18  24
ATOM     23  O   UNL     1      33.115 -23.484 -18.309  0.00  0.00    -0.245 OA
ATOM     24  C   UNL     1      32.463 -22.586 -17.765  0.00  0.00    +0.342 C 
BRANCH  24  25
ATOM     25  O   UNL     1      32.216 -21.365 -18.327  0.00  0.00    -0.443 OA
BRANCH  25  26
ATOM     26  C   UNL     1      32.585 -21.202 -19.700  0.00  0.00    +0.240 C 
BRANCH  26  27
ATOM     27  C   UNL     1      33.755 -20.233 -19.810  0.00  0.00    +0.184 C 
BRANCH  27  28
ATOM     28  O   UNL     1      33.656 -19.533 -21.052  0.00  0.00    -0.378 OA
ATOM     29  H   UNL     1      33.516 -20.169 -21.772  0.00  0.00    +0.211 HD
ENDBRANCH  27  28
BRANCH  27  30
ATOM     30  C   UNL     1      35.090 -20.965 -19.789  0.00  0.00    +0.170 C 
BRANCH  30  31
ATOM     31  O   UNL     1      35.382 -21.359 -18.452  0.00  0.00    -0.379 OA
ATOM     32  H   UNL     1      34.721 -22.003 -18.154  0.00  0.00    +0.211 HD
ENDBRANCH  30  31
ENDBRANCH  27  30
ENDBRANCH  26  27
ENDBRANCH  25  26
ENDBRANCH  24  25
ENDBRANCH  18  24
ENDBRANCH   1  17
TORSDOF 10
ENDMDL
MODEL 7
REMARK VINA RESULT:      -9.6      9.960     13.573
REMARK  Name = 3360
REMARK  10 active torsions:
REMARK  status: ('A' for Active; 'I' for Inactive)
REMARK    1  A    between atoms: N_1  and  C_5
REMARK    2  A    between atoms: N_1  and  C_17
REMARK    3  A    between atoms: C_7  and  C_16
REMARK    4  A    between atoms: C_18  and  C_24
REMARK    5  A    between atoms: C_24  and  O_25
REMARK    6  A    between atoms: O_25  and  C_26
REMARK    7  A    between atoms: C_26  and  C_27
REMARK    8  A    between atoms: C_27  and  O_28
REMARK    9  A    between atoms: C_27  and  C_30
REMARK   10  A    between atoms: C_30  and  O_31
REMARK                            x       y       z     vdW  Elec       q    Type
REMARK                         _______ _______ _______ _____ _____    ______ ____
ROOT
ATOM      1  N   UNL     1      32.371 -11.264 -23.357  0.00  0.00    -0.312 N 
ATOM      2  H   UNL     1      31.469 -11.245 -22.963  0.00  0.00    +0.152 HD
ENDROOT
BRANCH   1   5
ATOM      3  N   UNL     1      33.595 -15.067 -24.644  0.00  0.00    -0.244 NA
ATOM      4  C   UNL     1      33.267 -13.498 -22.844  0.00  0.00    +0.031 C 
ATOM      5  C   UNL     1      32.789 -12.553 -23.763  0.00  0.00    +0.051 C 
ATOM      6  C   UNL     1      33.663 -14.759 -23.335  0.00  0.00    +0.086 C 
ATOM      7  C   UNL     1      34.136 -15.698 -22.422  0.00  0.00    +0.089 C 
ATOM      8  C   UNL     1      33.351 -13.212 -21.472  0.00  0.00    +0.003 C 
ATOM      9  C   UNL     1      32.718 -12.866 -25.113  0.00  0.00    +0.035 C 
ATOM     10  C   UNL     1      34.221 -15.414 -21.057  0.00  0.00    +0.005 C 
ATOM     11  C   UNL     1      33.828 -14.169 -20.580  0.00  0.00    +0.000 C 
ATOM     12  C   UNL     1      33.130 -14.126 -25.498  0.00  0.00    +0.100 C 
BRANCH   7  16
ATOM     13  F   UNL     1      33.836 -18.071 -22.355  0.00  0.00    -0.166 F 
ATOM     14  F   UNL     1      34.487 -17.214 -24.238  0.00  0.00    -0.166 F 
ATOM     15  F   UNL     1      35.867 -17.323 -22.562  0.00  0.00    -0.166 F 
ATOM     16  C   UNL     1      34.572 -17.054 -22.887  0.00  0.00    +0.420 C 
ENDBRANCH   7  16
ENDBRANCH   1   5
BRANCH   1  17
ATOM     17  C   UNL     1      32.994 -10.005 -23.407  0.00  0.00    +0.055 C 
ATOM     18  C   UNL     1      32.338  -8.855 -22.958  0.00  0.00    +0.089 C 
ATOM     19  C   UNL     1      34.294  -9.903 -23.913  0.00  0.00    +0.015 C 
ATOM     20  C   UNL     1      32.974  -7.615 -23.014  0.00  0.00    +0.008 C 
ATOM     21  C   UNL     1      34.930  -8.662 -23.970  0.00  0.00    +0.001 C 
ATOM     22  C   UNL     1      34.271  -7.519 -23.521  0.00  0.00    +0.000 C 
BRANCH  18  24
ATOM     23  O   UNL     1      30.046  -8.215 -22.806  0.00  0.00    -0.245 OA
ATOM     24  C   UNL     1      30.983  -8.922 -22.422  0.00  0.00    +0.342 C 
BRANCH  24  25
ATOM     25  O   UNL     1      30.882  -9.868 -21.440  0.00  0.00    -0.443 OA
BRANCH  25  26
ATOM     26  C   UNL     1      30.595  -9.397 -20.119  0.00  0.00    +0.240 C 
BRANCH  26  27
ATOM     27  C   UNL     1      31.812  -8.678 -19.550  0.00  0.00    +0.184 C 
BRANCH  27  28
ATOM     28  O   UNL     1      32.042  -9.147 -18.220  0.00  0.00    -0.378 OA
ATOM     29  H   UNL     1      32.582  -9.953 -18.250  0.00  0.00    +0.211 HD
ENDBRANCH  27  28
BRANCH  27  30
ATOM     30  C   UNL     1      31.591  -7.172 -19.485  0.00  0.00    +0.170 C 
BRANCH  30  31
ATOM     31  O   UNL     1      32.855  -6.518 -19.488  0.00  0.00    -0.379 OA
ATOM     32  H   UNL     1      33.013  -6.115 -18.620  0.00  0.00    +0.211 HD
ENDBRANCH  30  31
ENDBRANCH  27  30
ENDBRANCH  26  27
ENDBRANCH  25  26
ENDBRANCH  24  25
ENDBRANCH  18  24
ENDBRANCH   1  17
TORSDOF 10
ENDMDL
MODEL 8
REMARK VINA RESULT:      -9.5      9.517     12.840
REMARK  Name = 3360
REMARK  10 active torsions:
REMARK  status: ('A' for Active; 'I' for Inactive)
REMARK    1  A    between atoms: N_1  and  C_5
REMARK    2  A    between atoms: N_1  and  C_17
REMARK    3  A    between atoms: C_7  and  C_16
REMARK    4  A    between atoms: C_18  and  C_24
REMARK    5  A    between atoms: C_24  and  O_25
REMARK    6  A    between atoms: O_25  and  C_26
REMARK    7  A    between atoms: C_26  and  C_27
REMARK    8  A    between atoms: C_27  and  O_28
REMARK    9  A    between atoms: C_27  and  C_30
REMARK   10  A    between atoms: C_30  and  O_31
REMARK                            x       y       z     vdW  Elec       q    Type
REMARK                         _______ _______ _______ _____ _____    ______ ____
ROOT
ATOM      1  N   UNL     1      33.230 -11.866 -22.551  0.00  0.00    -0.312 N 
ATOM      2  H   UNL     1      34.023 -11.933 -21.971  0.00  0.00    +0.152 HD
ENDROOT
BRANCH   1   5
ATOM      3  N   UNL     1      30.610  -8.759 -21.500  0.00  0.00    -0.244 NA
ATOM      4  C   UNL     1      32.649  -9.475 -22.568  0.00  0.00    +0.031 C 
ATOM      5  C   UNL     1      32.364 -10.800 -22.211  0.00  0.00    +0.051 C 
ATOM      6  C   UNL     1      31.732  -8.473 -22.188  0.00  0.00    +0.086 C 
ATOM      7  C   UNL     1      32.014  -7.157 -22.545  0.00  0.00    +0.089 C 
ATOM      8  C   UNL     1      33.809  -9.140 -23.286  0.00  0.00    +0.003 C 
ATOM      9  C   UNL     1      31.210 -11.099 -21.502  0.00  0.00    +0.035 C 
ATOM     10  C   UNL     1      33.168  -6.823 -23.258  0.00  0.00    +0.005 C 
ATOM     11  C   UNL     1      34.067  -7.815 -23.630  0.00  0.00    +0.000 C 
ATOM     12  C   UNL     1      30.374 -10.051 -21.173  0.00  0.00    +0.100 C 
BRANCH   7  16
ATOM     13  F   UNL     1      29.830  -6.194 -22.701  0.00  0.00    -0.166 F 
ATOM     14  F   UNL     1      30.884  -5.943 -20.822  0.00  0.00    -0.166 F 
ATOM     15  F   UNL     1      31.520  -4.831 -22.578  0.00  0.00    -0.166 F 
ATOM     16  C   UNL     1      31.076  -6.052 -22.167  0.00  0.00    +0.420 C 
ENDBRANCH   7  16
ENDBRANCH   1   5
BRANCH   1  17
ATOM     17  C   UNL     1      33.180 -12.845 -23.557  0.00  0.00    +0.055 C 
ATOM     18  C   UNL     1      33.494 -14.180 -23.284  0.00  0.00    +0.089 C 
ATOM     19  C   UNL     1      32.807 -12.478 -24.854  0.00  0.00    +0.015 C 
ATOM     20  C   UNL     1      33.435 -15.138 -24.296  0.00  0.00    +0.008 C 
ATOM     21  C   UNL     1      32.749 -13.436 -25.867  0.00  0.00    +0.001 C 
ATOM     22  C   UNL     1      33.063 -14.765 -25.588  0.00  0.00    +0.000 C 
BRANCH  18  24
ATOM     23  O   UNL     1      33.424 -14.126 -20.901  0.00  0.00    -0.245 OA
ATOM     24  C   UNL     1      33.886 -14.602 -21.944  0.00  0.00    +0.342 C 
BRANCH  24  25
ATOM     25  O   UNL     1      34.828 -15.590 -21.988  0.00  0.00    -0.443 OA
BRANCH  25  26
ATOM     26  C   UNL     1      34.621 -16.716 -21.128  0.00  0.00    +0.240 C 
BRANCH  26  27
ATOM     27  C   UNL     1      35.011 -17.999 -21.851  0.00  0.00    +0.184 C 
BRANCH  27  28
ATOM     28  O   UNL     1      34.361 -19.101 -21.213  0.00  0.00    -0.378 OA
ATOM     29  H   UNL     1      34.229 -18.899 -20.273  0.00  0.00    +0.211 HD
ENDBRANCH  27  28
BRANCH  27  30
ATOM     30  C   UNL     1      36.513 -18.241 -21.789  0.00  0.00    +0.170 C 
BRANCH  30  31
ATOM     31  O   UNL     1      36.920 -18.279 -20.426  0.00  0.00    -0.379 OA
ATOM     32  H   UNL     1      37.434 -17.483 -20.219  0.00  0.00    +0.211 HD
ENDBRANCH  30  31
ENDBRANCH  27  30
ENDBRANCH  26  27
ENDBRANCH  25  26
ENDBRANCH  24  25
ENDBRANCH  18  24
ENDBRANCH   1  17
TORSDOF 10
ENDMDL
MODEL 9
REMARK VINA RESULT:      -9.5      9.590     13.235
REMARK  Name = 3360
REMARK  10 active torsions:
REMARK  status: ('A' for Active; 'I' for Inactive)
REMARK    1  A    between atoms: N_1  and  C_5
REMARK    2  A    between atoms: N_1  and  C_17
REMARK    3  A    between atoms: C_7  and  C_16
REMARK    4  A    between atoms: C_18  and  C_24
REMARK    5  A    between atoms: C_24  and  O_25
REMARK    6  A    between atoms: O_25  and  C_26
REMARK    7  A    between atoms: C_26  and  C_27
REMARK    8  A    between atoms: C_27  and  O_28
REMARK    9  A    between atoms: C_27  and  C_30
REMARK   10  A    between atoms: C_30  and  O_31
REMARK                            x       y       z     vdW  Elec       q    Type
REMARK                         _______ _______ _______ _____ _____    ______ ____
ROOT
ATOM      1  N   UNL     1      32.619 -11.557 -23.128  0.00  0.00    -0.312 N 
ATOM      2  H   UNL     1      31.786 -11.750 -23.616  0.00  0.00    +0.152 HD
ENDROOT
BRANCH   1   5
ATOM      3  N   UNL     1      34.145 -14.808 -20.955  0.00  0.00    -0.244 NA
ATOM      4  C   UNL     1      33.435 -13.878 -23.062  0.00  0.00    +0.031 C 
ATOM      5  C   UNL     1      33.136 -12.668 -22.420  0.00  0.00    +0.051 C 
ATOM      6  C   UNL     1      33.945 -14.935 -22.281  0.00  0.00    +0.086 C 
ATOM      7  C   UNL     1      34.243 -16.137 -22.919  0.00  0.00    +0.089 C 
ATOM      8  C   UNL     1      33.239 -14.045 -24.443  0.00  0.00    +0.003 C 
ATOM      9  C   UNL     1      33.341 -12.533 -21.055  0.00  0.00    +0.035 C 
ATOM     10  C   UNL     1      34.047 -16.305 -24.292  0.00  0.00    +0.005 C 
ATOM     11  C   UNL     1      33.545 -15.258 -25.056  0.00  0.00    +0.000 C 
ATOM     12  C   UNL     1      33.842 -13.624 -20.374  0.00  0.00    +0.100 C 
BRANCH   7  16
ATOM     13  F   UNL     1      34.352 -18.504 -22.592  0.00  0.00    -0.166 F 
ATOM     14  F   UNL     1      36.148 -17.367 -22.160  0.00  0.00    -0.166 F 
ATOM     15  F   UNL     1      34.438 -17.242 -20.823  0.00  0.00    -0.166 F 
ATOM     16  C   UNL     1      34.787 -17.293 -22.139  0.00  0.00    +0.420 C 
ENDBRANCH   7  16
ENDBRANCH   1   5
BRANCH   1  17
ATOM     17  C   UNL     1      33.066 -10.232 -23.271  0.00  0.00    +0.055 C 
ATOM     18  C   UNL     1      32.256  -9.152 -22.905  0.00  0.00    +0.089 C 
ATOM     19  C   UNL     1      34.343  -9.991 -23.787  0.00  0.00    +0.015 C 
ATOM     20  C   UNL     1      32.719  -7.845 -23.053  0.00  0.00    +0.008 C 
ATOM     21  C   UNL     1      34.805  -8.683 -23.936  0.00  0.00    +0.001 C 
ATOM     22  C   UNL     1      33.994  -7.610 -23.569  0.00  0.00    +0.000 C 
BRANCH  18  24
ATOM     23  O   UNL     1      29.892  -8.853 -22.820  0.00  0.00    -0.245 OA
ATOM     24  C   UNL     1      30.920  -9.364 -22.362  0.00  0.00    +0.342 C 
BRANCH  24  25
ATOM     25  O   UNL     1      30.947 -10.202 -21.282  0.00  0.00    -0.443 OA
BRANCH  25  26
ATOM     26  C   UNL     1      30.631  -9.624 -20.011  0.00  0.00    +0.240 C 
BRANCH  26  27
ATOM     27  C   UNL     1      31.830  -8.848 -19.481  0.00  0.00    +0.184 C 
BRANCH  27  28
ATOM     28  O   UNL     1      32.061  -9.230 -18.124  0.00  0.00    -0.378 OA
ATOM     29  H   UNL     1      32.844  -8.766 -17.785  0.00  0.00    +0.211 HD
ENDBRANCH  27  28
BRANCH  27  30
ATOM     30  C   UNL     1      31.580  -7.346 -19.510  0.00  0.00    +0.170 C 
BRANCH  30  31
ATOM     31  O   UNL     1      32.831  -6.669 -19.580  0.00  0.00    -0.379 OA
ATOM     32  H   UNL     1      33.024  -6.257 -18.724  0.00  0.00    +0.211 HD
ENDBRANCH  30  31
ENDBRANCH  27  30
ENDBRANCH  26  27
ENDBRANCH  25  26
ENDBRANCH  24  25
ENDBRANCH  18  24
ENDBRANCH   1  17
TORSDOF 10
ENDMDL
