MODEL 1
REMARK VINA RESULT:     -13.0      0.000      0.000
REMARK  Name = 5312137
REMARK  3 active torsions:
REMARK  status: ('A' for Active; 'I' for Inactive)
REMARK    1  A    between atoms: C_3  and  C_20
REMARK    2  A    between atoms: C_7  and  S_23
REMARK    3  A    between atoms: S_23  and  N_26
REMARK                            x       y       z     vdW  Elec       q    Type
REMARK                         _______ _______ _______ _____ _____    ______ ____
ROOT
ATOM      1  O   UNL     1      32.251 -20.623 -20.267  0.00  0.00    -0.270 OA
ATOM      2  N   UNL     1      32.360 -21.968 -18.328  0.00  0.00    -0.280 N 
ATOM      3  C   UNL     1      35.129 -20.132 -19.686  0.00  0.00    +0.019 C 
ATOM      4  C   UNL     1      34.286 -20.910 -18.964  0.00  0.00    +0.056 C 
ATOM      5  C   UNL     1      34.568 -21.680 -17.758  0.00  0.00    +0.019 C 
ATOM      6  C   UNL     1      33.365 -22.302 -17.414  0.00  0.00    +0.051 C 
ATOM      7  C   UNL     1      35.605 -22.697 -15.869  0.00  0.00    +0.122 C 
ATOM      8  C   UNL     1      35.703 -21.867 -16.992  0.00  0.00    +0.021 C 
ATOM      9  C   UNL     1      32.842 -21.110 -19.321  0.00  0.00    +0.250 C 
ATOM     10  C   UNL     1      33.246 -23.124 -16.311  0.00  0.00    +0.016 C 
ATOM     11  C   UNL     1      34.388 -23.319 -15.532  0.00  0.00    +0.021 C 
ATOM     12  H   UNL     1      31.432 -22.295 -18.279  0.00  0.00    +0.155 HD
ENDROOT
BRANCH   3  20
ATOM     13  N   UNL     1      34.927 -18.051 -20.822  0.00  0.00    -0.316 N 
ATOM     14  C   UNL     1      34.549 -17.545 -22.035  0.00  0.00    +0.021 C 
ATOM     15  C   UNL     1      34.159 -18.594 -22.842  0.00  0.00    -0.012 C 
ATOM     16  C   UNL     1      34.533 -16.103 -22.395  0.00  0.00    +0.041 C 
ATOM     17  C   UNL     1      33.701 -18.396 -24.244  0.00  0.00    +0.027 C 
ATOM     18  C   UNL     1      34.388 -15.953 -23.922  0.00  0.00    +0.006 C 
ATOM     19  C   UNL     1      33.340 -16.920 -24.507  0.00  0.00    +0.005 C 
ATOM     20  C   UNL     1      34.789 -19.416 -20.844  0.00  0.00    +0.048 C 
ATOM     21  C   UNL     1      34.315 -19.781 -22.087  0.00  0.00    +0.011 C 
ATOM     22  H   UNL     1      35.247 -17.520 -20.057  0.00  0.00    +0.152 HD
ENDBRANCH   3  20
BRANCH   7  23
ATOM     23  S   UNL     1      37.014 -22.964 -14.869  0.00  0.00    +0.063 S 
ATOM     24  O   UNL     1      38.198 -22.851 -15.715  0.00  0.00    -0.153 OA
ATOM     25  O   UNL     1      36.910 -22.102 -13.698  0.00  0.00    -0.153 OA
BRANCH  23  26
ATOM     26  N   UNL     1      36.842 -24.611 -14.369  0.00  0.00    -0.153 NA
ATOM     27  C   UNL     1      37.946 -25.548 -14.699  0.00  0.00    +0.115 C 
ATOM     28  C   UNL     1      36.284 -24.863 -13.016  0.00  0.00    +0.115 C 
ENDBRANCH  23  26
ENDBRANCH   7  23
TORSDOF 3
ENDMDL
MODEL 2
REMARK VINA RESULT:     -12.0      2.664      8.785
REMARK  Name = 5312137
REMARK  3 active torsions:
REMARK  status: ('A' for Active; 'I' for Inactive)
REMARK    1  A    between atoms: C_3  and  C_20
REMARK    2  A    between atoms: C_7  and  S_23
REMARK    3  A    between atoms: S_23  and  N_26
REMARK                            x       y       z     vdW  Elec       q    Type
REMARK                         _______ _______ _______ _____ _____    ______ ____
ROOT
ATOM      1  O   UNL     1      34.019 -23.183 -16.067  0.00  0.00    -0.270 OA
ATOM      2  N   UNL     1      33.058 -22.177 -17.976  0.00  0.00    -0.280 N 
ATOM      3  C   UNL     1      36.447 -21.680 -16.905  0.00  0.00    +0.019 C 
ATOM      4  C   UNL     1      35.247 -21.678 -17.533  0.00  0.00    +0.056 C 
ATOM      5  C   UNL     1      34.854 -20.962 -18.742  0.00  0.00    +0.019 C 
ATOM      6  C   UNL     1      33.516 -21.300 -18.966  0.00  0.00    +0.051 C 
ATOM      7  C   UNL     1      34.808 -19.590 -20.689  0.00  0.00    +0.122 C 
ATOM      8  C   UNL     1      35.518 -20.105 -19.598  0.00  0.00    +0.021 C 
ATOM      9  C   UNL     1      34.064 -22.465 -17.049  0.00  0.00    +0.250 C 
ATOM     10  C   UNL     1      32.798 -20.805 -20.036  0.00  0.00    +0.016 C 
ATOM     11  C   UNL     1      33.461 -19.937 -20.906  0.00  0.00    +0.021 C 
ATOM     12  H   UNL     1      32.145 -22.544 -17.938  0.00  0.00    +0.155 HD
ENDROOT
BRANCH   3  20
ATOM     13  N   UNL     1      36.103 -22.059 -14.580  0.00  0.00    -0.316 N 
ATOM     14  C   UNL     1      36.541 -22.869 -13.569  0.00  0.00    +0.021 C 
ATOM     15  C   UNL     1      37.490 -23.731 -14.080  0.00  0.00    -0.012 C 
ATOM     16  C   UNL     1      36.088 -22.796 -12.156  0.00  0.00    +0.041 C 
ATOM     17  C   UNL     1      38.165 -24.763 -13.247  0.00  0.00    +0.027 C 
ATOM     18  C   UNL     1      36.533 -24.065 -11.403  0.00  0.00    +0.006 C 
ATOM     19  C   UNL     1      37.981 -24.469 -11.744  0.00  0.00    +0.005 C 
ATOM     20  C   UNL     1      36.758 -22.396 -15.739  0.00  0.00    +0.048 C 
ATOM     21  C   UNL     1      37.624 -23.433 -15.458  0.00  0.00    +0.011 C 
ATOM     22  H   UNL     1      35.427 -21.349 -14.491  0.00  0.00    +0.152 HD
ENDBRANCH   3  20
BRANCH   7  23
ATOM     23  S   UNL     1      35.606 -18.501 -21.800  0.00  0.00    +0.063 S 
ATOM     24  O   UNL     1      36.765 -17.931 -21.122  0.00  0.00    -0.153 OA
ATOM     25  O   UNL     1      35.812 -19.207 -23.058  0.00  0.00    -0.153 OA
BRANCH  23  26
ATOM     26  N   UNL     1      34.434 -17.252 -22.044  0.00  0.00    -0.153 NA
ATOM     27  C   UNL     1      34.450 -16.101 -21.105  0.00  0.00    +0.115 C 
ATOM     28  C   UNL     1      34.165 -16.826 -23.441  0.00  0.00    +0.115 C 
ENDBRANCH  23  26
ENDBRANCH   7  23
TORSDOF 3
ENDMDL
MODEL 3
REMARK VINA RESULT:     -11.7      2.635      8.808
REMARK  Name = 5312137
REMARK  3 active torsions:
REMARK  status: ('A' for Active; 'I' for Inactive)
REMARK    1  A    between atoms: C_3  and  C_20
REMARK    2  A    between atoms: C_7  and  S_23
REMARK    3  A    between atoms: S_23  and  N_26
REMARK                            x       y       z     vdW  Elec       q    Type
REMARK                         _______ _______ _______ _____ _____    ______ ____
ROOT
ATOM      1  O   UNL     1      34.215 -23.411 -16.328  0.00  0.00    -0.270 OA
ATOM      2  N   UNL     1      33.146 -22.346 -18.145  0.00  0.00    -0.280 N 
ATOM      3  C   UNL     1      36.447 -21.554 -16.981  0.00  0.00    +0.019 C 
ATOM      4  C   UNL     1      35.257 -21.635 -17.624  0.00  0.00    +0.056 C 
ATOM      5  C   UNL     1      34.784 -20.856 -18.763  0.00  0.00    +0.019 C 
ATOM      6  C   UNL     1      33.498 -21.328 -19.039  0.00  0.00    +0.051 C 
ATOM      7  C   UNL     1      34.580 -19.315 -20.569  0.00  0.00    +0.122 C 
ATOM      8  C   UNL     1      35.343 -19.846 -19.522  0.00  0.00    +0.021 C 
ATOM      9  C   UNL     1      34.176 -22.601 -17.235  0.00  0.00    +0.250 C 
ATOM     10  C   UNL     1      32.728 -20.820 -20.066  0.00  0.00    +0.016 C 
ATOM     11  C   UNL     1      33.285 -19.798 -20.838  0.00  0.00    +0.021 C 
ATOM     12  H   UNL     1      32.283 -22.822 -18.156  0.00  0.00    +0.155 HD
ENDROOT
BRANCH   3  20
ATOM     13  N   UNL     1      37.940 -23.145 -16.028  0.00  0.00    -0.316 N 
ATOM     14  C   UNL     1      38.153 -23.819 -14.859  0.00  0.00    +0.021 C 
ATOM     15  C   UNL     1      37.177 -23.449 -13.956  0.00  0.00    -0.012 C 
ATOM     16  C   UNL     1      39.237 -24.809 -14.626  0.00  0.00    +0.041 C 
ATOM     17  C   UNL     1      37.124 -23.987 -12.570  0.00  0.00    +0.027 C 
ATOM     18  C   UNL     1      39.367 -25.089 -13.116  0.00  0.00    +0.006 C 
ATOM     19  C   UNL     1      37.996 -25.251 -12.432  0.00  0.00    +0.005 C 
ATOM     20  C   UNL     1      36.838 -22.339 -15.885  0.00  0.00    +0.048 C 
ATOM     21  C   UNL     1      36.345 -22.506 -14.608  0.00  0.00    +0.011 C 
ATOM     22  H   UNL     1      38.488 -23.225 -16.842  0.00  0.00    +0.152 HD
ENDBRANCH   3  20
BRANCH   7  23
ATOM     23  S   UNL     1      35.244 -18.036 -21.558  0.00  0.00    +0.063 S 
ATOM     24  O   UNL     1      35.028 -16.770 -20.865  0.00  0.00    -0.153 OA
ATOM     25  O   UNL     1      36.605 -18.406 -21.925  0.00  0.00    -0.153 OA
BRANCH  23  26
ATOM     26  N   UNL     1      34.252 -18.071 -22.975  0.00  0.00    -0.153 NA
ATOM     27  C   UNL     1      34.104 -16.808 -23.741  0.00  0.00    +0.115 C 
ATOM     28  C   UNL     1      34.371 -19.252 -23.868  0.00  0.00    +0.115 C 
ENDBRANCH  23  26
ENDBRANCH   7  23
TORSDOF 3
ENDMDL
MODEL 4
REMARK VINA RESULT:     -11.6      8.229     13.231
REMARK  Name = 5312137
REMARK  3 active torsions:
REMARK  status: ('A' for Active; 'I' for Inactive)
REMARK    1  A    between atoms: C_3  and  C_20
REMARK    2  A    between atoms: C_7  and  S_23
REMARK    3  A    between atoms: S_23  and  N_26
REMARK                            x       y       z     vdW  Elec       q    Type
REMARK                         _______ _______ _______ _____ _____    ______ ____
ROOT
ATOM      1  O   UNL     1      31.613 -13.594 -21.300  0.00  0.00    -0.270 OA
ATOM      2  N   UNL     1      30.970 -11.341 -20.997  0.00  0.00    -0.280 N 
ATOM      3  C   UNL     1      33.499 -12.442 -23.294  0.00  0.00    +0.019 C 
ATOM      4  C   UNL     1      32.614 -11.751 -22.534  0.00  0.00    +0.056 C 
ATOM      5  C   UNL     1      32.371 -10.313 -22.502  0.00  0.00    +0.019 C 
ATOM      6  C   UNL     1      31.363 -10.119 -21.554  0.00  0.00    +0.051 C 
ATOM      7  C   UNL     1      32.425  -7.963 -22.891  0.00  0.00    +0.122 C 
ATOM      8  C   UNL     1      32.914  -9.241 -23.184  0.00  0.00    +0.021 C 
ATOM      9  C   UNL     1      31.692 -12.405 -21.547  0.00  0.00    +0.250 C 
ATOM     10  C   UNL     1      30.866  -8.868 -21.249  0.00  0.00    +0.016 C 
ATOM     11  C   UNL     1      31.410  -7.779 -21.933  0.00  0.00    +0.021 C 
ATOM     12  H   UNL     1      30.274 -11.440 -20.307  0.00  0.00    +0.155 HD
ENDROOT
BRANCH   3  20
ATOM     13  N   UNL     1      34.221 -14.396 -22.144  0.00  0.00    -0.316 N 
ATOM     14  C   UNL     1      34.314 -15.749 -22.321  0.00  0.00    +0.021 C 
ATOM     15  C   UNL     1      33.834 -16.058 -23.577  0.00  0.00    -0.012 C 
ATOM     16  C   UNL     1      34.873 -16.706 -21.331  0.00  0.00    +0.041 C 
ATOM     17  C   UNL     1      33.777 -17.454 -24.090  0.00  0.00    +0.027 C 
ATOM     18  C   UNL     1      34.497 -18.146 -21.734  0.00  0.00    +0.006 C 
ATOM     19  C   UNL     1      34.664 -18.392 -23.247  0.00  0.00    +0.005 C 
ATOM     20  C   UNL     1      33.681 -13.833 -23.273  0.00  0.00    +0.048 C 
ATOM     21  C   UNL     1      33.429 -14.842 -24.179  0.00  0.00    +0.011 C 
ATOM     22  H   UNL     1      34.498 -13.906 -21.336  0.00  0.00    +0.152 HD
ENDBRANCH   3  20
BRANCH   7  23
ATOM     23  S   UNL     1      33.081  -6.576 -23.727  0.00  0.00    +0.063 S 
ATOM     24  O   UNL     1      33.327  -5.528 -22.742  0.00  0.00    -0.153 OA
ATOM     25  O   UNL     1      34.193  -7.029 -24.555  0.00  0.00    -0.153 OA
BRANCH  23  26
ATOM     26  N   UNL     1      31.782  -6.079 -24.757  0.00  0.00    -0.153 NA
ATOM     27  C   UNL     1      30.882  -5.008 -24.258  0.00  0.00    +0.115 C 
ATOM     28  C   UNL     1      32.072  -5.933 -26.206  0.00  0.00    +0.115 C 
ENDBRANCH  23  26
ENDBRANCH   7  23
TORSDOF 3
ENDMDL
MODEL 5
REMARK VINA RESULT:     -11.3      8.211     13.131
REMARK  Name = 5312137
REMARK  3 active torsions:
REMARK  status: ('A' for Active; 'I' for Inactive)
REMARK    1  A    between atoms: C_3  and  C_20
REMARK    2  A    between atoms: C_7  and  S_23
REMARK    3  A    between atoms: S_23  and  N_26
REMARK                            x       y       z     vdW  Elec       q    Type
REMARK                         _______ _______ _______ _____ _____    ______ ____
ROOT
ATOM      1  O   UNL     1      32.117 -13.774 -20.816  0.00  0.00    -0.270 OA
ATOM      2  N   UNL     1      31.335 -11.569 -20.493  0.00  0.00    -0.280 N 
ATOM      3  C   UNL     1      33.174 -12.672 -23.371  0.00  0.00    +0.019 C 
ATOM      4  C   UNL     1      32.482 -11.988 -22.428  0.00  0.00    +0.056 C 
ATOM      5  C   UNL     1      32.093 -10.582 -22.426  0.00  0.00    +0.019 C 
ATOM      6  C   UNL     1      31.398 -10.381 -21.230  0.00  0.00    +0.051 C 
ATOM      7  C   UNL     1      31.753  -8.290 -22.981  0.00  0.00    +0.122 C 
ATOM      8  C   UNL     1      32.279  -9.543 -23.318  0.00  0.00    +0.021 C 
ATOM      9  C   UNL     1      31.979 -12.615 -21.160  0.00  0.00    +0.250 C 
ATOM     10  C   UNL     1      30.872  -9.154 -20.878  0.00  0.00    +0.016 C 
ATOM     11  C   UNL     1      31.055  -8.098 -21.773  0.00  0.00    +0.021 C 
ATOM     12  H   UNL     1      30.893 -11.657 -19.617  0.00  0.00    +0.155 HD
ENDROOT
BRANCH   3  20
ATOM     13  N   UNL     1      32.921 -14.890 -24.197  0.00  0.00    -0.316 N 
ATOM     14  C   UNL     1      33.385 -16.156 -23.974  0.00  0.00    +0.021 C 
ATOM     15  C   UNL     1      34.283 -16.113 -22.927  0.00  0.00    -0.012 C 
ATOM     16  C   UNL     1      32.958 -17.369 -24.718  0.00  0.00    +0.041 C 
ATOM     17  C   UNL     1      34.992 -17.325 -22.431  0.00  0.00    +0.027 C 
ATOM     18  C   UNL     1      33.934 -18.526 -24.427  0.00  0.00    +0.006 C 
ATOM     19  C   UNL     1      34.309 -18.612 -22.934  0.00  0.00    +0.005 C 
ATOM     20  C   UNL     1      33.516 -14.031 -23.307  0.00  0.00    +0.048 C 
ATOM     21  C   UNL     1      34.368 -14.764 -22.507  0.00  0.00    +0.011 C 
ATOM     22  H   UNL     1      32.265 -14.635 -24.886  0.00  0.00    +0.152 HD
ENDBRANCH   3  20
BRANCH   7  23
ATOM     23  S   UNL     1      31.963  -6.944 -24.076  0.00  0.00    +0.063 S 
ATOM     24  O   UNL     1      33.388  -6.805 -24.355  0.00  0.00    -0.153 OA
ATOM     25  O   UNL     1      31.048  -7.124 -25.197  0.00  0.00    -0.153 OA
BRANCH  23  26
ATOM     26  N   UNL     1      31.443  -5.584 -23.142  0.00  0.00    -0.153 NA
ATOM     27  C   UNL     1      32.480  -4.824 -22.399  0.00  0.00    +0.115 C 
ATOM     28  C   UNL     1      30.420  -4.690 -23.741  0.00  0.00    +0.115 C 
ENDBRANCH  23  26
ENDBRANCH   7  23
TORSDOF 3
ENDMDL
MODEL 6
REMARK VINA RESULT:     -11.3      5.548      8.976
REMARK  Name = 5312137
REMARK  3 active torsions:
REMARK  status: ('A' for Active; 'I' for Inactive)
REMARK    1  A    between atoms: C_3  and  C_20
REMARK    2  A    between atoms: C_7  and  S_23
REMARK    3  A    between atoms: S_23  and  N_26
REMARK                            x       y       z     vdW  Elec       q    Type
REMARK                         _______ _______ _______ _____ _____    ______ ____
ROOT
ATOM      1  O   UNL     1      32.210 -12.587 -25.131  0.00  0.00    -0.270 OA
ATOM      2  N   UNL     1      32.868 -14.849 -25.301  0.00  0.00    -0.280 N 
ATOM      3  C   UNL     1      33.451 -12.773 -22.432  0.00  0.00    +0.019 C 
ATOM      4  C   UNL     1      33.372 -13.768 -23.349  0.00  0.00    +0.056 C 
ATOM      5  C   UNL     1      33.861 -15.139 -23.248  0.00  0.00    +0.019 C 
ATOM      6  C   UNL     1      33.528 -15.751 -24.459  0.00  0.00    +0.051 C 
ATOM      7  C   UNL     1      34.842 -17.181 -22.512  0.00  0.00    +0.122 C 
ATOM      8  C   UNL     1      34.520 -15.843 -22.259  0.00  0.00    +0.021 C 
ATOM      9  C   UNL     1      32.728 -13.597 -24.694  0.00  0.00    +0.250 C 
ATOM     10  C   UNL     1      33.836 -17.069 -24.731  0.00  0.00    +0.016 C 
ATOM     11  C   UNL     1      34.503 -17.788 -23.736  0.00  0.00    +0.021 C 
ATOM     12  H   UNL     1      32.544 -15.068 -26.205  0.00  0.00    +0.155 HD
ENDROOT
BRANCH   3  20
ATOM     13  N   UNL     1      33.794 -10.526 -23.139  0.00  0.00    -0.316 N 
ATOM     14  C   UNL     1      33.129  -9.334 -23.217  0.00  0.00    +0.021 C 
ATOM     15  C   UNL     1      31.855  -9.511 -22.716  0.00  0.00    -0.012 C 
ATOM     16  C   UNL     1      33.707  -8.063 -23.726  0.00  0.00    +0.041 C 
ATOM     17  C   UNL     1      30.855  -8.410 -22.668  0.00  0.00    +0.027 C 
ATOM     18  C   UNL     1      32.577  -7.046 -23.980  0.00  0.00    +0.006 C 
ATOM     19  C   UNL     1      31.533  -7.036 -22.846  0.00  0.00    +0.005 C 
ATOM     20  C   UNL     1      32.957 -11.470 -22.597  0.00  0.00    +0.048 C 
ATOM     21  C   UNL     1      31.746 -10.868 -22.326  0.00  0.00    +0.011 C 
ATOM     22  H   UNL     1      34.723 -10.682 -23.426  0.00  0.00    +0.152 HD
ENDBRANCH   3  20
BRANCH   7  23
ATOM     23  S   UNL     1      35.677 -18.114 -21.292  0.00  0.00    +0.063 S 
ATOM     24  O   UNL     1      36.988 -18.478 -21.817  0.00  0.00    -0.153 OA
ATOM     25  O   UNL     1      35.610 -17.378 -20.035  0.00  0.00    -0.153 OA
BRANCH  23  26
ATOM     26  N   UNL     1      34.714 -19.545 -21.155  0.00  0.00    -0.153 NA
ATOM     27  C   UNL     1      35.177 -20.597 -20.215  0.00  0.00    +0.115 C 
ATOM     28  C   UNL     1      33.238 -19.379 -21.121  0.00  0.00    +0.115 C 
ENDBRANCH  23  26
ENDBRANCH   7  23
TORSDOF 3
ENDMDL
MODEL 7
REMARK VINA RESULT:     -11.1      1.855      2.864
REMARK  Name = 5312137
REMARK  3 active torsions:
REMARK  status: ('A' for Active; 'I' for Inactive)
REMARK    1  A    between atoms: C_3  and  C_20
REMARK    2  A    between atoms: C_7  and  S_23
REMARK    3  A    between atoms: S_23  and  N_26
REMARK                            x       y       z     vdW  Elec       q    Type
REMARK                         _______ _______ _______ _____ _____    ______ ____
ROOT
ATOM      1  O   UNL     1      32.818 -21.865 -17.915  0.00  0.00    -0.270 OA
ATOM      2  N   UNL     1      32.832 -23.107 -15.905  0.00  0.00    -0.280 N 
ATOM      3  C   UNL     1      35.742 -21.632 -17.403  0.00  0.00    +0.019 C 
ATOM      4  C   UNL     1      34.841 -22.283 -16.627  0.00  0.00    +0.056 C 
ATOM      5  C   UNL     1      35.070 -23.010 -15.384  0.00  0.00    +0.019 C 
ATOM      6  C   UNL     1      33.818 -23.490 -14.988  0.00  0.00    +0.051 C 
ATOM      7  C   UNL     1      36.039 -24.021 -13.456  0.00  0.00    +0.122 C 
ATOM      8  C   UNL     1      36.196 -23.267 -14.625  0.00  0.00    +0.021 C 
ATOM      9  C   UNL     1      33.377 -22.356 -16.951  0.00  0.00    +0.250 C 
ATOM     10  C   UNL     1      33.641 -24.235 -13.840  0.00  0.00    +0.016 C 
ATOM     11  C   UNL     1      34.774 -24.500 -13.068  0.00  0.00    +0.021 C 
ATOM     12  H   UNL     1      31.878 -23.337 -15.824  0.00  0.00    +0.155 HD
ENDROOT
BRANCH   3  20
ATOM     13  N   UNL     1      36.339 -19.996 -19.026  0.00  0.00    -0.316 N 
ATOM     14  C   UNL     1      35.878 -19.454 -20.193  0.00  0.00    +0.021 C 
ATOM     15  C   UNL     1      34.680 -20.059 -20.513  0.00  0.00    -0.012 C 
ATOM     16  C   UNL     1      36.549 -18.371 -20.958  0.00  0.00    +0.041 C 
ATOM     17  C   UNL     1      33.911 -19.713 -21.739  0.00  0.00    +0.027 C 
ATOM     18  C   UNL     1      35.929 -18.270 -22.366  0.00  0.00    +0.006 C 
ATOM     19  C   UNL     1      34.391 -18.375 -22.336  0.00  0.00    +0.005 C 
ATOM     20  C   UNL     1      35.450 -20.949 -18.594  0.00  0.00    +0.048 C 
ATOM     21  C   UNL     1      34.411 -21.011 -19.499  0.00  0.00    +0.011 C 
ATOM     22  H   UNL     1      37.174 -19.743 -18.569  0.00  0.00    +0.152 HD
ENDBRANCH   3  20
BRANCH   7  23
ATOM     23  S   UNL     1      37.435 -24.373 -12.464  0.00  0.00    +0.063 S 
ATOM     24  O   UNL     1      38.251 -23.166 -12.387  0.00  0.00    -0.153 OA
ATOM     25  O   UNL     1      36.968 -24.979 -11.223  0.00  0.00    -0.153 OA
BRANCH  23  26
ATOM     26  N   UNL     1      38.288 -25.565 -13.384  0.00  0.00    -0.153 NA
ATOM     27  C   UNL     1      37.481 -26.533 -14.169  0.00  0.00    +0.115 C 
ATOM     28  C   UNL     1      39.502 -25.126 -14.118  0.00  0.00    +0.115 C 
ENDBRANCH  23  26
ENDBRANCH   7  23
TORSDOF 3
ENDMDL
