MODEL 1
REMARK VINA RESULT:     -11.4      0.000      0.000
REMARK  Name = 11223423
REMARK  3 active torsions:
REMARK  status: ('A' for Active; 'I' for Inactive)
REMARK    1  A    between atoms: N_1  and  C_23
REMARK    2  A    between atoms: C_7  and  N_12
REMARK    3  A    between atoms: C_29  and  O_30
REMARK                            x       y       z     vdW  Elec       q    Type
REMARK                         _______ _______ _______ _____ _____    ______ ____
ROOT
ATOM      1  N   UNL     1      32.843 -12.896 -21.571  0.00  0.00    -0.263 N 
ATOM      2  N   UNL     1      33.047 -13.928 -23.830  0.00  0.00    -0.395 NA
ATOM      3  C   UNL     1      33.756 -14.795 -20.349  0.00  0.00    +0.053 C 
ATOM      4  C   UNL     1      33.747 -15.027 -21.816  0.00  0.00    +0.035 C 
ATOM      5  C   UNL     1      33.420 -13.298 -20.274  0.00  0.00    +0.103 C 
ATOM      6  C   UNL     1      33.191 -13.941 -22.490  0.00  0.00    +0.183 C 
ATOM      7  C   UNL     1      34.162 -16.151 -22.509  0.00  0.00    +0.058 C 
ATOM      8  C   UNL     1      34.021 -16.153 -23.890  0.00  0.00    +0.097 C 
ATOM      9  C   UNL     1      33.466 -15.033 -24.496  0.00  0.00    +0.094 C 
ATOM     10  C   UNL     1      33.303 -15.014 -25.980  0.00  0.00    +0.062 C 
ENDROOT
BRANCH   7  12
ATOM     11  O   UNL     1      31.958 -20.016 -20.121  0.00  0.00    -0.252 OA
ATOM     12  N   UNL     1      34.697 -17.245 -21.859  0.00  0.00    -0.191 N 
ATOM     13  N   UNL     1      34.349 -20.207 -20.071  0.00  0.00    -0.225 N 
ATOM     14  N   UNL     1      33.898 -18.172 -21.288  0.00  0.00    -0.159 NA
ATOM     15  N   UNL     1      33.039 -21.802 -19.113  0.00  0.00    -0.287 N 
ATOM     16  C   UNL     1      34.759 -19.053 -20.772  0.00  0.00    +0.158 C 
ATOM     17  C   UNL     1      35.251 -21.151 -19.424  0.00  0.00    +0.122 C 
ATOM     18  C   UNL     1      36.031 -17.525 -21.712  0.00  0.00    +0.092 C 
ATOM     19  C   UNL     1      34.375 -22.300 -18.966  0.00  0.00    +0.113 C 
ATOM     20  C   UNL     1      36.101 -18.700 -21.005  0.00  0.00    +0.054 C 
ATOM     21  C   UNL     1      32.999 -20.587 -19.821  0.00  0.00    +0.309 C 
ATOM     22  H   UNL     1      32.242 -22.259 -18.760  0.00  0.00    +0.151 HD
ENDBRANCH   7  12
BRANCH   1  23
ATOM     23  C   UNL     1      32.241 -11.651 -21.772  0.00  0.00    +0.050 C 
ATOM     24  C   UNL     1      32.640 -10.780 -22.815  0.00  0.00    -0.005 C 
ATOM     25  C   UNL     1      31.195 -11.210 -20.927  0.00  0.00    +0.018 C 
ATOM     26  C   UNL     1      32.028  -9.540 -23.001  0.00  0.00    +0.034 C 
ATOM     27  C   UNL     1      33.739 -11.189 -23.741  0.00  0.00    +0.032 C 
ATOM     28  C   UNL     1      30.583  -9.971 -21.113  0.00  0.00    +0.038 C 
ATOM     29  C   UNL     1      31.000  -9.136 -22.150  0.00  0.00    +0.139 C 
BRANCH  29  30
ATOM     30  O   UNL     1      30.402  -7.927 -22.331  0.00  0.00    -0.471 OA
ATOM     31  C   UNL     1      31.168  -6.768 -22.008  0.00  0.00    +0.252 C 
ENDBRANCH  29  30
ENDBRANCH   1  23
TORSDOF 3
ENDMDL
MODEL 2
REMARK VINA RESULT:     -10.5      2.574      5.648
REMARK  Name = 11223423
REMARK  3 active torsions:
REMARK  status: ('A' for Active; 'I' for Inactive)
REMARK    1  A    between atoms: N_1  and  C_23
REMARK    2  A    between atoms: C_7  and  N_12
REMARK    3  A    between atoms: C_29  and  O_30
REMARK                            x       y       z     vdW  Elec       q    Type
REMARK                         _______ _______ _______ _____ _____    ______ ____
ROOT
ATOM      1  N   UNL     1      31.730  -7.945 -22.837  0.00  0.00    -0.263 N 
ATOM      2  N   UNL     1      31.436  -9.010 -20.604  0.00  0.00    -0.395 NA
ATOM      3  C   UNL     1      32.515  -9.954 -23.968  0.00  0.00    +0.053 C 
ATOM      4  C   UNL     1      32.181 -10.209 -22.542  0.00  0.00    +0.035 C 
ATOM      5  C   UNL     1      31.940  -8.544 -24.169  0.00  0.00    +0.103 C 
ATOM      6  C   UNL     1      31.766  -9.038 -21.910  0.00  0.00    +0.183 C 
ATOM      7  C   UNL     1      32.284 -11.394 -21.837  0.00  0.00    +0.058 C 
ATOM      8  C   UNL     1      31.947 -11.382 -20.490  0.00  0.00    +0.097 C 
ATOM      9  C   UNL     1      31.534 -10.181 -19.928  0.00  0.00    +0.094 C 
ATOM     10  C   UNL     1      31.168 -10.144 -18.481  0.00  0.00    +0.062 C 
ENDROOT
BRANCH   7  12
ATOM     11  O   UNL     1      34.260 -15.617 -19.898  0.00  0.00    -0.252 OA
ATOM     12  N   UNL     1      32.712 -12.561 -22.440  0.00  0.00    -0.191 N 
ATOM     13  N   UNL     1      34.064 -15.761 -22.284  0.00  0.00    -0.225 N 
ATOM     14  N   UNL     1      33.209 -13.579 -21.705  0.00  0.00    -0.159 NA
ATOM     15  N   UNL     1      34.889 -17.508 -21.082  0.00  0.00    -0.287 N 
ATOM     16  C   UNL     1      33.508 -14.507 -22.617  0.00  0.00    +0.158 C 
ATOM     17  C   UNL     1      34.478 -16.770 -23.250  0.00  0.00    +0.122 C 
ATOM     18  C   UNL     1      32.694 -12.831 -23.784  0.00  0.00    +0.092 C 
ATOM     19  C   UNL     1      34.838 -17.993 -22.430  0.00  0.00    +0.113 C 
ATOM     20  C   UNL     1      33.209 -14.095 -23.929  0.00  0.00    +0.054 C 
ATOM     21  C   UNL     1      34.377 -16.203 -20.966  0.00  0.00    +0.309 C 
ATOM     22  H   UNL     1      35.242 -18.030 -20.325  0.00  0.00    +0.151 HD
ENDBRANCH   7  12
BRANCH   1  23
ATOM     23  C   UNL     1      31.411  -6.594 -22.662  0.00  0.00    +0.050 C 
ATOM     24  C   UNL     1      32.394  -5.576 -22.709  0.00  0.00    -0.005 C 
ATOM     25  C   UNL     1      30.075  -6.193 -22.428  0.00  0.00    +0.018 C 
ATOM     26  C   UNL     1      32.058  -4.234 -22.532  0.00  0.00    +0.034 C 
ATOM     27  C   UNL     1      33.823  -5.937 -22.953  0.00  0.00    +0.032 C 
ATOM     28  C   UNL     1      29.739  -4.851 -22.251  0.00  0.00    +0.038 C 
ATOM     29  C   UNL     1      30.731  -3.872 -22.303  0.00  0.00    +0.139 C 
BRANCH  29  30
ATOM     30  O   UNL     1      30.402  -2.562 -22.131  0.00  0.00    -0.471 OA
ATOM     31  C   UNL     1      30.185  -1.786 -23.308  0.00  0.00    +0.252 C 
ENDBRANCH  29  30
ENDBRANCH   1  23
TORSDOF 3
ENDMDL
MODEL 3
REMARK VINA RESULT:     -10.2      3.902      6.802
REMARK  Name = 11223423
REMARK  3 active torsions:
REMARK  status: ('A' for Active; 'I' for Inactive)
REMARK    1  A    between atoms: N_1  and  C_23
REMARK    2  A    between atoms: C_7  and  N_12
REMARK    3  A    between atoms: C_29  and  O_30
REMARK                            x       y       z     vdW  Elec       q    Type
REMARK                         _______ _______ _______ _____ _____    ______ ____
ROOT
ATOM      1  N   UNL     1      35.090 -18.394 -21.327  0.00  0.00    -0.263 N 
ATOM      2  N   UNL     1      33.138 -19.808 -20.695  0.00  0.00    -0.395 NA
ATOM      3  C   UNL     1      36.579 -19.240 -19.594  0.00  0.00    +0.053 C 
ATOM      4  C   UNL     1      35.252 -19.907 -19.565  0.00  0.00    +0.035 C 
ATOM      5  C   UNL     1      36.507 -18.475 -20.925  0.00  0.00    +0.103 C 
ATOM      6  C   UNL     1      34.408 -19.383 -20.543  0.00  0.00    +0.183 C 
ATOM      7  C   UNL     1      34.803 -20.883 -18.694  0.00  0.00    +0.058 C 
ATOM      8  C   UNL     1      33.497 -21.333 -18.838  0.00  0.00    +0.097 C 
ATOM      9  C   UNL     1      32.715 -20.772 -19.839  0.00  0.00    +0.094 C 
ATOM     10  C   UNL     1      31.307 -21.238 -20.011  0.00  0.00    +0.062 C 
ENDROOT
BRANCH   7  12
ATOM     11  O   UNL     1      33.881 -24.250 -15.046  0.00  0.00    -0.252 OA
ATOM     12  N   UNL     1      35.616 -21.401 -17.705  0.00  0.00    -0.191 N 
ATOM     13  N   UNL     1      36.152 -23.481 -14.971  0.00  0.00    -0.225 N 
ATOM     14  N   UNL     1      35.145 -22.313 -16.828  0.00  0.00    -0.159 NA
ATOM     15  N   UNL     1      35.405 -25.034 -13.484  0.00  0.00    -0.287 N 
ATOM     16  C   UNL     1      36.197 -22.567 -16.045  0.00  0.00    +0.158 C 
ATOM     17  C   UNL     1      37.250 -23.730 -14.045  0.00  0.00    +0.122 C 
ATOM     18  C   UNL     1      36.931 -21.082 -17.491  0.00  0.00    +0.092 C 
ATOM     19  C   UNL     1      36.802 -24.900 -13.192  0.00  0.00    +0.113 C 
ATOM     20  C   UNL     1      37.337 -21.828 -16.412  0.00  0.00    +0.054 C 
ATOM     21  C   UNL     1      35.013 -24.242 -14.578  0.00  0.00    +0.309 C 
ATOM     22  H   UNL     1      34.792 -25.613 -12.977  0.00  0.00    +0.151 HD
ENDBRANCH   7  12
BRANCH   1  23
ATOM     23  C   UNL     1      34.653 -17.588 -22.383  0.00  0.00    +0.050 C 
ATOM     24  C   UNL     1      34.233 -18.131 -23.621  0.00  0.00    -0.005 C 
ATOM     25  C   UNL     1      34.614 -16.181 -22.247  0.00  0.00    +0.018 C 
ATOM     26  C   UNL     1      33.801 -17.312 -24.664  0.00  0.00    +0.034 C 
ATOM     27  C   UNL     1      34.251 -19.612 -23.825  0.00  0.00    +0.032 C 
ATOM     28  C   UNL     1      34.181 -15.361 -23.290  0.00  0.00    +0.038 C 
ATOM     29  C   UNL     1      33.774 -15.928 -24.498  0.00  0.00    +0.139 C 
BRANCH  29  30
ATOM     30  O   UNL     1      33.351 -15.128 -25.515  0.00  0.00    -0.471 OA
ATOM     31  C   UNL     1      32.924 -13.811 -25.172  0.00  0.00    +0.252 C 
ENDBRANCH  29  30
ENDBRANCH   1  23
TORSDOF 3
ENDMDL
MODEL 4
REMARK VINA RESULT:     -10.1      3.612     10.754
REMARK  Name = 11223423
REMARK  3 active torsions:
REMARK  status: ('A' for Active; 'I' for Inactive)
REMARK    1  A    between atoms: N_1  and  C_23
REMARK    2  A    between atoms: C_7  and  N_12
REMARK    3  A    between atoms: C_29  and  O_30
REMARK                            x       y       z     vdW  Elec       q    Type
REMARK                         _______ _______ _______ _____ _____    ______ ____
ROOT
ATOM      1  N   UNL     1      33.043 -12.307 -22.512  0.00  0.00    -0.263 N 
ATOM      2  N   UNL     1      32.079 -11.183 -20.508  0.00  0.00    -0.395 NA
ATOM      3  C   UNL     1      32.535 -10.508 -24.073  0.00  0.00    +0.053 C 
ATOM      4  C   UNL     1      32.121 -10.177 -22.685  0.00  0.00    +0.035 C 
ATOM      5  C   UNL     1      33.373 -11.776 -23.848  0.00  0.00    +0.103 C 
ATOM      6  C   UNL     1      32.392 -11.234 -21.818  0.00  0.00    +0.183 C 
ATOM      7  C   UNL     1      31.499  -9.030 -22.227  0.00  0.00    +0.058 C 
ATOM      8  C   UNL     1      31.170  -8.961 -20.879  0.00  0.00    +0.097 C 
ATOM      9  C   UNL     1      31.477 -10.049 -20.072  0.00  0.00    +0.094 C 
ATOM     10  C   UNL     1      31.132  -9.998 -18.621  0.00  0.00    +0.062 C 
ENDROOT
BRANCH   7  12
ATOM     11  O   UNL     1      34.305  -5.150 -23.828  0.00  0.00    -0.252 OA
ATOM     12  N   UNL     1      31.203  -7.979 -23.073  0.00  0.00    -0.191 N 
ATOM     13  N   UNL     1      32.095  -5.070 -24.757  0.00  0.00    -0.225 N 
ATOM     14  N   UNL     1      32.132  -7.044 -23.368  0.00  0.00    -0.159 NA
ATOM     15  N   UNL     1      33.636  -3.485 -25.297  0.00  0.00    -0.287 N 
ATOM     16  C   UNL     1      31.490  -6.213 -24.193  0.00  0.00    +0.158 C 
ATOM     17  C   UNL     1      31.411  -4.096 -25.597  0.00  0.00    +0.122 C 
ATOM     18  C   UNL     1      30.001  -7.752 -23.691  0.00  0.00    +0.092 C 
ATOM     19  C   UNL     1      32.494  -3.164 -26.102  0.00  0.00    +0.113 C 
ATOM     20  C   UNL     1      30.158  -6.605 -24.429  0.00  0.00    +0.054 C 
ATOM     21  C   UNL     1      33.439  -4.651 -24.535  0.00  0.00    +0.309 C 
ATOM     22  H   UNL     1      34.463  -2.952 -25.281  0.00  0.00    +0.151 HD
ENDBRANCH   7  12
BRANCH   1  23
ATOM     23  C   UNL     1      33.473 -13.564 -22.076  0.00  0.00    +0.050 C 
ATOM     24  C   UNL     1      33.733 -14.626 -22.976  0.00  0.00    -0.005 C 
ATOM     25  C   UNL     1      33.668 -13.822 -20.699  0.00  0.00    +0.018 C 
ATOM     26  C   UNL     1      34.161 -15.874 -22.523  0.00  0.00    +0.034 C 
ATOM     27  C   UNL     1      33.545 -14.416 -24.444  0.00  0.00    +0.032 C 
ATOM     28  C   UNL     1      34.097 -15.069 -20.246  0.00  0.00    +0.038 C 
ATOM     29  C   UNL     1      34.343 -16.095 -21.159  0.00  0.00    +0.139 C 
BRANCH  29  30
ATOM     30  O   UNL     1      34.762 -17.312 -20.716  0.00  0.00    -0.471 OA
ATOM     31  C   UNL     1      35.746 -17.985 -21.499  0.00  0.00    +0.252 C 
ENDBRANCH  29  30
ENDBRANCH   1  23
TORSDOF 3
ENDMDL
MODEL 5
REMARK VINA RESULT:     -10.1      4.192      7.201
REMARK  Name = 11223423
REMARK  3 active torsions:
REMARK  status: ('A' for Active; 'I' for Inactive)
REMARK    1  A    between atoms: N_1  and  C_23
REMARK    2  A    between atoms: C_7  and  N_12
REMARK    3  A    between atoms: C_29  and  O_30
REMARK                            x       y       z     vdW  Elec       q    Type
REMARK                         _______ _______ _______ _____ _____    ______ ____
ROOT
ATOM      1  N   UNL     1      35.089 -18.822 -21.097  0.00  0.00    -0.263 N 
ATOM      2  N   UNL     1      33.174 -20.200 -20.296  0.00  0.00    -0.395 NA
ATOM      3  C   UNL     1      36.654 -19.550 -19.378  0.00  0.00    +0.053 C 
ATOM      4  C   UNL     1      35.333 -20.218 -19.251  0.00  0.00    +0.035 C 
ATOM      5  C   UNL     1      36.522 -18.872 -20.751  0.00  0.00    +0.103 C 
ATOM      6  C   UNL     1      34.447 -19.762 -20.225  0.00  0.00    +0.183 C 
ATOM      7  C   UNL     1      34.926 -21.139 -18.302  0.00  0.00    +0.058 C 
ATOM      8  C   UNL     1      33.619 -21.602 -18.362  0.00  0.00    +0.097 C 
ATOM      9  C   UNL     1      32.793 -21.109 -19.364  0.00  0.00    +0.094 C 
ATOM     10  C   UNL     1      31.382 -21.591 -19.447  0.00  0.00    +0.062 C 
ENDROOT
BRANCH   7  12
ATOM     11  O   UNL     1      34.641 -25.113 -15.201  0.00  0.00    -0.252 OA
ATOM     12  N   UNL     1      35.783 -21.590 -17.317  0.00  0.00    -0.191 N 
ATOM     13  N   UNL     1      36.650 -23.857 -14.827  0.00  0.00    -0.225 N 
ATOM     14  N   UNL     1      35.497 -22.702 -16.606  0.00  0.00    -0.159 NA
ATOM     15  N   UNL     1      36.217 -25.736 -13.619  0.00  0.00    -0.287 N 
ATOM     16  C   UNL     1      36.533 -22.814 -15.770  0.00  0.00    +0.158 C 
ATOM     17  C   UNL     1      37.720 -23.974 -13.845  0.00  0.00    +0.122 C 
ATOM     18  C   UNL     1      36.967 -21.008 -16.947  0.00  0.00    +0.092 C 
ATOM     19  C   UNL     1      37.521 -25.325 -13.188  0.00  0.00    +0.113 C 
ATOM     20  C   UNL     1      37.479 -21.785 -15.938  0.00  0.00    +0.054 C 
ATOM     21  C   UNL     1      35.708 -24.909 -14.636  0.00  0.00    +0.309 C 
ATOM     22  H   UNL     1      35.735 -26.509 -13.245  0.00  0.00    +0.151 HD
ENDBRANCH   7  12
BRANCH   1  23
ATOM     23  C   UNL     1      34.603 -18.087 -22.183  0.00  0.00    +0.050 C 
ATOM     24  C   UNL     1      34.337 -16.699 -22.095  0.00  0.00    -0.005 C 
ATOM     25  C   UNL     1      34.357 -18.715 -23.427  0.00  0.00    +0.018 C 
ATOM     26  C   UNL     1      33.853 -15.982 -23.189  0.00  0.00    +0.034 C 
ATOM     27  C   UNL     1      34.577 -15.979 -20.808  0.00  0.00    +0.032 C 
ATOM     28  C   UNL     1      33.873 -17.997 -24.521  0.00  0.00    +0.038 C 
ATOM     29  C   UNL     1      33.621 -16.630 -24.401  0.00  0.00    +0.139 C 
BRANCH  29  30
ATOM     30  O   UNL     1      33.148 -15.931 -25.469  0.00  0.00    -0.471 OA
ATOM     31  C   UNL     1      33.087 -14.511 -25.340  0.00  0.00    +0.252 C 
ENDBRANCH  29  30
ENDBRANCH   1  23
TORSDOF 3
ENDMDL
MODEL 6
REMARK VINA RESULT:     -10.0      3.603     10.924
REMARK  Name = 11223423
REMARK  3 active torsions:
REMARK  status: ('A' for Active; 'I' for Inactive)
REMARK    1  A    between atoms: N_1  and  C_23
REMARK    2  A    between atoms: C_7  and  N_12
REMARK    3  A    between atoms: C_29  and  O_30
REMARK                            x       y       z     vdW  Elec       q    Type
REMARK                         _______ _______ _______ _____ _____    ______ ____
ROOT
ATOM      1  N   UNL     1      32.999 -12.229 -22.464  0.00  0.00    -0.263 N 
ATOM      2  N   UNL     1      32.027 -11.213 -20.407  0.00  0.00    -0.395 NA
ATOM      3  C   UNL     1      32.482 -10.356 -23.934  0.00  0.00    +0.053 C 
ATOM      4  C   UNL     1      32.065 -10.099 -22.531  0.00  0.00    +0.035 C 
ATOM      5  C   UNL     1      33.327 -11.629 -23.771  0.00  0.00    +0.103 C 
ATOM      6  C   UNL     1      32.342 -11.196 -21.718  0.00  0.00    +0.183 C 
ATOM      7  C   UNL     1      31.435  -8.980 -22.016  0.00  0.00    +0.058 C 
ATOM      8  C   UNL     1      31.105  -8.980 -20.667  0.00  0.00    +0.097 C 
ATOM      9  C   UNL     1      31.418 -10.106 -19.916  0.00  0.00    +0.094 C 
ATOM     10  C   UNL     1      31.071 -10.130 -18.464  0.00  0.00    +0.062 C 
ENDROOT
BRANCH   7  12
ATOM     11  O   UNL     1      31.782  -4.020 -21.133  0.00  0.00    -0.252 OA
ATOM     12  N   UNL     1      31.134  -7.889 -22.809  0.00  0.00    -0.191 N 
ATOM     13  N   UNL     1      30.947  -4.458 -23.339  0.00  0.00    -0.225 N 
ATOM     14  N   UNL     1      31.317  -6.631 -22.355  0.00  0.00    -0.159 NA
ATOM     15  N   UNL     1      31.258  -2.321 -22.621  0.00  0.00    -0.287 N 
ATOM     16  C   UNL     1      30.923  -5.868 -23.378  0.00  0.00    +0.158 C 
ATOM     17  C   UNL     1      30.454  -3.588 -24.400  0.00  0.00    +0.122 C 
ATOM     18  C   UNL     1      30.638  -7.930 -24.086  0.00  0.00    +0.092 C 
ATOM     19  C   UNL     1      30.849  -2.184 -23.988  0.00  0.00    +0.113 C 
ATOM     20  C   UNL     1      30.490  -6.625 -24.483  0.00  0.00    +0.054 C 
ATOM     21  C   UNL     1      31.380  -3.668 -22.235  0.00  0.00    +0.309 C 
ATOM     22  H   UNL     1      31.435  -1.559 -22.023  0.00  0.00    +0.151 HD
ENDBRANCH   7  12
BRANCH   1  23
ATOM     23  C   UNL     1      33.437 -13.504 -22.091  0.00  0.00    +0.050 C 
ATOM     24  C   UNL     1      33.654 -14.534 -23.039  0.00  0.00    -0.005 C 
ATOM     25  C   UNL     1      33.682 -13.813 -20.733  0.00  0.00    +0.018 C 
ATOM     26  C   UNL     1      34.090 -15.800 -22.649  0.00  0.00    +0.034 C 
ATOM     27  C   UNL     1      33.412 -14.268 -24.490  0.00  0.00    +0.032 C 
ATOM     28  C   UNL     1      34.120 -15.079 -20.343  0.00  0.00    +0.038 C 
ATOM     29  C   UNL     1      34.323 -16.072 -21.301  0.00  0.00    +0.139 C 
BRANCH  29  30
ATOM     30  O   UNL     1      34.750 -17.307 -20.920  0.00  0.00    -0.471 OA
ATOM     31  C   UNL     1      35.864 -17.855 -21.621  0.00  0.00    +0.252 C 
ENDBRANCH  29  30
ENDBRANCH   1  23
TORSDOF 3
ENDMDL
MODEL 7
REMARK VINA RESULT:      -9.5      3.819     10.664
REMARK  Name = 11223423
REMARK  3 active torsions:
REMARK  status: ('A' for Active; 'I' for Inactive)
REMARK    1  A    between atoms: N_1  and  C_23
REMARK    2  A    between atoms: C_7  and  N_12
REMARK    3  A    between atoms: C_29  and  O_30
REMARK                            x       y       z     vdW  Elec       q    Type
REMARK                         _______ _______ _______ _____ _____    ______ ____
ROOT
ATOM      1  N   UNL     1      32.505 -22.095 -17.273  0.00  0.00    -0.263 N 
ATOM      2  N   UNL     1      34.982 -21.874 -17.122  0.00  0.00    -0.395 NA
ATOM      3  C   UNL     1      32.268 -20.824 -19.337  0.00  0.00    +0.053 C 
ATOM      4  C   UNL     1      33.688 -20.952 -18.919  0.00  0.00    +0.035 C 
ATOM      5  C   UNL     1      31.580 -21.817 -18.387  0.00  0.00    +0.103 C 
ATOM      6  C   UNL     1      33.794 -21.654 -17.720  0.00  0.00    +0.183 C 
ATOM      7  C   UNL     1      34.813 -20.436 -19.538  0.00  0.00    +0.058 C 
ATOM      8  C   UNL     1      36.045 -20.655 -18.936  0.00  0.00    +0.097 C 
ATOM      9  C   UNL     1      36.077 -21.370 -17.745  0.00  0.00    +0.094 C 
ATOM     10  C   UNL     1      37.390 -21.616 -17.079  0.00  0.00    +0.062 C 
ENDROOT
BRANCH   7  12
ATOM     11  O   UNL     1      34.279 -15.490 -20.401  0.00  0.00    -0.252 OA
ATOM     12  N   UNL     1      34.728 -19.721 -20.716  0.00  0.00    -0.191 N 
ATOM     13  N   UNL     1      34.405 -16.726 -22.453  0.00  0.00    -0.225 N 
ATOM     14  N   UNL     1      34.591 -18.377 -20.702  0.00  0.00    -0.159 NA
ATOM     15  N   UNL     1      34.194 -14.460 -22.477  0.00  0.00    -0.287 N 
ATOM     16  C   UNL     1      34.544 -18.054 -21.997  0.00  0.00    +0.158 C 
ATOM     17  C   UNL     1      34.270 -16.337 -23.851  0.00  0.00    +0.122 C 
ATOM     18  C   UNL     1      34.767 -20.242 -21.983  0.00  0.00    +0.092 C 
ATOM     19  C   UNL     1      34.329 -14.822 -23.857  0.00  0.00    +0.113 C 
ATOM     20  C   UNL     1      34.649 -19.177 -22.841  0.00  0.00    +0.054 C 
ATOM     21  C   UNL     1      34.297 -15.573 -21.623  0.00  0.00    +0.309 C 
ATOM     22  H   UNL     1      34.048 -13.539 -22.164  0.00  0.00    +0.151 HD
ENDBRANCH   7  12
BRANCH   1  23
ATOM     23  C   UNL     1      32.113 -22.797 -16.128  0.00  0.00    +0.050 C 
ATOM     24  C   UNL     1      30.758 -22.890 -15.728  0.00  0.00    -0.005 C 
ATOM     25  C   UNL     1      33.073 -23.448 -15.318  0.00  0.00    +0.018 C 
ATOM     26  C   UNL     1      30.386 -23.594 -14.583  0.00  0.00    +0.034 C 
ATOM     27  C   UNL     1      29.698 -22.223 -16.543  0.00  0.00    +0.032 C 
ATOM     28  C   UNL     1      32.700 -24.152 -14.173  0.00  0.00    +0.038 C 
ATOM     29  C   UNL     1      31.356 -24.225 -13.806  0.00  0.00    +0.139 C 
BRANCH  29  30
ATOM     30  O   UNL     1      30.993 -24.912 -12.688  0.00  0.00    -0.471 OA
ATOM     31  C   UNL     1      29.717 -24.613 -12.128  0.00  0.00    +0.252 C 
ENDBRANCH  29  30
ENDBRANCH   1  23
TORSDOF 3
ENDMDL
MODEL 8
REMARK VINA RESULT:      -8.9      4.015     11.080
REMARK  Name = 11223423
REMARK  3 active torsions:
REMARK  status: ('A' for Active; 'I' for Inactive)
REMARK    1  A    between atoms: N_1  and  C_23
REMARK    2  A    between atoms: C_7  and  N_12
REMARK    3  A    between atoms: C_29  and  O_30
REMARK                            x       y       z     vdW  Elec       q    Type
REMARK                         _______ _______ _______ _____ _____    ______ ____
ROOT
ATOM      1  N   UNL     1      32.767 -11.152 -22.738  0.00  0.00    -0.263 N 
ATOM      2  N   UNL     1      31.919 -10.569 -20.468  0.00  0.00    -0.395 NA
ATOM      3  C   UNL     1      32.303  -8.981 -23.741  0.00  0.00    +0.053 C 
ATOM      4  C   UNL     1      31.947  -9.018 -22.299  0.00  0.00    +0.035 C 
ATOM      5  C   UNL     1      33.083 -10.295 -23.896  0.00  0.00    +0.103 C 
ATOM      6  C   UNL     1      32.191 -10.279 -21.757  0.00  0.00    +0.183 C 
ATOM      7  C   UNL     1      31.396  -8.012 -21.526  0.00  0.00    +0.058 C 
ATOM      8  C   UNL     1      31.111  -8.293 -20.196  0.00  0.00    +0.097 C 
ATOM      9  C   UNL     1      31.387  -9.569 -19.722  0.00  0.00    +0.094 C 
ATOM     10  C   UNL     1      31.087  -9.895 -18.296  0.00  0.00    +0.062 C 
ENDROOT
BRANCH   7  12
ATOM     11  O   UNL     1      32.668  -5.899 -25.932  0.00  0.00    -0.252 OA
ATOM     12  N   UNL     1      31.128  -6.762 -22.049  0.00  0.00    -0.191 N 
ATOM     13  N   UNL     1      31.370  -4.397 -24.586  0.00  0.00    -0.225 N 
ATOM     14  N   UNL     1      31.574  -6.413 -23.274  0.00  0.00    -0.159 NA
ATOM     15  N   UNL     1      32.085  -3.774 -26.655  0.00  0.00    -0.287 N 
ATOM     16  C   UNL     1      31.129  -5.163 -23.426  0.00  0.00    +0.158 C 
ATOM     17  C   UNL     1      30.971  -3.006 -24.762  0.00  0.00    +0.122 C 
ATOM     18  C   UNL     1      30.418  -5.764 -21.434  0.00  0.00    +0.092 C 
ATOM     19  C   UNL     1      31.281  -2.676 -26.208  0.00  0.00    +0.113 C 
ATOM     20  C   UNL     1      30.402  -4.707 -22.310  0.00  0.00    +0.054 C 
ATOM     21  C   UNL     1      32.101  -4.833 -25.729  0.00  0.00    +0.309 C 
ATOM     22  H   UNL     1      32.569  -3.787 -27.512  0.00  0.00    +0.151 HD
ENDBRANCH   7  12
BRANCH   1  23
ATOM     23  C   UNL     1      33.147 -12.496 -22.670  0.00  0.00    +0.050 C 
ATOM     24  C   UNL     1      33.095 -13.351 -23.798  0.00  0.00    -0.005 C 
ATOM     25  C   UNL     1      33.603 -13.056 -21.454  0.00  0.00    +0.018 C 
ATOM     26  C   UNL     1      33.478 -14.690 -23.712  0.00  0.00    +0.034 C 
ATOM     27  C   UNL     1      32.622 -12.818 -25.111  0.00  0.00    +0.032 C 
ATOM     28  C   UNL     1      33.987 -14.395 -21.368  0.00  0.00    +0.038 C 
ATOM     29  C   UNL     1      33.924 -15.211 -22.498  0.00  0.00    +0.139 C 
BRANCH  29  30
ATOM     30  O   UNL     1      34.298 -16.517 -22.414  0.00  0.00    -0.471 OA
ATOM     31  C   UNL     1      34.851 -16.956 -21.174  0.00  0.00    +0.252 C 
ENDBRANCH  29  30
ENDBRANCH   1  23
TORSDOF 3
ENDMDL
MODEL 9
REMARK VINA RESULT:      -8.8      1.806      2.828
REMARK  Name = 11223423
REMARK  3 active torsions:
REMARK  status: ('A' for Active; 'I' for Inactive)
REMARK    1  A    between atoms: N_1  and  C_23
REMARK    2  A    between atoms: C_7  and  N_12
REMARK    3  A    between atoms: C_29  and  O_30
REMARK                            x       y       z     vdW  Elec       q    Type
REMARK                         _______ _______ _______ _____ _____    ______ ____
ROOT
ATOM      1  N   UNL     1      32.772 -11.667 -22.577  0.00  0.00    -0.263 N 
ATOM      2  N   UNL     1      32.672 -12.098 -25.030  0.00  0.00    -0.395 NA
ATOM      3  C   UNL     1      33.191 -13.980 -21.937  0.00  0.00    +0.053 C 
ATOM      4  C   UNL     1      33.101 -13.815 -23.411  0.00  0.00    +0.035 C 
ATOM      5  C   UNL     1      33.248 -12.517 -21.470  0.00  0.00    +0.103 C 
ATOM      6  C   UNL     1      32.829 -12.491 -23.750  0.00  0.00    +0.183 C 
ATOM      7  C   UNL     1      33.206 -14.787 -24.390  0.00  0.00    +0.058 C 
ATOM      8  C   UNL     1      33.048 -14.399 -25.714  0.00  0.00    +0.097 C 
ATOM      9  C   UNL     1      32.786 -13.060 -25.978  0.00  0.00    +0.094 C 
ATOM     10  C   UNL     1      32.611 -12.620 -27.394  0.00  0.00    +0.062 C 
ENDROOT
BRANCH   7  12
ATOM     11  O   UNL     1      35.422 -16.894 -20.372  0.00  0.00    -0.252 OA
ATOM     12  N   UNL     1      33.455 -16.109 -24.074  0.00  0.00    -0.191 N 
ATOM     13  N   UNL     1      34.707 -18.557 -21.945  0.00  0.00    -0.225 N 
ATOM     14  N   UNL     1      34.068 -16.441 -22.918  0.00  0.00    -0.159 NA
ATOM     15  N   UNL     1      35.718 -19.163 -19.999  0.00  0.00    -0.287 N 
ATOM     16  C   UNL     1      34.132 -17.775 -22.970  0.00  0.00    +0.158 C 
ATOM     17  C   UNL     1      34.869 -20.004 -21.996  0.00  0.00    +0.122 C 
ATOM     18  C   UNL     1      33.137 -17.197 -24.844  0.00  0.00    +0.092 C 
ATOM     19  C   UNL     1      35.360 -20.404 -20.619  0.00  0.00    +0.113 C 
ATOM     20  C   UNL     1      33.567 -18.300 -24.147  0.00  0.00    +0.054 C 
ATOM     21  C   UNL     1      35.285 -18.051 -20.745  0.00  0.00    +0.309 C 
ATOM     22  H   UNL     1      36.211 -19.096 -19.149  0.00  0.00    +0.151 HD
ENDBRANCH   7  12
BRANCH   1  23
ATOM     23  C   UNL     1      32.503 -10.304 -22.417  0.00  0.00    +0.050 C 
ATOM     24  C   UNL     1      31.400  -9.838 -21.661  0.00  0.00    -0.005 C 
ATOM     25  C   UNL     1      33.337  -9.330 -23.014  0.00  0.00    +0.018 C 
ATOM     26  C   UNL     1      31.147  -8.475 -21.512  0.00  0.00    +0.034 C 
ATOM     27  C   UNL     1      30.483 -10.819 -21.007  0.00  0.00    +0.032 C 
ATOM     28  C   UNL     1      33.084  -7.966 -22.864  0.00  0.00    +0.038 C 
ATOM     29  C   UNL     1      31.988  -7.539 -22.113  0.00  0.00    +0.139 C 
BRANCH  29  30
ATOM     30  O   UNL     1      31.742  -6.208 -21.967  0.00  0.00    -0.471 OA
ATOM     31  C   UNL     1      30.418  -5.758 -22.249  0.00  0.00    +0.252 C 
ENDBRANCH  29  30
ENDBRANCH   1  23
TORSDOF 3
ENDMDL
