MODEL 1
REMARK VINA RESULT:     -13.0      0.000      0.000
REMARK  Name = 54766013
REMARK  5 active torsions:
REMARK  status: ('A' for Active; 'I' for Inactive)
REMARK    1  A    between atoms: C_3  and  C_11
REMARK    2  A    between atoms: C_4  and  C_18
REMARK    3  A    between atoms: C_5  and  C_24
REMARK    4  A    between atoms: C_24  and  N_25
REMARK    5  A    between atoms: N_25  and  C_28
REMARK                            x       y       z     vdW  Elec       q    Type
REMARK                         _______ _______ _______ _____ _____    ______ ____
ROOT
ATOM      1  N   UNL     1      36.552 -21.943 -16.466  0.00  0.00    -0.315 N 
ATOM      2  N   UNL     1      34.448 -22.067 -17.165  0.00  0.00    -0.317 N 
ATOM      3  C   UNL     1      34.565 -22.632 -15.920  0.00  0.00    +0.063 C 
ATOM      4  C   UNL     1      35.862 -22.567 -15.465  0.00  0.00    +0.085 C 
ATOM      5  C   UNL     1      35.662 -21.662 -17.465  0.00  0.00    +0.164 C 
ATOM      6  H   UNL     1      37.514 -21.733 -16.467  0.00  0.00    +0.148 HD
ATOM      7  H   UNL     1      33.634 -21.984 -17.713  0.00  0.00    +0.148 HD
ENDROOT
BRANCH   3  11
ATOM      8  N   UNL     1      31.042 -23.574 -15.126  0.00  0.00    -0.170 N 
ATOM      9  N   UNL     1      29.741 -23.506 -15.506  0.00  0.00    -0.150 NA
ATOM     10  N   UNL     1      29.928 -24.679 -13.553  0.00  0.00    -0.206 NA
ATOM     11  C   UNL     1      33.394 -23.212 -15.234  0.00  0.00    +0.031 C 
ATOM     12  C   UNL     1      32.165 -23.041 -15.765  0.00  0.00    +0.092 C 
ATOM     13  C   UNL     1      33.495 -23.963 -13.979  0.00  0.00    +0.006 C 
ATOM     14  C   UNL     1      31.126 -24.294 -13.932  0.00  0.00    +0.157 C 
ATOM     15  C   UNL     1      32.415 -24.477 -13.364  0.00  0.00    +0.036 C 
ATOM     16  C   UNL     1      29.128 -24.179 -14.534  0.00  0.00    +0.219 C 
ENDBRANCH   3  11
BRANCH   4  18
ATOM     17  N   UNL     1      37.433 -23.961 -14.408  0.00  0.00    -0.409 NA
ATOM     18  C   UNL     1      36.486 -23.010 -14.244  0.00  0.00    +0.127 C 
ATOM     19  C   UNL     1      36.123 -22.480 -13.016  0.00  0.00    +0.086 C 
ATOM     20  C   UNL     1      38.043 -24.400 -13.284  0.00  0.00    +0.109 C 
ATOM     21  C   UNL     1      36.775 -22.957 -11.884  0.00  0.00    -0.016 C 
ATOM     22  C   UNL     1      37.754 -23.935 -12.012  0.00  0.00    +0.023 C 
ATOM     23  C   UNL     1      39.088 -25.451 -13.459  0.00  0.00    +0.066 C 
ENDBRANCH   4  18
BRANCH   5  24
ATOM     24  C   UNL     1      36.087 -20.982 -18.703  0.00  0.00    +0.128 C 
BRANCH  24  25
ATOM     25  N   UNL     1      34.950 -20.459 -19.442  0.00  0.00    -0.328 N 
ATOM     26  H   UNL     1      34.047 -20.745 -19.173  0.00  0.00    +0.147 HD
BRANCH  25  28
ATOM     27  F   UNL     1      32.810 -19.955 -21.124  0.00  0.00    -0.203 F 
ATOM     28  C   UNL     1      35.072 -19.583 -20.501  0.00  0.00    +0.073 C 
ATOM     29  C   UNL     1      33.983 -19.341 -21.339  0.00  0.00    +0.153 C 
ATOM     30  C   UNL     1      36.288 -18.939 -20.736  0.00  0.00    +0.017 C 
ATOM     31  C   UNL     1      34.108 -18.456 -22.409  0.00  0.00    +0.031 C 
ATOM     32  C   UNL     1      36.413 -18.053 -21.806  0.00  0.00    +0.001 C 
ATOM     33  C   UNL     1      35.323 -17.812 -22.643  0.00  0.00    +0.002 C 
ENDBRANCH  25  28
ENDBRANCH  24  25
ENDBRANCH   5  24
TORSDOF 5
ENDMDL
MODEL 2
REMARK VINA RESULT:     -12.7      1.566      5.143
REMARK  Name = 54766013
REMARK  5 active torsions:
REMARK  status: ('A' for Active; 'I' for Inactive)
REMARK    1  A    between atoms: C_3  and  C_11
REMARK    2  A    between atoms: C_4  and  C_18
REMARK    3  A    between atoms: C_5  and  C_24
REMARK    4  A    between atoms: C_24  and  N_25
REMARK    5  A    between atoms: N_25  and  C_28
REMARK                            x       y       z     vdW  Elec       q    Type
REMARK                         _______ _______ _______ _____ _____    ______ ____
ROOT
ATOM      1  N   UNL     1      32.325 -22.303 -17.382  0.00  0.00    -0.315 N 
ATOM      2  N   UNL     1      34.545 -22.274 -17.349  0.00  0.00    -0.317 N 
ATOM      3  C   UNL     1      34.065 -22.901 -16.227  0.00  0.00    +0.063 C 
ATOM      4  C   UNL     1      32.690 -22.931 -16.225  0.00  0.00    +0.085 C 
ATOM      5  C   UNL     1      33.472 -21.926 -18.024  0.00  0.00    +0.164 C 
ATOM      6  H   UNL     1      31.405 -22.150 -17.697  0.00  0.00    +0.148 HD
ATOM      7  H   UNL     1      35.486 -22.119 -17.595  0.00  0.00    +0.148 HD
ENDROOT
BRANCH   3  11
ATOM      8  N   UNL     1      36.448 -23.090 -13.362  0.00  0.00    -0.170 N 
ATOM      9  N   UNL     1      37.125 -22.403 -12.407  0.00  0.00    -0.150 NA
ATOM     10  N   UNL     1      37.608 -24.632 -12.259  0.00  0.00    -0.206 NA
ATOM     11  C   UNL     1      34.983 -23.443 -15.206  0.00  0.00    +0.031 C 
ATOM     12  C   UNL     1      35.569 -22.600 -14.331  0.00  0.00    +0.092 C 
ATOM     13  C   UNL     1      35.307 -24.868 -15.099  0.00  0.00    +0.006 C 
ATOM     14  C   UNL     1      36.763 -24.447 -13.249  0.00  0.00    +0.157 C 
ATOM     15  C   UNL     1      36.153 -25.342 -14.167  0.00  0.00    +0.036 C 
ATOM     16  C   UNL     1      37.795 -23.371 -11.784  0.00  0.00    +0.219 C 
ENDBRANCH   3  11
BRANCH   4  18
ATOM     17  N   UNL     1      30.461 -23.511 -15.749  0.00  0.00    -0.409 NA
ATOM     18  C   UNL     1      31.732 -23.465 -15.290  0.00  0.00    +0.127 C 
ATOM     19  C   UNL     1      32.118 -23.893 -14.030  0.00  0.00    +0.086 C 
ATOM     20  C   UNL     1      29.534 -24.008 -14.900  0.00  0.00    +0.109 C 
ATOM     21  C   UNL     1      31.135 -24.399 -13.186  0.00  0.00    -0.016 C 
ATOM     22  C   UNL     1      29.817 -24.462 -13.622  0.00  0.00    +0.023 C 
ATOM     23  C   UNL     1      28.129 -24.059 -15.401  0.00  0.00    +0.066 C 
ENDBRANCH   4  18
BRANCH   5  24
ATOM     24  C   UNL     1      33.431 -21.217 -19.316  0.00  0.00    +0.128 C 
BRANCH  24  25
ATOM     25  N   UNL     1      34.648 -20.456 -19.547  0.00  0.00    -0.328 N 
ATOM     26  H   UNL     1      35.390 -20.558 -18.908  0.00  0.00    +0.147 HD
BRANCH  25  28
ATOM     27  F   UNL     1      36.930 -18.908 -19.783  0.00  0.00    -0.203 F 
ATOM     28  C   UNL     1      34.816 -19.599 -20.616  0.00  0.00    +0.073 C 
ATOM     29  C   UNL     1      35.972 -18.826 -20.718  0.00  0.00    +0.153 C 
ATOM     30  C   UNL     1      33.826 -19.505 -21.595  0.00  0.00    +0.017 C 
ATOM     31  C   UNL     1      36.140 -17.960 -21.798  0.00  0.00    +0.031 C 
ATOM     32  C   UNL     1      33.994 -18.639 -22.675  0.00  0.00    +0.001 C 
ATOM     33  C   UNL     1      35.151 -17.866 -22.777  0.00  0.00    +0.002 C 
ENDBRANCH  25  28
ENDBRANCH  24  25
ENDBRANCH   5  24
TORSDOF 5
ENDMDL
MODEL 3
REMARK VINA RESULT:     -12.7      2.818      7.480
REMARK  Name = 54766013
REMARK  5 active torsions:
REMARK  status: ('A' for Active; 'I' for Inactive)
REMARK    1  A    between atoms: C_3  and  C_11
REMARK    2  A    between atoms: C_4  and  C_18
REMARK    3  A    between atoms: C_5  and  C_24
REMARK    4  A    between atoms: C_24  and  N_25
REMARK    5  A    between atoms: N_25  and  C_28
REMARK                            x       y       z     vdW  Elec       q    Type
REMARK                         _______ _______ _______ _____ _____    ______ ____
ROOT
ATOM      1  N   UNL     1      32.847 -22.450 -14.657  0.00  0.00    -0.315 N 
ATOM      2  N   UNL     1      33.589 -24.008 -13.259  0.00  0.00    -0.317 N 
ATOM      3  C   UNL     1      34.501 -23.800 -14.262  0.00  0.00    +0.063 C 
ATOM      4  C   UNL     1      34.063 -22.838 -15.142  0.00  0.00    +0.085 C 
ATOM      5  C   UNL     1      32.603 -23.179 -13.526  0.00  0.00    +0.164 C 
ATOM      6  H   UNL     1      32.253 -21.769 -15.049  0.00  0.00    +0.148 HD
ATOM      7  H   UNL     1      33.656 -24.638 -12.506  0.00  0.00    +0.148 HD
ENDROOT
BRANCH   3  11
ATOM      8  N   UNL     1      38.112 -24.680 -13.913  0.00  0.00    -0.170 N 
ATOM      9  N   UNL     1      39.343 -24.267 -13.519  0.00  0.00    -0.150 NA
ATOM     10  N   UNL     1      39.455 -26.400 -14.331  0.00  0.00    -0.206 NA
ATOM     11  C   UNL     1      35.766 -24.561 -14.310  0.00  0.00    +0.031 C 
ATOM     12  C   UNL     1      36.902 -23.981 -13.869  0.00  0.00    +0.092 C 
ATOM     13  C   UNL     1      35.857 -25.928 -14.830  0.00  0.00    +0.006 C 
ATOM     14  C   UNL     1      38.210 -25.984 -14.405  0.00  0.00    +0.157 C 
ATOM     15  C   UNL     1      37.020 -26.602 -14.873  0.00  0.00    +0.036 C 
ATOM     16  C   UNL     1      40.098 -25.329 -13.791  0.00  0.00    +0.219 C 
ENDBRANCH   3  11
BRANCH   4  18
ATOM     17  N   UNL     1      33.822 -22.248 -17.405  0.00  0.00    -0.409 NA
ATOM     18  C   UNL     1      34.645 -22.275 -16.334  0.00  0.00    +0.127 C 
ATOM     19  C   UNL     1      35.949 -21.803 -16.345  0.00  0.00    +0.086 C 
ATOM     20  C   UNL     1      34.333 -21.724 -18.542  0.00  0.00    +0.109 C 
ATOM     21  C   UNL     1      36.437 -21.270 -17.533  0.00  0.00    -0.016 C 
ATOM     22  C   UNL     1      35.620 -21.226 -18.657  0.00  0.00    +0.023 C 
ATOM     23  C   UNL     1      33.428 -21.694 -19.729  0.00  0.00    +0.066 C 
ENDBRANCH   4  18
BRANCH   5  24
ATOM     24  C   UNL     1      31.362 -23.002 -12.750  0.00  0.00    +0.128 C 
BRANCH  24  25
ATOM     25  N   UNL     1      30.310 -23.889 -13.216  0.00  0.00    -0.328 N 
ATOM     26  H   UNL     1      30.165 -24.735 -12.735  0.00  0.00    +0.147 HD
BRANCH  25  28
ATOM     27  F   UNL     1      29.341 -25.914 -14.835  0.00  0.00    -0.203 F 
ATOM     28  C   UNL     1      29.503 -23.606 -14.300  0.00  0.00    +0.073 C 
ATOM     29  C   UNL     1      29.024 -24.640 -15.106  0.00  0.00    +0.153 C 
ATOM     30  C   UNL     1      29.168 -22.283 -14.592  0.00  0.00    +0.017 C 
ATOM     31  C   UNL     1      28.210 -24.352 -16.200  0.00  0.00    +0.031 C 
ATOM     32  C   UNL     1      28.353 -21.996 -15.687  0.00  0.00    +0.001 C 
ATOM     33  C   UNL     1      27.874 -23.030 -16.491  0.00  0.00    +0.002 C 
ENDBRANCH  25  28
ENDBRANCH  24  25
ENDBRANCH   5  24
TORSDOF 5
ENDMDL
MODEL 4
REMARK VINA RESULT:     -12.0      1.565      2.131
REMARK  Name = 54766013
REMARK  5 active torsions:
REMARK  status: ('A' for Active; 'I' for Inactive)
REMARK    1  A    between atoms: C_3  and  C_11
REMARK    2  A    between atoms: C_4  and  C_18
REMARK    3  A    between atoms: C_5  and  C_24
REMARK    4  A    between atoms: C_24  and  N_25
REMARK    5  A    between atoms: N_25  and  C_28
REMARK                            x       y       z     vdW  Elec       q    Type
REMARK                         _______ _______ _______ _____ _____    ______ ____
ROOT
ATOM      1  N   UNL     1      35.773 -21.761 -17.770  0.00  0.00    -0.315 N 
ATOM      2  N   UNL     1      33.624 -21.629 -18.311  0.00  0.00    -0.317 N 
ATOM      3  C   UNL     1      33.765 -22.215 -17.078  0.00  0.00    +0.063 C 
ATOM      4  C   UNL     1      35.090 -22.307 -16.721  0.00  0.00    +0.085 C 
ATOM      5  C   UNL     1      34.852 -21.368 -18.701  0.00  0.00    +0.164 C 
ATOM      6  H   UNL     1      36.751 -21.667 -17.843  0.00  0.00    +0.148 HD
ATOM      7  H   UNL     1      32.787 -21.446 -18.797  0.00  0.00    +0.148 HD
ENDROOT
BRANCH   3  11
ATOM      8  N   UNL     1      31.669 -23.741 -14.394  0.00  0.00    -0.170 N 
ATOM      9  N   UNL     1      31.655 -24.401 -13.208  0.00  0.00    -0.150 NA
ATOM     10  N   UNL     1      29.516 -24.042 -13.931  0.00  0.00    -0.206 NA
ATOM     11  C   UNL     1      32.587 -22.658 -16.306  0.00  0.00    +0.031 C 
ATOM     12  C   UNL     1      32.769 -23.305 -15.136  0.00  0.00    +0.092 C 
ATOM     13  C   UNL     1      31.209 -22.440 -16.756  0.00  0.00    +0.006 C 
ATOM     14  C   UNL     1      30.351 -23.537 -14.811  0.00  0.00    +0.157 C 
ATOM     15  C   UNL     1      30.149 -22.858 -16.042  0.00  0.00    +0.036 C 
ATOM     16  C   UNL     1      30.350 -24.552 -12.984  0.00  0.00    +0.219 C 
ENDBRANCH   3  11
BRANCH   4  18
ATOM     17  N   UNL     1      35.866 -24.178 -15.526  0.00  0.00    -0.409 NA
ATOM     18  C   UNL     1      35.746 -22.832 -15.550  0.00  0.00    +0.127 C 
ATOM     19  C   UNL     1      36.208 -21.994 -14.547  0.00  0.00    +0.086 C 
ATOM     20  C   UNL     1      36.479 -24.707 -14.444  0.00  0.00    +0.109 C 
ATOM     21  C   UNL     1      36.834 -22.576 -13.450  0.00  0.00    -0.016 C 
ATOM     22  C   UNL     1      36.976 -23.957 -13.390  0.00  0.00    +0.023 C 
ATOM     23  C   UNL     1      36.614 -26.193 -14.412  0.00  0.00    +0.066 C 
ENDBRANCH   4  18
BRANCH   5  24
ATOM     24  C   UNL     1      35.261 -20.733 -19.967  0.00  0.00    +0.128 C 
BRANCH  24  25
ATOM     25  N   UNL     1      34.764 -19.371 -20.067  0.00  0.00    -0.328 N 
ATOM     26  H   UNL     1      34.553 -18.889 -19.235  0.00  0.00    +0.147 HD
BRANCH  25  28
ATOM     27  F   UNL     1      34.996 -16.619 -20.246  0.00  0.00    -0.203 F 
ATOM     28  C   UNL     1      34.571 -18.720 -21.268  0.00  0.00    +0.073 C 
ATOM     29  C   UNL     1      34.692 -17.332 -21.340  0.00  0.00    +0.153 C 
ATOM     30  C   UNL     1      34.252 -19.452 -22.413  0.00  0.00    +0.017 C 
ATOM     31  C   UNL     1      34.496 -16.676 -22.555  0.00  0.00    +0.031 C 
ATOM     32  C   UNL     1      34.056 -18.796 -23.628  0.00  0.00    +0.001 C 
ATOM     33  C   UNL     1      34.178 -17.408 -23.700  0.00  0.00    +0.002 C 
ENDBRANCH  25  28
ENDBRANCH  24  25
ENDBRANCH   5  24
TORSDOF 5
ENDMDL
MODEL 5
REMARK VINA RESULT:     -12.0      2.485      6.517
REMARK  Name = 54766013
REMARK  5 active torsions:
REMARK  status: ('A' for Active; 'I' for Inactive)
REMARK    1  A    between atoms: C_3  and  C_11
REMARK    2  A    between atoms: C_4  and  C_18
REMARK    3  A    between atoms: C_5  and  C_24
REMARK    4  A    between atoms: C_24  and  N_25
REMARK    5  A    between atoms: N_25  and  C_28
REMARK                            x       y       z     vdW  Elec       q    Type
REMARK                         _______ _______ _______ _____ _____    ______ ____
ROOT
ATOM      1  N   UNL     1      33.527 -24.397 -12.946  0.00  0.00    -0.315 N 
ATOM      2  N   UNL     1      32.592 -23.541 -14.769  0.00  0.00    -0.317 N 
ATOM      3  C   UNL     1      33.944 -23.308 -14.778  0.00  0.00    +0.063 C 
ATOM      4  C   UNL     1      34.546 -23.831 -13.658  0.00  0.00    +0.085 C 
ATOM      5  C   UNL     1      32.373 -24.199 -13.651  0.00  0.00    +0.164 C 
ATOM      6  H   UNL     1      33.609 -24.864 -12.082  0.00  0.00    +0.148 HD
ATOM      7  H   UNL     1      31.931 -23.274 -15.448  0.00  0.00    +0.148 HD
ENDROOT
BRANCH   3  11
ATOM      8  N   UNL     1      34.490 -21.724 -18.113  0.00  0.00    -0.170 N 
ATOM      9  N   UNL     1      33.965 -21.451 -19.334  0.00  0.00    -0.150 NA
ATOM     10  N   UNL     1      36.090 -20.622 -19.191  0.00  0.00    -0.206 NA
ATOM     11  C   UNL     1      34.583 -22.581 -15.893  0.00  0.00    +0.031 C 
ATOM     12  C   UNL     1      33.901 -22.402 -17.043  0.00  0.00    +0.092 C 
ATOM     13  C   UNL     1      35.946 -22.046 -15.820  0.00  0.00    +0.006 C 
ATOM     14  C   UNL     1      35.787 -21.208 -18.055  0.00  0.00    +0.157 C 
ATOM     15  C   UNL     1      36.515 -21.393 -16.849  0.00  0.00    +0.036 C 
ATOM     16  C   UNL     1      34.960 -20.795 -19.929  0.00  0.00    +0.219 C 
ENDBRANCH   3  11
BRANCH   4  18
ATOM     17  N   UNL     1      36.723 -24.686 -13.899  0.00  0.00    -0.409 NA
ATOM     18  C   UNL     1      35.916 -23.849 -13.211  0.00  0.00    +0.127 C 
ATOM     19  C   UNL     1      36.340 -23.054 -12.157  0.00  0.00    +0.086 C 
ATOM     20  C   UNL     1      38.017 -24.728 -13.510  0.00  0.00    +0.109 C 
ATOM     21  C   UNL     1      37.679 -23.126 -11.787  0.00  0.00    -0.016 C 
ATOM     22  C   UNL     1      38.540 -23.975 -12.471  0.00  0.00    +0.023 C 
ATOM     23  C   UNL     1      38.913 -25.653 -14.266  0.00  0.00    +0.066 C 
ENDBRANCH   4  18
BRANCH   5  24
ATOM     24  C   UNL     1      31.075 -24.693 -13.156  0.00  0.00    +0.128 C 
BRANCH  24  25
ATOM     25  N   UNL     1      30.043 -23.675 -13.255  0.00  0.00    -0.328 N 
ATOM     26  H   UNL     1      29.871 -23.106 -12.471  0.00  0.00    +0.147 HD
BRANCH  25  28
ATOM     27  F   UNL     1      28.545 -25.720 -14.366  0.00  0.00    -0.203 F 
ATOM     28  C   UNL     1      29.290 -23.465 -14.393  0.00  0.00    +0.073 C 
ATOM     29  C   UNL     1      28.542 -24.508 -14.940  0.00  0.00    +0.153 C 
ATOM     30  C   UNL     1      29.280 -22.208 -14.999  0.00  0.00    +0.017 C 
ATOM     31  C   UNL     1      27.783 -24.294 -16.090  0.00  0.00    +0.031 C 
ATOM     32  C   UNL     1      28.521 -21.994 -16.150  0.00  0.00    +0.001 C 
ATOM     33  C   UNL     1      27.772 -23.037 -16.695  0.00  0.00    +0.002 C 
ENDBRANCH  25  28
ENDBRANCH  24  25
ENDBRANCH   5  24
TORSDOF 5
ENDMDL
MODEL 6
REMARK VINA RESULT:     -11.7      2.282      6.603
REMARK  Name = 54766013
REMARK  5 active torsions:
REMARK  status: ('A' for Active; 'I' for Inactive)
REMARK    1  A    between atoms: C_3  and  C_11
REMARK    2  A    between atoms: C_4  and  C_18
REMARK    3  A    between atoms: C_5  and  C_24
REMARK    4  A    between atoms: C_24  and  N_25
REMARK    5  A    between atoms: N_25  and  C_28
REMARK                            x       y       z     vdW  Elec       q    Type
REMARK                         _______ _______ _______ _____ _____    ______ ____
ROOT
ATOM      1  N   UNL     1      33.193 -24.637 -13.499  0.00  0.00    -0.315 N 
ATOM      2  N   UNL     1      32.329 -23.228 -14.981  0.00  0.00    -0.317 N 
ATOM      3  C   UNL     1      33.683 -23.337 -15.168  0.00  0.00    +0.063 C 
ATOM      4  C   UNL     1      34.242 -24.206 -14.260  0.00  0.00    +0.085 C 
ATOM      5  C   UNL     1      32.065 -24.023 -13.968  0.00  0.00    +0.164 C 
ATOM      6  H   UNL     1      33.241 -25.274 -12.749  0.00  0.00    +0.148 HD
ATOM      7  H   UNL     1      31.693 -22.675 -15.492  0.00  0.00    +0.148 HD
ENDROOT
BRANCH   3  11
ATOM      8  N   UNL     1      34.321 -21.546 -18.379  0.00  0.00    -0.170 N 
ATOM      9  N   UNL     1      33.807 -21.136 -19.566  0.00  0.00    -0.150 NA
ATOM     10  N   UNL     1      35.994 -20.495 -19.397  0.00  0.00    -0.206 NA
ATOM     11  C   UNL     1      34.368 -22.579 -16.233  0.00  0.00    +0.031 C 
ATOM     12  C   UNL     1      33.690 -22.256 -17.355  0.00  0.00    +0.092 C 
ATOM     13  C   UNL     1      35.771 -22.163 -16.144  0.00  0.00    +0.006 C 
ATOM     14  C   UNL     1      35.656 -21.143 -18.304  0.00  0.00    +0.157 C 
ATOM     15  C   UNL     1      36.380 -21.480 -17.129  0.00  0.00    +0.036 C 
ATOM     16  C   UNL     1      34.846 -20.518 -20.126  0.00  0.00    +0.219 C 
ENDBRANCH   3  11
BRANCH   4  18
ATOM     17  N   UNL     1      36.265 -23.979 -13.083  0.00  0.00    -0.409 NA
ATOM     18  C   UNL     1      35.597 -24.649 -14.047  0.00  0.00    +0.127 C 
ATOM     19  C   UNL     1      36.139 -25.688 -14.788  0.00  0.00    +0.086 C 
ATOM     20  C   UNL     1      37.539 -24.369 -12.852  0.00  0.00    +0.109 C 
ATOM     21  C   UNL     1      37.452 -26.060 -14.521  0.00  0.00    -0.016 C 
ATOM     22  C   UNL     1      38.172 -25.394 -13.537  0.00  0.00    +0.023 C 
ATOM     23  C   UNL     1      38.282 -23.631 -11.789  0.00  0.00    +0.066 C 
ENDBRANCH   4  18
BRANCH   5  24
ATOM     24  C   UNL     1      30.746 -24.274 -13.360  0.00  0.00    +0.128 C 
BRANCH  24  25
ATOM     25  N   UNL     1      29.787 -24.753 -14.342  0.00  0.00    -0.328 N 
ATOM     26  H   UNL     1      29.718 -25.724 -14.491  0.00  0.00    +0.147 HD
BRANCH  25  28
ATOM     27  F   UNL     1      29.526 -22.079 -13.680  0.00  0.00    -0.203 F 
ATOM     28  C   UNL     1      28.971 -23.917 -15.077  0.00  0.00    +0.073 C 
ATOM     29  C   UNL     1      28.851 -22.572 -14.728  0.00  0.00    +0.153 C 
ATOM     30  C   UNL     1      28.263 -24.420 -16.169  0.00  0.00    +0.017 C 
ATOM     31  C   UNL     1      28.025 -21.729 -15.471  0.00  0.00    +0.031 C 
ATOM     32  C   UNL     1      27.436 -23.577 -16.913  0.00  0.00    +0.001 C 
ATOM     33  C   UNL     1      27.318 -22.232 -16.564  0.00  0.00    +0.002 C 
ENDBRANCH  25  28
ENDBRANCH  24  25
ENDBRANCH   5  24
TORSDOF 5
ENDMDL
MODEL 7
REMARK VINA RESULT:     -11.7      1.960      5.227
REMARK  Name = 54766013
REMARK  5 active torsions:
REMARK  status: ('A' for Active; 'I' for Inactive)
REMARK    1  A    between atoms: C_3  and  C_11
REMARK    2  A    between atoms: C_4  and  C_18
REMARK    3  A    between atoms: C_5  and  C_24
REMARK    4  A    between atoms: C_24  and  N_25
REMARK    5  A    between atoms: N_25  and  C_28
REMARK                            x       y       z     vdW  Elec       q    Type
REMARK                         _______ _______ _______ _____ _____    ______ ____
ROOT
ATOM      1  N   UNL     1      32.145 -21.284 -18.715  0.00  0.00    -0.315 N 
ATOM      2  N   UNL     1      34.364 -21.269 -18.793  0.00  0.00    -0.317 N 
ATOM      3  C   UNL     1      33.937 -21.881 -17.642  0.00  0.00    +0.063 C 
ATOM      4  C   UNL     1      32.563 -21.903 -17.571  0.00  0.00    +0.085 C 
ATOM      5  C   UNL     1      33.261 -20.920 -19.417  0.00  0.00    +0.164 C 
ATOM      6  H   UNL     1      31.211 -21.128 -18.985  0.00  0.00    +0.148 HD
ATOM      7  H   UNL     1      35.293 -21.122 -19.087  0.00  0.00    +0.148 HD
ENDROOT
BRANCH   3  11
ATOM      8  N   UNL     1      35.517 -24.097 -15.089  0.00  0.00    -0.170 N 
ATOM      9  N   UNL     1      35.409 -25.235 -14.357  0.00  0.00    -0.150 NA
ATOM     10  N   UNL     1      37.367 -24.168 -13.861  0.00  0.00    -0.206 NA
ATOM     11  C   UNL     1      34.901 -22.419 -16.663  0.00  0.00    +0.031 C 
ATOM     12  C   UNL     1      34.622 -23.575 -16.026  0.00  0.00    +0.092 C 
ATOM     13  C   UNL     1      36.160 -21.746 -16.329  0.00  0.00    +0.006 C 
ATOM     14  C   UNL     1      36.720 -23.466 -14.765  0.00  0.00    +0.157 C 
ATOM     15  C   UNL     1      37.023 -22.247 -15.427  0.00  0.00    +0.036 C 
ATOM     16  C   UNL     1      36.536 -25.223 -13.648  0.00  0.00    +0.219 C 
ENDBRANCH   3  11
BRANCH   4  18
ATOM     17  N   UNL     1      30.343 -22.265 -16.889  0.00  0.00    -0.409 NA
ATOM     18  C   UNL     1      31.650 -22.422 -16.585  0.00  0.00    +0.127 C 
ATOM     19  C   UNL     1      32.110 -23.032 -15.428  0.00  0.00    +0.086 C 
ATOM     20  C   UNL     1      29.455 -22.742 -15.987  0.00  0.00    +0.109 C 
ATOM     21  C   UNL     1      31.166 -23.510 -14.526  0.00  0.00    -0.016 C 
ATOM     22  C   UNL     1      29.811 -23.367 -14.803  0.00  0.00    +0.023 C 
ATOM     23  C   UNL     1      28.009 -22.570 -16.317  0.00  0.00    +0.066 C 
ENDBRANCH   4  18
BRANCH   5  24
ATOM     24  C   UNL     1      33.160 -20.224 -20.712  0.00  0.00    +0.128 C 
BRANCH  24  25
ATOM     25  N   UNL     1      34.380 -19.499 -21.026  0.00  0.00    -0.328 N 
ATOM     26  H   UNL     1      35.239 -19.890 -20.750  0.00  0.00    +0.147 HD
BRANCH  25  28
ATOM     27  F   UNL     1      34.068 -19.380 -23.773  0.00  0.00    -0.203 F 
ATOM     28  C   UNL     1      34.394 -18.289 -21.690  0.00  0.00    +0.073 C 
ATOM     29  C   UNL     1      34.236 -18.248 -23.075  0.00  0.00    +0.153 C 
ATOM     30  C   UNL     1      34.570 -17.104 -20.973  0.00  0.00    +0.017 C 
ATOM     31  C   UNL     1      34.252 -17.025 -23.744  0.00  0.00    +0.031 C 
ATOM     32  C   UNL     1      34.585 -15.880 -21.642  0.00  0.00    +0.001 C 
ATOM     33  C   UNL     1      34.426 -15.840 -23.028  0.00  0.00    +0.002 C 
ENDBRANCH  25  28
ENDBRANCH  24  25
ENDBRANCH   5  24
TORSDOF 5
ENDMDL
MODEL 8
REMARK VINA RESULT:     -11.5      2.895      7.961
REMARK  Name = 54766013
REMARK  5 active torsions:
REMARK  status: ('A' for Active; 'I' for Inactive)
REMARK    1  A    between atoms: C_3  and  C_11
REMARK    2  A    between atoms: C_4  and  C_18
REMARK    3  A    between atoms: C_5  and  C_24
REMARK    4  A    between atoms: C_24  and  N_25
REMARK    5  A    between atoms: N_25  and  C_28
REMARK                            x       y       z     vdW  Elec       q    Type
REMARK                         _______ _______ _______ _____ _____    ______ ____
ROOT
ATOM      1  N   UNL     1      33.157 -23.782 -12.464  0.00  0.00    -0.315 N 
ATOM      2  N   UNL     1      34.884 -22.991 -13.615  0.00  0.00    -0.317 N 
ATOM      3  C   UNL     1      33.772 -23.056 -14.416  0.00  0.00    +0.063 C 
ATOM      4  C   UNL     1      32.688 -23.543 -13.725  0.00  0.00    +0.085 C 
ATOM      5  C   UNL     1      34.480 -23.435 -12.445  0.00  0.00    +0.164 C 
ATOM      6  H   UNL     1      32.638 -24.138 -11.706  0.00  0.00    +0.148 HD
ATOM      7  H   UNL     1      35.786 -22.681 -13.861  0.00  0.00    +0.148 HD
ENDROOT
BRANCH   3  11
ATOM      8  N   UNL     1      35.046 -21.706 -17.654  0.00  0.00    -0.170 N 
ATOM      9  N   UNL     1      36.101 -21.170 -18.319  0.00  0.00    -0.150 NA
ATOM     10  N   UNL     1      34.301 -21.344 -19.716  0.00  0.00    -0.206 NA
ATOM     11  C   UNL     1      33.828 -22.635 -15.830  0.00  0.00    +0.031 C 
ATOM     12  C   UNL     1      34.974 -22.119 -16.321  0.00  0.00    +0.092 C 
ATOM     13  C   UNL     1      32.683 -22.735 -16.739  0.00  0.00    +0.006 C 
ATOM     14  C   UNL     1      33.962 -21.799 -18.530  0.00  0.00    +0.157 C 
ATOM     15  C   UNL     1      32.750 -22.338 -18.023  0.00  0.00    +0.036 C 
ATOM     16  C   UNL     1      35.598 -20.976 -19.537  0.00  0.00    +0.219 C 
ENDBRANCH   3  11
BRANCH   4  18
ATOM     17  N   UNL     1      30.592 -22.686 -14.355  0.00  0.00    -0.409 NA
ATOM     18  C   UNL     1      31.323 -23.796 -14.111  0.00  0.00    +0.127 C 
ATOM     19  C   UNL     1      30.832 -25.088 -14.218  0.00  0.00    +0.086 C 
ATOM     20  C   UNL     1      29.306 -22.883 -14.724  0.00  0.00    +0.109 C 
ATOM     21  C   UNL     1      29.505 -25.249 -14.600  0.00  0.00    -0.016 C 
ATOM     22  C   UNL     1      28.720 -24.131 -14.860  0.00  0.00    +0.023 C 
ATOM     23  C   UNL     1      28.493 -21.660 -14.993  0.00  0.00    +0.066 C 
ENDBRANCH   4  18
BRANCH   5  24
ATOM     24  C   UNL     1      35.292 -23.571 -11.222  0.00  0.00    +0.128 C 
BRANCH  24  25
ATOM     25  N   UNL     1      36.117 -24.767 -11.259  0.00  0.00    -0.328 N 
ATOM     26  H   UNL     1      36.047 -25.405 -10.513  0.00  0.00    +0.147 HD
BRANCH  25  28
ATOM     27  F   UNL     1      38.433 -23.291 -11.600  0.00  0.00    -0.203 F 
ATOM     28  C   UNL     1      36.995 -25.052 -12.285  0.00  0.00    +0.073 C 
ATOM     29  C   UNL     1      38.158 -24.297 -12.442  0.00  0.00    +0.153 C 
ATOM     30  C   UNL     1      36.718 -26.097 -13.168  0.00  0.00    +0.017 C 
ATOM     31  C   UNL     1      39.044 -24.586 -13.479  0.00  0.00    +0.031 C 
ATOM     32  C   UNL     1      37.604 -26.386 -14.206  0.00  0.00    +0.001 C 
ATOM     33  C   UNL     1      38.767 -25.631 -14.361  0.00  0.00    +0.002 C 
ENDBRANCH  25  28
ENDBRANCH  24  25
ENDBRANCH   5  24
TORSDOF 5
ENDMDL
MODEL 9
REMARK VINA RESULT:     -11.2      1.609      4.732
REMARK  Name = 54766013
REMARK  5 active torsions:
REMARK  status: ('A' for Active; 'I' for Inactive)
REMARK    1  A    between atoms: C_3  and  C_11
REMARK    2  A    between atoms: C_4  and  C_18
REMARK    3  A    between atoms: C_5  and  C_24
REMARK    4  A    between atoms: C_24  and  N_25
REMARK    5  A    between atoms: N_25  and  C_28
REMARK                            x       y       z     vdW  Elec       q    Type
REMARK                         _______ _______ _______ _____ _____    ______ ____
ROOT
ATOM      1  N   UNL     1      33.617 -21.763 -18.120  0.00  0.00    -0.315 N 
ATOM      2  N   UNL     1      35.742 -21.866 -17.481  0.00  0.00    -0.317 N 
ATOM      3  C   UNL     1      34.932 -22.413 -16.518  0.00  0.00    +0.063 C 
ATOM      4  C   UNL     1      33.610 -22.361 -16.892  0.00  0.00    +0.085 C 
ATOM      5  C   UNL     1      34.919 -21.484 -18.433  0.00  0.00    +0.164 C 
ATOM      6  H   UNL     1      32.830 -21.569 -18.678  0.00  0.00    +0.148 HD
ATOM      7  H   UNL     1      36.722 -21.779 -17.464  0.00  0.00    +0.148 HD
ENDROOT
BRANCH   3  11
ATOM      8  N   UNL     1      36.266 -24.832 -14.008  0.00  0.00    -0.170 N 
ATOM      9  N   UNL     1      36.571 -26.126 -13.736  0.00  0.00    -0.150 NA
ATOM     10  N   UNL     1      37.047 -24.812 -11.928  0.00  0.00    -0.206 NA
ATOM     11  C   UNL     1      35.498 -22.964 -15.271  0.00  0.00    +0.031 C 
ATOM     12  C   UNL     1      35.738 -24.289 -15.182  0.00  0.00    +0.092 C 
ATOM     13  C   UNL     1      35.806 -22.137 -14.100  0.00  0.00    +0.006 C 
ATOM     14  C   UNL     1      36.565 -24.054 -12.887  0.00  0.00    +0.157 C 
ATOM     15  C   UNL     1      36.314 -22.658 -12.969  0.00  0.00    +0.036 C 
ATOM     16  C   UNL     1      37.030 -26.052 -12.488  0.00  0.00    +0.219 C 
ENDBRANCH   3  11
BRANCH   4  18
ATOM     17  N   UNL     1      32.590 -23.489 -15.098  0.00  0.00    -0.409 NA
ATOM     18  C   UNL     1      32.399 -22.795 -16.241  0.00  0.00    +0.127 C 
ATOM     19  C   UNL     1      31.152 -22.503 -16.772  0.00  0.00    +0.086 C 
ATOM     20  C   UNL     1      31.476 -23.910 -14.457  0.00  0.00    +0.109 C 
ATOM     21  C   UNL     1      30.031 -22.954 -16.084  0.00  0.00    -0.016 C 
ATOM     22  C   UNL     1      30.187 -23.671 -14.904  0.00  0.00    +0.023 C 
ATOM     23  C   UNL     1      31.682 -24.679 -13.194  0.00  0.00    +0.066 C 
ENDBRANCH   4  18
BRANCH   5  24
ATOM     24  C   UNL     1      35.280 -20.831 -19.704  0.00  0.00    +0.128 C 
BRANCH  24  25
ATOM     25  N   UNL     1      34.257 -19.891 -20.131  0.00  0.00    -0.328 N 
ATOM     26  H   UNL     1      33.432 -19.825 -19.598  0.00  0.00    +0.147 HD
BRANCH  25  28
ATOM     27  F   UNL     1      36.125 -17.850 -20.208  0.00  0.00    -0.203 F 
ATOM     28  C   UNL     1      34.383 -19.087 -21.246  0.00  0.00    +0.073 C 
ATOM     29  C   UNL     1      35.330 -18.062 -21.267  0.00  0.00    +0.153 C 
ATOM     30  C   UNL     1      33.560 -19.298 -22.353  0.00  0.00    +0.017 C 
ATOM     31  C   UNL     1      35.456 -17.251 -22.394  0.00  0.00    +0.031 C 
ATOM     32  C   UNL     1      33.686 -18.486 -23.481  0.00  0.00    +0.001 C 
ATOM     33  C   UNL     1      34.634 -17.463 -23.501  0.00  0.00    +0.002 C 
ENDBRANCH  25  28
ENDBRANCH  24  25
ENDBRANCH   5  24
TORSDOF 5
ENDMDL
