MODEL 1
REMARK VINA RESULT:     -12.7      0.000      0.000
REMARK  Name = 10174090
REMARK  8 active torsions:
REMARK  status: ('A' for Active; 'I' for Inactive)
REMARK    1  A    between atoms: C_1  and  C_5
REMARK    2  A    between atoms: C_1  and  O_20
REMARK    3  A    between atoms: C_1  and  C_22
REMARK    4  A    between atoms: N_4  and  C_7
REMARK    5  A    between atoms: C_9  and  C_16
REMARK    6  A    between atoms: C_11  and  N_19
REMARK    7  A    between atoms: C_22  and  O_23
REMARK    8  A    between atoms: O_23  and  C_29
REMARK                            x       y       z     vdW  Elec       q    Type
REMARK                         _______ _______ _______ _____ _____    ______ ____
ROOT
ATOM      1  C   UNL     1      34.972 -18.696 -22.318  0.00  0.00    +0.197 C 
ATOM      2  C   UNL     1      36.420 -18.282 -22.047  0.00  0.00    +0.043 C 
ENDROOT
BRANCH   1   5
ATOM      3  O   UNL     1      33.161 -19.337 -20.861  0.00  0.00    -0.272 OA
ATOM      4  N   UNL     1      35.316 -20.098 -20.348  0.00  0.00    -0.282 N 
ATOM      5  C   UNL     1      34.365 -19.410 -21.095  0.00  0.00    +0.254 C 
ATOM      6  H   UNL     1      36.242 -20.053 -20.676  0.00  0.00    +0.155 HD
BRANCH   4   7
ATOM      7  C   UNL     1      35.105 -20.856 -19.170  0.00  0.00    +0.050 C 
ATOM      8  C   UNL     1      36.099 -20.900 -18.207  0.00  0.00    +0.020 C 
ATOM      9  C   UNL     1      35.892 -21.649 -17.048  0.00  0.00    +0.095 C 
ATOM     10  C   UNL     1      33.910 -21.537 -19.009  0.00  0.00    +0.016 C 
ATOM     11  C   UNL     1      34.694 -22.341 -16.869  0.00  0.00    +0.147 C 
ATOM     12  C   UNL     1      33.704 -22.285 -17.850  0.00  0.00    +0.025 C 
BRANCH   9  16
ATOM     13  F   UNL     1      36.511 -21.592 -14.738  0.00  0.00    -0.166 F 
ATOM     14  F   UNL     1      37.713 -22.835 -16.047  0.00  0.00    -0.166 F 
ATOM     15  F   UNL     1      37.869 -20.669 -16.162  0.00  0.00    -0.166 F 
ATOM     16  C   UNL     1      36.974 -21.688 -16.017  0.00  0.00    +0.420 C 
ENDBRANCH   9  16
BRANCH  11  19
ATOM     17  O   UNL     1      34.975 -24.251 -15.608  0.00  0.00    -0.126 OA
ATOM     18  O   UNL     1      33.753 -22.624 -14.784  0.00  0.00    -0.126 OA
ATOM     19  N   UNL     1      34.462 -23.110 -15.695  0.00  0.00    +0.058 N 
ENDBRANCH  11  19
ENDBRANCH   4   7
ENDBRANCH   1   5
BRANCH   1  20
ATOM     20  O   UNL     1      34.982 -19.629 -23.399  0.00  0.00    -0.375 OA
ATOM     21  H   UNL     1      34.292 -19.391 -24.038  0.00  0.00    +0.211 HD
ENDBRANCH   1  20
BRANCH   1  22
ATOM     22  C   UNL     1      34.140 -17.489 -22.769  0.00  0.00    +0.241 C 
BRANCH  22  23
ATOM     23  O   UNL     1      34.839 -16.271 -22.532  0.00  0.00    -0.468 OA
BRANCH  23  29
ATOM     24  F   UNL     1      34.124 -14.931 -20.238  0.00  0.00    -0.198 F 
ATOM     25  F   UNL     1      34.060 -15.261 -24.970  0.00  0.00    -0.198 F 
ATOM     26  F   UNL     1      32.598 -12.961 -25.107  0.00  0.00    -0.199 F 
ATOM     27  F   UNL     1      32.662 -12.631 -20.383  0.00  0.00    -0.199 F 
ATOM     28  F   UNL     1      31.898 -11.643 -22.816  0.00  0.00    -0.199 F 
ATOM     29  C   UNL     1      34.105 -15.118 -22.603  0.00  0.00    +0.198 A 
ATOM     30  C   UNL     1      33.752 -14.452 -21.433  0.00  0.00    +0.206 A 
ATOM     31  C   UNL     1      33.719 -14.620 -23.843  0.00  0.00    +0.206 A 
ATOM     32  C   UNL     1      32.972 -13.445 -23.915  0.00  0.00    +0.200 A 
ATOM     33  C   UNL     1      33.005 -13.277 -21.505  0.00  0.00    +0.200 A 
ATOM     34  C   UNL     1      32.615 -12.773 -22.746  0.00  0.00    +0.199 A 
ENDBRANCH  23  29
ENDBRANCH  22  23
ENDBRANCH   1  22
TORSDOF 8
ENDMDL
MODEL 2
REMARK VINA RESULT:     -12.7      0.044      1.881
REMARK  Name = 10174090
REMARK  8 active torsions:
REMARK  status: ('A' for Active; 'I' for Inactive)
REMARK    1  A    between atoms: C_1  and  C_5
REMARK    2  A    between atoms: C_1  and  O_20
REMARK    3  A    between atoms: C_1  and  C_22
REMARK    4  A    between atoms: N_4  and  C_7
REMARK    5  A    between atoms: C_9  and  C_16
REMARK    6  A    between atoms: C_11  and  N_19
REMARK    7  A    between atoms: C_22  and  O_23
REMARK    8  A    between atoms: O_23  and  C_29
REMARK                            x       y       z     vdW  Elec       q    Type
REMARK                         _______ _______ _______ _____ _____    ______ ____
ROOT
ATOM      1  C   UNL     1      34.974 -18.688 -22.282  0.00  0.00    +0.197 C 
ATOM      2  C   UNL     1      36.414 -18.258 -21.993  0.00  0.00    +0.043 C 
ENDROOT
BRANCH   1   5
ATOM      3  O   UNL     1      33.154 -19.359 -20.850  0.00  0.00    -0.272 OA
ATOM      4  N   UNL     1      35.312 -20.093 -20.314  0.00  0.00    -0.282 N 
ATOM      5  C   UNL     1      34.362 -19.414 -21.069  0.00  0.00    +0.254 C 
ATOM      6  H   UNL     1      36.242 -20.035 -20.630  0.00  0.00    +0.155 HD
BRANCH   4   7
ATOM      7  C   UNL     1      35.098 -20.859 -19.142  0.00  0.00    +0.050 C 
ATOM      8  C   UNL     1      36.090 -20.913 -18.178  0.00  0.00    +0.020 C 
ATOM      9  C   UNL     1      35.880 -21.670 -17.025  0.00  0.00    +0.095 C 
ATOM     10  C   UNL     1      33.901 -21.537 -18.987  0.00  0.00    +0.016 C 
ATOM     11  C   UNL     1      34.679 -22.359 -16.852  0.00  0.00    +0.147 C 
ATOM     12  C   UNL     1      33.690 -22.293 -17.834  0.00  0.00    +0.025 C 
BRANCH   9  16
ATOM     13  F   UNL     1      36.494 -21.650 -14.712  0.00  0.00    -0.166 F 
ATOM     14  F   UNL     1      37.707 -22.861 -16.042  0.00  0.00    -0.166 F 
ATOM     15  F   UNL     1      37.848 -20.692 -16.118  0.00  0.00    -0.166 F 
ATOM     16  C   UNL     1      36.961 -21.719 -15.992  0.00  0.00    +0.420 C 
ENDBRANCH   9  16
BRANCH  11  19
ATOM     17  O   UNL     1      34.946 -24.282 -15.607  0.00  0.00    -0.126 OA
ATOM     18  O   UNL     1      33.740 -22.651 -14.767  0.00  0.00    -0.126 OA
ATOM     19  N   UNL     1      34.443 -23.136 -15.684  0.00  0.00    +0.058 N 
ENDBRANCH  11  19
ENDBRANCH   4   7
ENDBRANCH   1   5
BRANCH   1  20
ATOM     20  O   UNL     1      35.006 -19.615 -23.367  0.00  0.00    -0.375 OA
ATOM     21  H   UNL     1      35.928 -19.841 -23.572  0.00  0.00    +0.211 HD
ENDBRANCH   1  20
BRANCH   1  22
ATOM     22  C   UNL     1      34.132 -17.488 -22.736  0.00  0.00    +0.241 C 
BRANCH  22  23
ATOM     23  O   UNL     1      34.831 -16.266 -22.524  0.00  0.00    -0.468 OA
BRANCH  23  29
ATOM     24  F   UNL     1      34.062 -15.224 -24.952  0.00  0.00    -0.198 F 
ATOM     25  F   UNL     1      34.089 -14.967 -20.215  0.00  0.00    -0.198 F 
ATOM     26  F   UNL     1      32.611 -12.675 -20.335  0.00  0.00    -0.199 F 
ATOM     27  F   UNL     1      32.585 -12.932 -25.063  0.00  0.00    -0.199 F 
ATOM     28  F   UNL     1      31.857 -11.656 -22.757  0.00  0.00    -0.199 F 
ATOM     29  C   UNL     1      34.090 -15.116 -22.582  0.00  0.00    +0.198 A 
ATOM     30  C   UNL     1      33.709 -14.603 -23.818  0.00  0.00    +0.206 A 
ATOM     31  C   UNL     1      33.723 -14.472 -21.405  0.00  0.00    +0.206 A 
ATOM     32  C   UNL     1      32.968 -13.300 -21.465  0.00  0.00    +0.200 A 
ATOM     33  C   UNL     1      32.954 -13.432 -23.877  0.00  0.00    +0.200 A 
ATOM     34  C   UNL     1      32.584 -12.780 -22.701  0.00  0.00    +0.199 A 
ENDBRANCH  23  29
ENDBRANCH  22  23
ENDBRANCH   1  22
TORSDOF 8
ENDMDL
MODEL 3
REMARK VINA RESULT:     -12.2      1.667      2.855
REMARK  Name = 10174090
REMARK  8 active torsions:
REMARK  status: ('A' for Active; 'I' for Inactive)
REMARK    1  A    between atoms: C_1  and  C_5
REMARK    2  A    between atoms: C_1  and  O_20
REMARK    3  A    between atoms: C_1  and  C_22
REMARK    4  A    between atoms: N_4  and  C_7
REMARK    5  A    between atoms: C_9  and  C_16
REMARK    6  A    between atoms: C_11  and  N_19
REMARK    7  A    between atoms: C_22  and  O_23
REMARK    8  A    between atoms: O_23  and  C_29
REMARK                            x       y       z     vdW  Elec       q    Type
REMARK                         _______ _______ _______ _____ _____    ______ ____
ROOT
ATOM      1  C   UNL     1      35.093 -18.684 -21.937  0.00  0.00    +0.197 C 
ATOM      2  C   UNL     1      36.520 -18.199 -21.667  0.00  0.00    +0.043 C 
ENDROOT
BRANCH   1   5
ATOM      3  O   UNL     1      33.346 -19.644 -20.582  0.00  0.00    -0.272 OA
ATOM      4  N   UNL     1      35.569 -20.014 -19.944  0.00  0.00    -0.282 N 
ATOM      5  C   UNL     1      34.555 -19.501 -20.747  0.00  0.00    +0.254 C 
ATOM      6  H   UNL     1      36.489 -19.804 -20.220  0.00  0.00    +0.155 HD
BRANCH   4   7
ATOM      7  C   UNL     1      35.430 -20.805 -18.778  0.00  0.00    +0.050 C 
ATOM      8  C   UNL     1      34.209 -21.396 -18.503  0.00  0.00    +0.020 C 
ATOM      9  C   UNL     1      34.071 -22.174 -17.353  0.00  0.00    +0.095 C 
ATOM     10  C   UNL     1      36.518 -20.969 -17.938  0.00  0.00    +0.016 C 
ATOM     11  C   UNL     1      35.157 -22.350 -16.496  0.00  0.00    +0.147 C 
ATOM     12  C   UNL     1      36.381 -21.747 -16.789  0.00  0.00    +0.025 C 
BRANCH   9  16
ATOM     13  F   UNL     1      32.397 -22.768 -15.751  0.00  0.00    -0.166 F 
ATOM     14  F   UNL     1      31.709 -22.216 -17.731  0.00  0.00    -0.166 F 
ATOM     15  F   UNL     1      32.709 -24.122 -17.423  0.00  0.00    -0.166 F 
ATOM     16  C   UNL     1      32.746 -22.806 -17.069  0.00  0.00    +0.420 C 
ENDBRANCH   9  16
BRANCH  11  19
ATOM     17  O   UNL     1      35.106 -24.387 -15.417  0.00  0.00    -0.126 OA
ATOM     18  O   UNL     1      34.875 -22.563 -14.218  0.00  0.00    -0.126 OA
ATOM     19  N   UNL     1      35.040 -23.139 -15.319  0.00  0.00    +0.058 N 
ENDBRANCH  11  19
ENDBRANCH   4   7
ENDBRANCH   1   5
BRANCH   1  20
ATOM     20  O   UNL     1      35.136 -19.552 -23.070  0.00  0.00    -0.375 OA
ATOM     21  H   UNL     1      34.315 -20.067 -23.113  0.00  0.00    +0.211 HD
ENDBRANCH   1  20
BRANCH   1  22
ATOM     22  C   UNL     1      34.182 -17.505 -22.302  0.00  0.00    +0.241 C 
BRANCH  22  23
ATOM     23  O   UNL     1      34.904 -16.278 -22.281  0.00  0.00    -0.468 OA
BRANCH  23  29
ATOM     24  F   UNL     1      34.256 -15.319 -24.778  0.00  0.00    -0.198 F 
ATOM     25  F   UNL     1      34.053 -14.900 -20.056  0.00  0.00    -0.198 F 
ATOM     26  F   UNL     1      32.587 -12.613 -20.326  0.00  0.00    -0.199 F 
ATOM     27  F   UNL     1      32.790 -13.031 -25.039  0.00  0.00    -0.199 F 
ATOM     28  F   UNL     1      31.954 -11.677 -22.815  0.00  0.00    -0.199 F 
ATOM     29  C   UNL     1      34.168 -15.130 -22.414  0.00  0.00    +0.198 A 
ATOM     30  C   UNL     1      33.849 -14.659 -23.684  0.00  0.00    +0.206 A 
ATOM     31  C   UNL     1      33.746 -14.446 -21.279  0.00  0.00    +0.206 A 
ATOM     32  C   UNL     1      32.997 -13.277 -21.415  0.00  0.00    +0.200 A 
ATOM     33  C   UNL     1      33.101 -13.490 -23.820  0.00  0.00    +0.200 A 
ATOM     34  C   UNL     1      32.674 -12.799 -22.685  0.00  0.00    +0.199 A 
ENDBRANCH  23  29
ENDBRANCH  22  23
ENDBRANCH   1  22
TORSDOF 8
ENDMDL
MODEL 4
REMARK VINA RESULT:     -12.2      1.669      2.153
REMARK  Name = 10174090
REMARK  8 active torsions:
REMARK  status: ('A' for Active; 'I' for Inactive)
REMARK    1  A    between atoms: C_1  and  C_5
REMARK    2  A    between atoms: C_1  and  O_20
REMARK    3  A    between atoms: C_1  and  C_22
REMARK    4  A    between atoms: N_4  and  C_7
REMARK    5  A    between atoms: C_9  and  C_16
REMARK    6  A    between atoms: C_11  and  N_19
REMARK    7  A    between atoms: C_22  and  O_23
REMARK    8  A    between atoms: O_23  and  C_29
REMARK                            x       y       z     vdW  Elec       q    Type
REMARK                         _______ _______ _______ _____ _____    ______ ____
ROOT
ATOM      1  C   UNL     1      35.085 -18.666 -21.937  0.00  0.00    +0.197 C 
ATOM      2  C   UNL     1      36.508 -18.177 -21.656  0.00  0.00    +0.043 C 
ENDROOT
BRANCH   1   5
ATOM      3  O   UNL     1      33.337 -19.653 -20.602  0.00  0.00    -0.272 OA
ATOM      4  N   UNL     1      35.557 -19.999 -19.945  0.00  0.00    -0.282 N 
ATOM      5  C   UNL     1      34.545 -19.495 -20.755  0.00  0.00    +0.254 C 
ATOM      6  H   UNL     1      36.478 -19.776 -20.211  0.00  0.00    +0.155 HD
BRANCH   4   7
ATOM      7  C   UNL     1      35.417 -20.796 -18.783  0.00  0.00    +0.050 C 
ATOM      8  C   UNL     1      34.193 -21.381 -18.508  0.00  0.00    +0.020 C 
ATOM      9  C   UNL     1      34.053 -22.165 -17.362  0.00  0.00    +0.095 C 
ATOM     10  C   UNL     1      36.507 -20.973 -17.948  0.00  0.00    +0.016 C 
ATOM     11  C   UNL     1      35.142 -22.354 -16.510  0.00  0.00    +0.147 C 
ATOM     12  C   UNL     1      36.368 -21.757 -16.803  0.00  0.00    +0.025 C 
BRANCH   9  16
ATOM     13  F   UNL     1      32.381 -22.760 -15.758  0.00  0.00    -0.166 F 
ATOM     14  F   UNL     1      31.690 -22.188 -17.732  0.00  0.00    -0.166 F 
ATOM     15  F   UNL     1      32.678 -24.103 -17.442  0.00  0.00    -0.166 F 
ATOM     16  C   UNL     1      32.725 -22.790 -17.078  0.00  0.00    +0.420 C 
ENDBRANCH   9  16
BRANCH  11  19
ATOM     17  O   UNL     1      35.074 -24.398 -15.445  0.00  0.00    -0.126 OA
ATOM     18  O   UNL     1      34.871 -22.579 -14.231  0.00  0.00    -0.126 OA
ATOM     19  N   UNL     1      35.023 -23.150 -15.337  0.00  0.00    +0.058 N 
ENDBRANCH  11  19
ENDBRANCH   4   7
ENDBRANCH   1   5
BRANCH   1  20
ATOM     20  O   UNL     1      35.137 -19.526 -23.076  0.00  0.00    -0.375 OA
ATOM     21  H   UNL     1      36.063 -19.707 -23.302  0.00  0.00    +0.211 HD
ENDBRANCH   1  20
BRANCH   1  22
ATOM     22  C   UNL     1      34.170 -17.490 -22.298  0.00  0.00    +0.241 C 
BRANCH  22  23
ATOM     23  O   UNL     1      34.892 -16.262 -22.291  0.00  0.00    -0.468 OA
BRANCH  23  29
ATOM     24  F   UNL     1      34.046 -14.883 -20.065  0.00  0.00    -0.198 F 
ATOM     25  F   UNL     1      34.238 -15.305 -24.787  0.00  0.00    -0.198 F 
ATOM     26  F   UNL     1      32.771 -13.018 -25.047  0.00  0.00    -0.199 F 
ATOM     27  F   UNL     1      32.579 -12.597 -20.334  0.00  0.00    -0.199 F 
ATOM     28  F   UNL     1      31.940 -11.662 -22.823  0.00  0.00    -0.199 F 
ATOM     29  C   UNL     1      34.155 -15.115 -22.424  0.00  0.00    +0.198 A 
ATOM     30  C   UNL     1      33.736 -14.430 -21.288  0.00  0.00    +0.206 A 
ATOM     31  C   UNL     1      33.834 -14.645 -23.693  0.00  0.00    +0.206 A 
ATOM     32  C   UNL     1      33.084 -13.477 -23.827  0.00  0.00    +0.200 A 
ATOM     33  C   UNL     1      32.986 -13.262 -21.423  0.00  0.00    +0.200 A 
ATOM     34  C   UNL     1      32.659 -12.785 -22.693  0.00  0.00    +0.199 A 
ENDBRANCH  23  29
ENDBRANCH  22  23
ENDBRANCH   1  22
TORSDOF 8
ENDMDL
MODEL 5
REMARK VINA RESULT:     -11.6      3.464      9.766
REMARK  Name = 10174090
REMARK  8 active torsions:
REMARK  status: ('A' for Active; 'I' for Inactive)
REMARK    1  A    between atoms: C_1  and  C_5
REMARK    2  A    between atoms: C_1  and  O_20
REMARK    3  A    between atoms: C_1  and  C_22
REMARK    4  A    between atoms: N_4  and  C_7
REMARK    5  A    between atoms: C_9  and  C_16
REMARK    6  A    between atoms: C_11  and  N_19
REMARK    7  A    between atoms: C_22  and  O_23
REMARK    8  A    between atoms: O_23  and  C_29
REMARK                            x       y       z     vdW  Elec       q    Type
REMARK                         _______ _______ _______ _____ _____    ______ ____
ROOT
ATOM      1  C   UNL     1      35.048 -17.626 -22.332  0.00  0.00    +0.197 C 
ATOM      2  C   UNL     1      34.913 -18.653 -23.458  0.00  0.00    +0.043 C 
ENDROOT
BRANCH   1   5
ATOM      3  O   UNL     1      34.003 -16.067 -23.844  0.00  0.00    -0.272 OA
ATOM      4  N   UNL     1      34.029 -15.544 -21.562  0.00  0.00    -0.282 N 
ATOM      5  C   UNL     1      34.299 -16.326 -22.680  0.00  0.00    +0.254 C 
ATOM      6  H   UNL     1      34.336 -15.901 -20.698  0.00  0.00    +0.155 HD
BRANCH   4   7
ATOM      7  C   UNL     1      33.360 -14.297 -21.521  0.00  0.00    +0.050 C 
ATOM      8  C   UNL     1      33.520 -13.409 -22.572  0.00  0.00    +0.020 C 
ATOM      9  C   UNL     1      32.863 -12.179 -22.531  0.00  0.00    +0.095 C 
ATOM     10  C   UNL     1      32.561 -13.992 -20.432  0.00  0.00    +0.016 C 
ATOM     11  C   UNL     1      32.054 -11.856 -21.441  0.00  0.00    +0.147 C 
ATOM     12  C   UNL     1      31.903 -12.763 -20.392  0.00  0.00    +0.025 C 
BRANCH   9  16
ATOM     13  F   UNL     1      31.916 -10.533 -23.987  0.00  0.00    -0.166 F 
ATOM     14  F   UNL     1      34.000 -10.283 -23.444  0.00  0.00    -0.166 F 
ATOM     15  F   UNL     1      33.420 -11.862 -24.821  0.00  0.00    -0.166 F 
ATOM     16  C   UNL     1      33.046 -11.230 -23.672  0.00  0.00    +0.420 C 
ENDBRANCH   9  16
BRANCH  11  19
ATOM     17  O   UNL     1      32.017  -9.585 -21.047  0.00  0.00    -0.126 OA
ATOM     18  O   UNL     1      30.153 -10.570 -21.660  0.00  0.00    -0.126 OA
ATOM     19  N   UNL     1      31.374 -10.608 -21.379  0.00  0.00    +0.058 N 
ENDBRANCH  11  19
ENDBRANCH   4   7
ENDBRANCH   1   5
BRANCH   1  20
ATOM     20  O   UNL     1      36.433 -17.303 -22.201  0.00  0.00    -0.375 OA
ATOM     21  H   UNL     1      36.782 -17.024 -23.062  0.00  0.00    +0.211 HD
ENDBRANCH   1  20
BRANCH   1  22
ATOM     22  C   UNL     1      34.595 -18.227 -20.995  0.00  0.00    +0.241 C 
BRANCH  22  23
ATOM     23  O   UNL     1      34.162 -19.573 -21.162  0.00  0.00    -0.468 OA
BRANCH  23  29
ATOM     24  F   UNL     1      31.793 -20.489 -20.103  0.00  0.00    -0.198 F 
ATOM     25  F   UNL     1      36.529 -20.265 -19.943  0.00  0.00    -0.198 F 
ATOM     26  F   UNL     1      36.525 -21.838 -17.712  0.00  0.00    -0.199 F 
ATOM     27  F   UNL     1      31.797 -22.062 -17.872  0.00  0.00    -0.199 F 
ATOM     28  F   UNL     1      34.160 -22.738 -16.675  0.00  0.00    -0.199 F 
ATOM     29  C   UNL     1      34.162 -20.362 -20.043  0.00  0.00    +0.198 A 
ATOM     30  C   UNL     1      32.955 -20.817 -19.520  0.00  0.00    +0.206 A 
ATOM     31  C   UNL     1      35.367 -20.703 -19.439  0.00  0.00    +0.206 A 
ATOM     32  C   UNL     1      35.366 -21.506 -18.299  0.00  0.00    +0.200 A 
ATOM     33  C   UNL     1      32.955 -21.621 -18.381  0.00  0.00    +0.200 A 
ATOM     34  C   UNL     1      34.161 -21.965 -17.770  0.00  0.00    +0.199 A 
ENDBRANCH  23  29
ENDBRANCH  22  23
ENDBRANCH   1  22
TORSDOF 8
ENDMDL
MODEL 6
REMARK VINA RESULT:     -11.6      3.457      9.758
REMARK  Name = 10174090
REMARK  8 active torsions:
REMARK  status: ('A' for Active; 'I' for Inactive)
REMARK    1  A    between atoms: C_1  and  C_5
REMARK    2  A    between atoms: C_1  and  O_20
REMARK    3  A    between atoms: C_1  and  C_22
REMARK    4  A    between atoms: N_4  and  C_7
REMARK    5  A    between atoms: C_9  and  C_16
REMARK    6  A    between atoms: C_11  and  N_19
REMARK    7  A    between atoms: C_22  and  O_23
REMARK    8  A    between atoms: O_23  and  C_29
REMARK                            x       y       z     vdW  Elec       q    Type
REMARK                         _______ _______ _______ _____ _____    ______ ____
ROOT
ATOM      1  C   UNL     1      35.051 -17.648 -22.327  0.00  0.00    +0.197 C 
ATOM      2  C   UNL     1      34.899 -18.682 -23.445  0.00  0.00    +0.043 C 
ENDROOT
BRANCH   1   5
ATOM      3  O   UNL     1      34.009 -16.087 -23.841  0.00  0.00    -0.272 OA
ATOM      4  N   UNL     1      34.036 -15.563 -21.559  0.00  0.00    -0.282 N 
ATOM      5  C   UNL     1      34.305 -16.346 -22.676  0.00  0.00    +0.254 C 
ATOM      6  H   UNL     1      34.343 -15.920 -20.694  0.00  0.00    +0.155 HD
BRANCH   4   7
ATOM      7  C   UNL     1      33.370 -14.315 -21.519  0.00  0.00    +0.050 C 
ATOM      8  C   UNL     1      33.508 -13.440 -22.583  0.00  0.00    +0.020 C 
ATOM      9  C   UNL     1      32.853 -12.208 -22.544  0.00  0.00    +0.095 C 
ATOM     10  C   UNL     1      32.595 -13.996 -20.417  0.00  0.00    +0.016 C 
ATOM     11  C   UNL     1      32.068 -11.871 -21.441  0.00  0.00    +0.147 C 
ATOM     12  C   UNL     1      31.940 -12.765 -20.378  0.00  0.00    +0.025 C 
BRANCH   9  16
ATOM     13  F   UNL     1      33.342 -11.901 -24.865  0.00  0.00    -0.166 F 
ATOM     14  F   UNL     1      31.884 -10.561 -23.983  0.00  0.00    -0.166 F 
ATOM     15  F   UNL     1      33.991 -10.348 -23.490  0.00  0.00    -0.166 F 
ATOM     16  C   UNL     1      33.013 -11.274 -23.700  0.00  0.00    +0.420 C 
ENDBRANCH   9  16
BRANCH  11  19
ATOM     17  O   UNL     1      30.164 -10.585 -21.632  0.00  0.00    -0.126 OA
ATOM     18  O   UNL     1      32.042  -9.595 -21.073  0.00  0.00    -0.126 OA
ATOM     19  N   UNL     1      31.392 -10.622 -21.379  0.00  0.00    +0.058 N 
ENDBRANCH  11  19
ENDBRANCH   4   7
ENDBRANCH   1   5
BRANCH   1  20
ATOM     20  O   UNL     1      36.439 -17.330 -22.214  0.00  0.00    -0.375 OA
ATOM     21  H   UNL     1      36.688 -17.299 -21.277  0.00  0.00    +0.211 HD
ENDBRANCH   1  20
BRANCH   1  22
ATOM     22  C   UNL     1      34.610 -18.237 -20.981  0.00  0.00    +0.241 C 
BRANCH  22  23
ATOM     23  O   UNL     1      34.124 -19.566 -21.141  0.00  0.00    -0.468 OA
BRANCH  23  29
ATOM     24  F   UNL     1      36.502 -20.249 -19.938  0.00  0.00    -0.198 F 
ATOM     25  F   UNL     1      31.767 -20.503 -20.076  0.00  0.00    -0.198 F 
ATOM     26  F   UNL     1      31.791 -22.090 -17.855  0.00  0.00    -0.199 F 
ATOM     27  F   UNL     1      36.518 -21.837 -17.717  0.00  0.00    -0.199 F 
ATOM     28  F   UNL     1      34.164 -22.758 -16.674  0.00  0.00    -0.199 F 
ATOM     29  C   UNL     1      34.134 -20.362 -20.028  0.00  0.00    +0.198 A 
ATOM     30  C   UNL     1      35.345 -20.698 -19.431  0.00  0.00    +0.206 A 
ATOM     31  C   UNL     1      32.934 -20.828 -19.501  0.00  0.00    +0.206 A 
ATOM     32  C   UNL     1      32.944 -21.639 -18.367  0.00  0.00    +0.200 A 
ATOM     33  C   UNL     1      35.356 -21.509 -18.297  0.00  0.00    +0.200 A 
ATOM     34  C   UNL     1      34.155 -21.980 -17.764  0.00  0.00    +0.199 A 
ENDBRANCH  23  29
ENDBRANCH  22  23
ENDBRANCH   1  22
TORSDOF 8
ENDMDL
MODEL 7
REMARK VINA RESULT:     -11.5      3.801     10.099
REMARK  Name = 10174090
REMARK  8 active torsions:
REMARK  status: ('A' for Active; 'I' for Inactive)
REMARK    1  A    between atoms: C_1  and  C_5
REMARK    2  A    between atoms: C_1  and  O_20
REMARK    3  A    between atoms: C_1  and  C_22
REMARK    4  A    between atoms: N_4  and  C_7
REMARK    5  A    between atoms: C_9  and  C_16
REMARK    6  A    between atoms: C_11  and  N_19
REMARK    7  A    between atoms: C_22  and  O_23
REMARK    8  A    between atoms: O_23  and  C_29
REMARK                            x       y       z     vdW  Elec       q    Type
REMARK                         _______ _______ _______ _____ _____    ______ ____
ROOT
ATOM      1  C   UNL     1      34.496 -16.962 -22.136  0.00  0.00    +0.197 C 
ATOM      2  C   UNL     1      34.123 -17.282 -23.585  0.00  0.00    +0.043 C 
ENDROOT
BRANCH   1   5
ATOM      3  O   UNL     1      34.424 -15.040 -20.682  0.00  0.00    -0.272 OA
ATOM      4  N   UNL     1      33.652 -14.794 -22.879  0.00  0.00    -0.282 N 
ATOM      5  C   UNL     1      34.192 -15.489 -21.802  0.00  0.00    +0.254 C 
ATOM      6  H   UNL     1      33.531 -15.307 -23.710  0.00  0.00    +0.155 HD
BRANCH   4   7
ATOM      7  C   UNL     1      33.260 -13.434 -22.920  0.00  0.00    +0.050 C 
ATOM      8  C   UNL     1      32.558 -12.900 -21.853  0.00  0.00    +0.020 C 
ATOM      9  C   UNL     1      32.170 -11.561 -21.894  0.00  0.00    +0.095 C 
ATOM     10  C   UNL     1      33.588 -12.668 -24.026  0.00  0.00    +0.016 C 
ATOM     11  C   UNL     1      32.491 -10.775 -23.001  0.00  0.00    +0.147 C 
ATOM     12  C   UNL     1      33.200 -11.329 -24.067  0.00  0.00    +0.025 C 
BRANCH   9  16
ATOM     13  F   UNL     1      31.500 -11.759 -19.606  0.00  0.00    -0.166 F 
ATOM     14  F   UNL     1      31.830  -9.754 -20.363  0.00  0.00    -0.166 F 
ATOM     15  F   UNL     1      30.078 -10.877 -20.994  0.00  0.00    -0.166 F 
ATOM     16  C   UNL     1      31.411 -10.998 -20.734  0.00  0.00    +0.420 C 
ENDBRANCH   9  16
BRANCH  11  19
ATOM     17  O   UNL     1      30.896  -9.126 -23.228  0.00  0.00    -0.126 OA
ATOM     18  O   UNL     1      32.989  -8.524 -22.951  0.00  0.00    -0.126 OA
ATOM     19  N   UNL     1      32.106  -9.407 -23.063  0.00  0.00    +0.058 N 
ENDBRANCH  11  19
ENDBRANCH   4   7
ENDBRANCH   1   5
BRANCH   1  20
ATOM     20  O   UNL     1      35.905 -17.152 -21.997  0.00  0.00    -0.375 OA
ATOM     21  H   UNL     1      36.371 -16.378 -22.349  0.00  0.00    +0.211 HD
ENDBRANCH   1  20
BRANCH   1  22
ATOM     22  C   UNL     1      33.810 -17.939 -21.173  0.00  0.00    +0.241 C 
BRANCH  22  23
ATOM     23  O   UNL     1      34.255 -19.273 -21.396  0.00  0.00    -0.468 OA
BRANCH  23  29
ATOM     24  F   UNL     1      31.909 -20.338 -20.431  0.00  0.00    -0.198 F 
ATOM     25  F   UNL     1      36.625 -19.906 -20.149  0.00  0.00    -0.198 F 
ATOM     26  F   UNL     1      36.644 -21.569 -17.984  0.00  0.00    -0.199 F 
ATOM     27  F   UNL     1      31.936 -22.000 -18.266  0.00  0.00    -0.199 F 
ATOM     28  F   UNL     1      34.301 -22.617 -17.041  0.00  0.00    -0.199 F 
ATOM     29  C   UNL     1      34.267 -20.106 -20.309  0.00  0.00    +0.198 A 
ATOM     30  C   UNL     1      33.072 -20.637 -19.835  0.00  0.00    +0.206 A 
ATOM     31  C   UNL     1      35.473 -20.417 -19.690  0.00  0.00    +0.206 A 
ATOM     32  C   UNL     1      35.484 -21.266 -18.584  0.00  0.00    +0.200 A 
ATOM     33  C   UNL     1      33.083 -21.486 -18.728  0.00  0.00    +0.200 A 
ATOM     34  C   UNL     1      34.290 -21.800 -18.103  0.00  0.00    +0.199 A 
ENDBRANCH  23  29
ENDBRANCH  22  23
ENDBRANCH   1  22
TORSDOF 8
ENDMDL
MODEL 8
REMARK VINA RESULT:     -11.3      3.531      4.728
REMARK  Name = 10174090
REMARK  8 active torsions:
REMARK  status: ('A' for Active; 'I' for Inactive)
REMARK    1  A    between atoms: C_1  and  C_5
REMARK    2  A    between atoms: C_1  and  O_20
REMARK    3  A    between atoms: C_1  and  C_22
REMARK    4  A    between atoms: N_4  and  C_7
REMARK    5  A    between atoms: C_9  and  C_16
REMARK    6  A    between atoms: C_11  and  N_19
REMARK    7  A    between atoms: C_22  and  O_23
REMARK    8  A    between atoms: O_23  and  C_29
REMARK                            x       y       z     vdW  Elec       q    Type
REMARK                         _______ _______ _______ _____ _____    ______ ____
ROOT
ATOM      1  C   UNL     1      34.331 -21.053 -19.741  0.00  0.00    +0.197 C 
ATOM      2  C   UNL     1      35.631 -20.621 -19.058  0.00  0.00    +0.043 C 
ENDROOT
BRANCH   1   5
ATOM      3  O   UNL     1      32.107 -20.837 -18.835  0.00  0.00    -0.272 OA
ATOM      4  N   UNL     1      33.657 -22.141 -17.660  0.00  0.00    -0.282 N 
ATOM      5  C   UNL     1      33.228 -21.324 -18.700  0.00  0.00    +0.254 C 
ATOM      6  H   UNL     1      34.592 -22.447 -17.705  0.00  0.00    +0.155 HD
BRANCH   4   7
ATOM      7  C   UNL     1      32.907 -22.587 -16.545  0.00  0.00    +0.050 C 
ATOM      8  C   UNL     1      31.528 -22.460 -16.564  0.00  0.00    +0.020 C 
ATOM      9  C   UNL     1      30.788 -22.897 -15.465  0.00  0.00    +0.095 C 
ATOM     10  C   UNL     1      33.568 -23.139 -15.461  0.00  0.00    +0.016 C 
ATOM     11  C   UNL     1      31.438 -23.456 -14.364  0.00  0.00    +0.147 C 
ATOM     12  C   UNL     1      32.828 -23.577 -14.363  0.00  0.00    +0.025 C 
BRANCH   9  16
ATOM     13  F   UNL     1      28.637 -23.943 -15.444  0.00  0.00    -0.166 F 
ATOM     14  F   UNL     1      28.802 -22.016 -14.463  0.00  0.00    -0.166 F 
ATOM     15  F   UNL     1      28.862 -22.138 -16.634  0.00  0.00    -0.166 F 
ATOM     16  C   UNL     1      29.300 -22.753 -15.498  0.00  0.00    +0.420 C 
ENDBRANCH   9  16
BRANCH  11  19
ATOM     17  O   UNL     1      30.556 -23.134 -12.258  0.00  0.00    -0.126 OA
ATOM     18  O   UNL     1      30.227 -25.068 -13.246  0.00  0.00    -0.126 OA
ATOM     19  N   UNL     1      30.704 -23.909 -13.233  0.00  0.00    +0.058 N 
ENDBRANCH  11  19
ENDBRANCH   4   7
ENDBRANCH   1   5
BRANCH   1  20
ATOM     20  O   UNL     1      34.586 -22.279 -20.426  0.00  0.00    -0.375 OA
ATOM     21  H   UNL     1      35.458 -22.238 -20.850  0.00  0.00    +0.211 HD
ENDBRANCH   1  20
BRANCH   1  22
ATOM     22  C   UNL     1      33.907 -20.023 -20.795  0.00  0.00    +0.241 C 
BRANCH  22  23
ATOM     23  O   UNL     1      34.953 -19.090 -21.046  0.00  0.00    -0.468 OA
BRANCH  23  29
ATOM     24  F   UNL     1      34.962 -16.524 -20.052  0.00  0.00    -0.198 F 
ATOM     25  F   UNL     1      34.327 -19.497 -23.695  0.00  0.00    -0.198 F 
ATOM     26  F   UNL     1      33.723 -17.382 -25.311  0.00  0.00    -0.199 F 
ATOM     27  F   UNL     1      34.357 -14.415 -21.675  0.00  0.00    -0.199 F 
ATOM     28  F   UNL     1      33.738 -14.840 -24.304  0.00  0.00    -0.199 F 
ATOM     29  C   UNL     1      34.650 -18.031 -21.859  0.00  0.00    +0.198 A 
ATOM     30  C   UNL     1      34.659 -16.740 -21.340  0.00  0.00    +0.206 A 
ATOM     31  C   UNL     1      34.335 -18.253 -23.195  0.00  0.00    +0.206 A 
ATOM     32  C   UNL     1      34.026 -17.174 -24.022  0.00  0.00    +0.200 A 
ATOM     33  C   UNL     1      34.350 -15.660 -22.167  0.00  0.00    +0.200 A 
ATOM     34  C   UNL     1      34.034 -15.877 -23.509  0.00  0.00    +0.199 A 
ENDBRANCH  23  29
ENDBRANCH  22  23
ENDBRANCH   1  22
TORSDOF 8
ENDMDL
MODEL 9
REMARK VINA RESULT:     -11.3      3.522      4.985
REMARK  Name = 10174090
REMARK  8 active torsions:
REMARK  status: ('A' for Active; 'I' for Inactive)
REMARK    1  A    between atoms: C_1  and  C_5
REMARK    2  A    between atoms: C_1  and  O_20
REMARK    3  A    between atoms: C_1  and  C_22
REMARK    4  A    between atoms: N_4  and  C_7
REMARK    5  A    between atoms: C_9  and  C_16
REMARK    6  A    between atoms: C_11  and  N_19
REMARK    7  A    between atoms: C_22  and  O_23
REMARK    8  A    between atoms: O_23  and  C_29
REMARK                            x       y       z     vdW  Elec       q    Type
REMARK                         _______ _______ _______ _____ _____    ______ ____
ROOT
ATOM      1  C   UNL     1      34.379 -21.047 -19.750  0.00  0.00    +0.197 C 
ATOM      2  C   UNL     1      35.668 -20.599 -19.058  0.00  0.00    +0.043 C 
ENDROOT
BRANCH   1   5
ATOM      3  O   UNL     1      32.148 -20.835 -18.862  0.00  0.00    -0.272 OA
ATOM      4  N   UNL     1      33.690 -22.138 -17.676  0.00  0.00    -0.282 N 
ATOM      5  C   UNL     1      33.267 -21.320 -18.719  0.00  0.00    +0.254 C 
ATOM      6  H   UNL     1      34.625 -22.442 -17.714  0.00  0.00    +0.155 HD
BRANCH   4   7
ATOM      7  C   UNL     1      32.932 -22.586 -16.567  0.00  0.00    +0.050 C 
ATOM      8  C   UNL     1      31.552 -22.472 -16.602  0.00  0.00    +0.020 C 
ATOM      9  C   UNL     1      30.804 -22.912 -15.509  0.00  0.00    +0.095 C 
ATOM     10  C   UNL     1      33.586 -23.126 -15.473  0.00  0.00    +0.016 C 
ATOM     11  C   UNL     1      31.448 -23.459 -14.398  0.00  0.00    +0.147 C 
ATOM     12  C   UNL     1      32.838 -23.565 -14.381  0.00  0.00    +0.025 C 
BRANCH   9  16
ATOM     13  F   UNL     1      28.665 -23.982 -15.554  0.00  0.00    -0.166 F 
ATOM     14  F   UNL     1      28.794 -22.086 -14.509  0.00  0.00    -0.166 F 
ATOM     15  F   UNL     1      28.887 -22.137 -16.681  0.00  0.00    -0.166 F 
ATOM     16  C   UNL     1      29.315 -22.783 -15.560  0.00  0.00    +0.420 C 
ENDBRANCH   9  16
BRANCH  11  19
ATOM     17  O   UNL     1      30.212 -25.065 -13.299  0.00  0.00    -0.126 OA
ATOM     18  O   UNL     1      30.568 -23.148 -12.290  0.00  0.00    -0.126 OA
ATOM     19  N   UNL     1      30.706 -23.913 -13.273  0.00  0.00    +0.058 N 
ENDBRANCH  11  19
ENDBRANCH   4   7
ENDBRANCH   1   5
BRANCH   1  20
ATOM     20  O   UNL     1      34.651 -22.276 -20.424  0.00  0.00    -0.375 OA
ATOM     21  H   UNL     1      35.025 -22.089 -21.300  0.00  0.00    +0.211 HD
ENDBRANCH   1  20
BRANCH   1  22
ATOM     22  C   UNL     1      33.956 -20.029 -20.816  0.00  0.00    +0.241 C 
BRANCH  22  23
ATOM     23  O   UNL     1      34.964 -19.042 -21.008  0.00  0.00    -0.468 OA
BRANCH  23  29
ATOM     24  F   UNL     1      34.354 -19.503 -23.652  0.00  0.00    -0.198 F 
ATOM     25  F   UNL     1      34.941 -16.459 -20.060  0.00  0.00    -0.198 F 
ATOM     26  F   UNL     1      34.322 -14.385 -21.721  0.00  0.00    -0.199 F 
ATOM     27  F   UNL     1      33.736 -17.422 -25.307  0.00  0.00    -0.199 F 
ATOM     28  F   UNL     1      33.719 -14.863 -24.345  0.00  0.00    -0.199 F 
ATOM     29  C   UNL     1      34.654 -18.000 -21.840  0.00  0.00    +0.198 A 
ATOM     30  C   UNL     1      34.348 -18.250 -23.174  0.00  0.00    +0.206 A 
ATOM     31  C   UNL     1      34.647 -16.700 -21.345  0.00  0.00    +0.206 A 
ATOM     32  C   UNL     1      34.331 -15.639 -22.193  0.00  0.00    +0.200 A 
ATOM     33  C   UNL     1      34.032 -17.189 -24.022  0.00  0.00    +0.200 A 
ATOM     34  C   UNL     1      34.023 -15.883 -23.531  0.00  0.00    +0.199 A 
ENDBRANCH  23  29
ENDBRANCH  22  23
ENDBRANCH   1  22
TORSDOF 8
ENDMDL
