MODEL 1
REMARK VINA RESULT:     -13.4      0.000      0.000
REMARK  Name = 11167602
REMARK  6 active torsions:
REMARK  status: ('A' for Active; 'I' for Inactive)
REMARK    1  A    between atoms: C_2  and  N_10
REMARK    2  A    between atoms: C_3  and  O_25
REMARK    3  A    between atoms: N_9  and  C_15
REMARK    4  A    between atoms: C_16  and  C_24
REMARK    5  A    between atoms: O_25  and  C_27
REMARK    6  A    between atoms: C_29  and  C_34
REMARK                            x       y       z     vdW  Elec       q    Type
REMARK                         _______ _______ _______ _____ _____    ______ ____
ROOT
ATOM      1  F   UNL     1      33.559 -13.555 -20.572  0.00  0.00    -0.203 F 
ATOM      2  C   UNL     1      32.826 -13.545 -22.831  0.00  0.00    +0.079 C 
ATOM      3  C   UNL     1      34.214 -15.902 -23.269  0.00  0.00    +0.148 C 
ATOM      4  C   UNL     1      33.534 -14.119 -21.787  0.00  0.00    +0.157 C 
ATOM      5  C   UNL     1      32.797 -14.126 -24.089  0.00  0.00    +0.020 C 
ATOM      6  C   UNL     1      34.233 -15.306 -22.008  0.00  0.00    +0.068 C 
ATOM      7  C   UNL     1      33.496 -15.312 -24.309  0.00  0.00    +0.039 C 
ENDROOT
BRANCH   2  10
ATOM      8  O   UNL     1      33.593 -10.717 -23.412  0.00  0.00    -0.252 OA
ATOM      9  N   UNL     1      31.511 -10.114 -22.522  0.00  0.00    -0.268 N 
ATOM     10  N   UNL     1      32.115 -12.342 -22.610  0.00  0.00    -0.266 N 
ATOM     11  C   UNL     1      32.522 -11.031 -22.902  0.00  0.00    +0.308 C 
ATOM     12  H   UNL     1      30.703 -10.512 -22.124  0.00  0.00    +0.156 HD
ATOM     13  H   UNL     1      31.225 -12.437 -22.200  0.00  0.00    +0.156 HD
BRANCH   9  15
ATOM     14 CL   UNL     1      31.509  -4.227 -23.047  0.00  0.00    -0.082 Cl
ATOM     15  C   UNL     1      31.509  -8.724 -22.636  0.00  0.00    +0.052 C 
ATOM     16  C   UNL     1      31.407  -6.539 -21.609  0.00  0.00    +0.083 C 
ATOM     17  C   UNL     1      31.408  -7.930 -21.493  0.00  0.00    +0.019 C 
ATOM     18  C   UNL     1      31.607  -8.128 -23.893  0.00  0.00    +0.016 C 
ATOM     19  C   UNL     1      31.506  -5.944 -22.866  0.00  0.00    +0.062 C 
ATOM     20  C   UNL     1      31.606  -6.738 -24.008  0.00  0.00    +0.013 C 
BRANCH  16  24
ATOM     21  F   UNL     1      32.366  -4.899 -20.157  0.00  0.00    -0.166 F 
ATOM     22  F   UNL     1      30.205  -4.911 -20.334  0.00  0.00    -0.166 F 
ATOM     23  F   UNL     1      31.213  -6.498 -19.240  0.00  0.00    -0.166 F 
ATOM     24  C   UNL     1      31.300  -5.725 -20.361  0.00  0.00    +0.419 C 
ENDBRANCH  16  24
ENDBRANCH   9  15
ENDBRANCH   2  10
BRANCH   3  25
ATOM     25  O   UNL     1      34.896 -17.060 -23.485  0.00  0.00    -0.453 OA
BRANCH  25  27
ATOM     26  N   UNL     1      35.601 -19.527 -20.216  0.00  0.00    -0.239 NA
ATOM     27  C   UNL     1      35.130 -17.882 -22.395  0.00  0.00    +0.149 C 
ATOM     28  C   UNL     1      34.087 -18.604 -21.858  0.00  0.00    +0.061 C 
ATOM     29  C   UNL     1      34.373 -19.412 -20.770  0.00  0.00    +0.137 C 
ATOM     30  C   UNL     1      36.404 -17.959 -21.872  0.00  0.00    +0.058 C 
ATOM     31  C   UNL     1      36.586 -18.795 -20.783  0.00  0.00    +0.102 C 
BRANCH  29  34
ATOM     32  O   UNL     1      32.149 -20.120 -20.547  0.00  0.00    -0.268 OA
ATOM     33  N   UNL     1      33.707 -21.067 -19.115  0.00  0.00    -0.298 N 
ATOM     34  C   UNL     1      33.325 -20.204 -20.149  0.00  0.00    +0.264 C 
ATOM     35  C   UNL     1      32.787 -21.935 -18.416  0.00  0.00    +0.111 C 
ATOM     36  H   UNL     1      34.654 -21.083 -18.848  0.00  0.00    +0.150 HD
ENDBRANCH  29  34
ENDBRANCH  25  27
ENDBRANCH   3  25
TORSDOF 6
ENDMDL
MODEL 2
REMARK VINA RESULT:     -13.3      7.212     13.507
REMARK  Name = 11167602
REMARK  6 active torsions:
REMARK  status: ('A' for Active; 'I' for Inactive)
REMARK    1  A    between atoms: C_2  and  N_10
REMARK    2  A    between atoms: C_3  and  O_25
REMARK    3  A    between atoms: N_9  and  C_15
REMARK    4  A    between atoms: C_16  and  C_24
REMARK    5  A    between atoms: O_25  and  C_27
REMARK    6  A    between atoms: C_29  and  C_34
REMARK                            x       y       z     vdW  Elec       q    Type
REMARK                         _______ _______ _______ _____ _____    ______ ____
ROOT
ATOM      1  F   UNL     1      32.914 -20.692 -19.984  0.00  0.00    -0.203 F 
ATOM      2  C   UNL     1      35.237 -20.312 -19.675  0.00  0.00    +0.079 C 
ATOM      3  C   UNL     1      35.158 -18.361 -21.639  0.00  0.00    +0.148 C 
ATOM      4  C   UNL     1      34.036 -20.035 -20.307  0.00  0.00    +0.157 C 
ATOM      5  C   UNL     1      36.400 -19.634 -20.004  0.00  0.00    +0.020 C 
ATOM      6  C   UNL     1      33.996 -19.052 -21.296  0.00  0.00    +0.068 C 
ATOM      7  C   UNL     1      36.360 -18.652 -20.994  0.00  0.00    +0.039 C 
ENDROOT
BRANCH   2  10
ATOM      8  O   UNL     1      36.671 -20.346 -17.055  0.00  0.00    -0.252 OA
ATOM      9  N   UNL     1      35.751 -22.477 -16.735  0.00  0.00    -0.268 N 
ATOM     10  N   UNL     1      35.281 -21.308 -18.670  0.00  0.00    -0.266 N 
ATOM     11  C   UNL     1      35.974 -21.275 -17.451  0.00  0.00    +0.308 C 
ATOM     12  H   UNL     1      35.167 -23.135 -17.177  0.00  0.00    +0.156 HD
ATOM     13  H   UNL     1      34.761 -22.124 -18.850  0.00  0.00    +0.156 HD
BRANCH   9  15
ATOM     14 CL   UNL     1      37.832 -24.046 -11.429  0.00  0.00    -0.082 Cl
ATOM     15  C   UNL     1      36.250 -22.852 -15.487  0.00  0.00    +0.052 C 
ATOM     16  C   UNL     1      37.941 -23.944 -14.150  0.00  0.00    +0.083 C 
ATOM     17  C   UNL     1      37.443 -23.569 -15.399  0.00  0.00    +0.019 C 
ATOM     18  C   UNL     1      35.554 -22.511 -14.328  0.00  0.00    +0.016 C 
ATOM     19  C   UNL     1      37.245 -23.601 -12.992  0.00  0.00    +0.062 C 
ATOM     20  C   UNL     1      36.052 -22.885 -13.080  0.00  0.00    +0.013 C 
BRANCH  16  24
ATOM     21  F   UNL     1      40.210 -24.071 -13.404  0.00  0.00    -0.166 F 
ATOM     22  F   UNL     1      39.104 -25.934 -13.511  0.00  0.00    -0.166 F 
ATOM     23  F   UNL     1      39.740 -24.943 -15.339  0.00  0.00    -0.166 F 
ATOM     24  C   UNL     1      39.224 -24.708 -14.099  0.00  0.00    +0.419 C 
ENDBRANCH  16  24
ENDBRANCH   9  15
ENDBRANCH   2  10
BRANCH   3  25
ATOM     25  O   UNL     1      35.120 -17.401 -22.605  0.00  0.00    -0.453 OA
BRANCH  25  27
ATOM     26  N   UNL     1      33.446 -13.730 -21.609  0.00  0.00    -0.239 NA
ATOM     27  C   UNL     1      34.563 -16.178 -22.274  0.00  0.00    +0.149 C 
ATOM     28  C   UNL     1      34.225 -15.297 -23.278  0.00  0.00    +0.061 C 
ATOM     29  C   UNL     1      33.670 -14.086 -22.895  0.00  0.00    +0.137 C 
ATOM     30  C   UNL     1      34.358 -15.868 -20.946  0.00  0.00    +0.058 C 
ATOM     31  C   UNL     1      33.798 -14.633 -20.666  0.00  0.00    +0.102 C 
BRANCH  29  34
ATOM     32  O   UNL     1      33.441 -11.889 -23.680  0.00  0.00    -0.268 OA
ATOM     33  N   UNL     1      32.768 -13.594 -25.101  0.00  0.00    -0.298 N 
ATOM     34  C   UNL     1      33.287 -13.105 -23.896  0.00  0.00    +0.264 C 
ATOM     35  C   UNL     1      32.365 -12.748 -26.200  0.00  0.00    +0.111 C 
ATOM     36  H   UNL     1      32.672 -14.568 -25.204  0.00  0.00    +0.150 HD
ENDBRANCH  29  34
ENDBRANCH  25  27
ENDBRANCH   3  25
TORSDOF 6
ENDMDL
MODEL 3
REMARK VINA RESULT:     -13.1      1.784      2.238
REMARK  Name = 11167602
REMARK  6 active torsions:
REMARK  status: ('A' for Active; 'I' for Inactive)
REMARK    1  A    between atoms: C_2  and  N_10
REMARK    2  A    between atoms: C_3  and  O_25
REMARK    3  A    between atoms: N_9  and  C_15
REMARK    4  A    between atoms: C_16  and  C_24
REMARK    5  A    between atoms: O_25  and  C_27
REMARK    6  A    between atoms: C_29  and  C_34
REMARK                            x       y       z     vdW  Elec       q    Type
REMARK                         _______ _______ _______ _____ _____    ______ ____
ROOT
ATOM      1  F   UNL     1      33.688 -13.566 -20.620  0.00  0.00    -0.203 F 
ATOM      2  C   UNL     1      32.914 -13.555 -22.864  0.00  0.00    +0.079 C 
ATOM      3  C   UNL     1      34.179 -15.982 -23.291  0.00  0.00    +0.148 C 
ATOM      4  C   UNL     1      33.613 -14.146 -21.825  0.00  0.00    +0.157 C 
ATOM      5  C   UNL     1      32.832 -14.152 -24.112  0.00  0.00    +0.020 C 
ATOM      6  C   UNL     1      34.250 -15.368 -22.040  0.00  0.00    +0.068 C 
ATOM      7  C   UNL     1      33.471 -15.373 -24.327  0.00  0.00    +0.039 C 
ENDROOT
BRANCH   2  10
ATOM      8  O   UNL     1      33.834 -10.771 -23.436  0.00  0.00    -0.252 OA
ATOM      9  N   UNL     1      31.779 -10.059 -22.565  0.00  0.00    -0.268 N 
ATOM     10  N   UNL     1      32.265 -12.316 -22.649  0.00  0.00    -0.266 N 
ATOM     11  C   UNL     1      32.744 -11.028 -22.936  0.00  0.00    +0.308 C 
ATOM     12  H   UNL     1      30.947 -10.413 -22.176  0.00  0.00    +0.156 HD
ATOM     13  H   UNL     1      31.367 -12.363 -22.248  0.00  0.00    +0.156 HD
BRANCH   9  15
ATOM     14 CL   UNL     1      32.089  -4.173 -23.004  0.00  0.00    -0.082 Cl
ATOM     15  C   UNL     1      31.852  -8.670 -22.679  0.00  0.00    +0.052 C 
ATOM     16  C   UNL     1      31.780  -6.675 -24.038  0.00  0.00    +0.083 C 
ATOM     17  C   UNL     1      31.707  -8.064 -23.926  0.00  0.00    +0.019 C 
ATOM     18  C   UNL     1      32.069  -7.889 -21.544  0.00  0.00    +0.016 C 
ATOM     19  C   UNL     1      31.996  -5.894 -22.904  0.00  0.00    +0.062 C 
ATOM     20  C   UNL     1      32.141  -6.501 -21.657  0.00  0.00    +0.013 C 
BRANCH  16  24
ATOM     21  F   UNL     1      32.770  -5.534 -25.893  0.00  0.00    -0.166 F 
ATOM     22  F   UNL     1      31.185  -6.946 -26.340  0.00  0.00    -0.166 F 
ATOM     23  F   UNL     1      30.711  -5.044 -25.398  0.00  0.00    -0.166 F 
ATOM     24  C   UNL     1      31.617  -6.064 -25.392  0.00  0.00    +0.419 C 
ENDBRANCH  16  24
ENDBRANCH   9  15
ENDBRANCH   2  10
BRANCH   3  25
ATOM     25  O   UNL     1      34.801 -17.175 -23.501  0.00  0.00    -0.453 OA
BRANCH  25  27
ATOM     26  N   UNL     1      35.542 -19.577 -20.192  0.00  0.00    -0.239 NA
ATOM     27  C   UNL     1      35.047 -17.975 -22.398  0.00  0.00    +0.149 C 
ATOM     28  C   UNL     1      34.012 -18.697 -21.844  0.00  0.00    +0.061 C 
ATOM     29  C   UNL     1      34.310 -19.484 -20.743  0.00  0.00    +0.137 C 
ATOM     30  C   UNL     1      36.323 -18.031 -21.879  0.00  0.00    +0.058 C 
ATOM     31  C   UNL     1      36.518 -18.847 -20.776  0.00  0.00    +0.102 C 
BRANCH  29  34
ATOM     32  O   UNL     1      32.095 -20.211 -20.502  0.00  0.00    -0.268 OA
ATOM     33  N   UNL     1      33.666 -21.112 -19.053  0.00  0.00    -0.298 N 
ATOM     34  C   UNL     1      33.273 -20.274 -20.104  0.00  0.00    +0.264 C 
ATOM     35  C   UNL     1      32.756 -21.975 -18.335  0.00  0.00    +0.111 C 
ATOM     36  H   UNL     1      34.614 -21.112 -18.788  0.00  0.00    +0.150 HD
ENDBRANCH  29  34
ENDBRANCH  25  27
ENDBRANCH   3  25
TORSDOF 6
ENDMDL
MODEL 4
REMARK VINA RESULT:     -13.1      2.530      3.608
REMARK  Name = 11167602
REMARK  6 active torsions:
REMARK  status: ('A' for Active; 'I' for Inactive)
REMARK    1  A    between atoms: C_2  and  N_10
REMARK    2  A    between atoms: C_3  and  O_25
REMARK    3  A    between atoms: N_9  and  C_15
REMARK    4  A    between atoms: C_16  and  C_24
REMARK    5  A    between atoms: O_25  and  C_27
REMARK    6  A    between atoms: C_29  and  C_34
REMARK                            x       y       z     vdW  Elec       q    Type
REMARK                         _______ _______ _______ _____ _____    ______ ____
ROOT
ATOM      1  F   UNL     1      33.818 -16.473 -24.934  0.00  0.00    -0.203 F 
ATOM      2  C   UNL     1      34.169 -15.596 -22.755  0.00  0.00    +0.079 C 
ATOM      3  C   UNL     1      34.963 -18.106 -21.895  0.00  0.00    +0.148 C 
ATOM      4  C   UNL     1      34.182 -16.649 -23.656  0.00  0.00    +0.157 C 
ATOM      5  C   UNL     1      34.546 -15.772 -21.434  0.00  0.00    +0.020 C 
ATOM      6  C   UNL     1      34.582 -17.912 -23.223  0.00  0.00    +0.068 C 
ATOM      7  C   UNL     1      34.944 -17.037 -21.001  0.00  0.00    +0.039 C 
ENDROOT
BRANCH   2  10
ATOM      8  O   UNL     1      33.186 -13.248 -21.192  0.00  0.00    -0.252 OA
ATOM      9  N   UNL     1      33.006 -12.131 -23.243  0.00  0.00    -0.268 N 
ATOM     10  N   UNL     1      33.765 -14.312 -23.192  0.00  0.00    -0.266 N 
ATOM     11  C   UNL     1      33.308 -13.238 -22.413  0.00  0.00    +0.308 C 
ATOM     12  H   UNL     1      33.154 -12.268 -24.207  0.00  0.00    +0.156 HD
ATOM     13  H   UNL     1      33.810 -14.153 -24.163  0.00  0.00    +0.156 HD
BRANCH   9  15
ATOM     14 CL   UNL     1      30.946  -6.817 -21.676  0.00  0.00    -0.082 Cl
ATOM     15  C   UNL     1      32.528 -10.873 -22.877  0.00  0.00    +0.052 C 
ATOM     16  C   UNL     1      32.748  -8.467 -22.884  0.00  0.00    +0.083 C 
ATOM     17  C   UNL     1      33.228  -9.725 -23.251  0.00  0.00    +0.019 C 
ATOM     18  C   UNL     1      31.351 -10.763 -22.138  0.00  0.00    +0.016 C 
ATOM     19  C   UNL     1      31.570  -8.357 -22.146  0.00  0.00    +0.062 C 
ATOM     20  C   UNL     1      30.872  -9.505 -21.772  0.00  0.00    +0.013 C 
BRANCH  16  24
ATOM     21  F   UNL     1      33.955  -6.497 -22.261  0.00  0.00    -0.166 F 
ATOM     22  F   UNL     1      34.650  -7.561 -24.019  0.00  0.00    -0.166 F 
ATOM     23  F   UNL     1      32.797  -6.425 -24.100  0.00  0.00    -0.166 F 
ATOM     24  C   UNL     1      33.525  -7.262 -23.306  0.00  0.00    +0.419 C 
ENDBRANCH  16  24
ENDBRANCH   9  15
ENDBRANCH   2  10
BRANCH   3  25
ATOM     25  O   UNL     1      35.353 -19.340 -21.472  0.00  0.00    -0.453 OA
BRANCH  25  27
ATOM     26  N   UNL     1      32.933 -21.286 -18.711  0.00  0.00    -0.239 NA
ATOM     27  C   UNL     1      34.547 -19.990 -20.552  0.00  0.00    +0.149 C 
ATOM     28  C   UNL     1      35.131 -20.668 -19.505  0.00  0.00    +0.061 C 
ATOM     29  C   UNL     1      34.281 -21.300 -18.610  0.00  0.00    +0.137 C 
ATOM     30  C   UNL     1      33.178 -19.942 -20.705  0.00  0.00    +0.058 C 
ATOM     31  C   UNL     1      32.415 -20.606 -19.758  0.00  0.00    +0.102 C 
BRANCH  29  34
ATOM     32  O   UNL     1      34.192 -22.989 -16.987  0.00  0.00    -0.268 OA
ATOM     33  N   UNL     1      36.075 -21.635 -17.001  0.00  0.00    -0.298 N 
ATOM     34  C   UNL     1      34.821 -22.035 -17.480  0.00  0.00    +0.264 C 
ATOM     35  C   UNL     1      36.754 -22.281 -15.901  0.00  0.00    +0.111 C 
ATOM     36  H   UNL     1      36.518 -20.872 -17.436  0.00  0.00    +0.150 HD
ENDBRANCH  29  34
ENDBRANCH  25  27
ENDBRANCH   3  25
TORSDOF 6
ENDMDL
MODEL 5
REMARK VINA RESULT:     -13.0      7.344     13.575
REMARK  Name = 11167602
REMARK  6 active torsions:
REMARK  status: ('A' for Active; 'I' for Inactive)
REMARK    1  A    between atoms: C_2  and  N_10
REMARK    2  A    between atoms: C_3  and  O_25
REMARK    3  A    between atoms: N_9  and  C_15
REMARK    4  A    between atoms: C_16  and  C_24
REMARK    5  A    between atoms: O_25  and  C_27
REMARK    6  A    between atoms: C_29  and  C_34
REMARK                            x       y       z     vdW  Elec       q    Type
REMARK                         _______ _______ _______ _____ _____    ______ ____
ROOT
ATOM      1  F   UNL     1      32.154 -20.804 -19.458  0.00  0.00    -0.203 F 
ATOM      2  C   UNL     1      34.479 -21.106 -19.084  0.00  0.00    +0.079 C 
ATOM      3  C   UNL     1      35.019 -19.442 -21.231  0.00  0.00    +0.148 C 
ATOM      4  C   UNL     1      33.426 -20.551 -19.793  0.00  0.00    +0.157 C 
ATOM      5  C   UNL     1      35.796 -20.846 -19.426  0.00  0.00    +0.020 C 
ATOM      6  C   UNL     1      33.698 -19.713 -20.874  0.00  0.00    +0.068 C 
ATOM      7  C   UNL     1      36.068 -20.009 -20.508  0.00  0.00    +0.039 C 
ENDROOT
BRANCH   2  10
ATOM      8  O   UNL     1      35.766 -21.251 -16.393  0.00  0.00    -0.252 OA
ATOM      9  N   UNL     1      34.267 -22.989 -15.921  0.00  0.00    -0.268 N 
ATOM     10  N   UNL     1      34.207 -21.956 -17.986  0.00  0.00    -0.266 N 
ATOM     11  C   UNL     1      34.845 -21.985 -16.736  0.00  0.00    +0.308 C 
ATOM     12  H   UNL     1      33.532 -23.500 -16.330  0.00  0.00    +0.156 HD
ATOM     13  H   UNL     1      33.481 -22.608 -18.115  0.00  0.00    +0.156 HD
BRANCH   9  15
ATOM     14 CL   UNL     1      35.641 -24.504 -10.375  0.00  0.00    -0.082 Cl
ATOM     15  C   UNL     1      34.600 -23.348 -14.615  0.00  0.00    +0.052 C 
ATOM     16  C   UNL     1      36.255 -24.008 -12.983  0.00  0.00    +0.083 C 
ATOM     17  C   UNL     1      35.923 -23.649 -14.290  0.00  0.00    +0.019 C 
ATOM     18  C   UNL     1      33.611 -23.406 -13.634  0.00  0.00    +0.016 C 
ATOM     19  C   UNL     1      35.266 -24.065 -12.003  0.00  0.00    +0.062 C 
ATOM     20  C   UNL     1      33.944 -23.765 -12.327  0.00  0.00    +0.013 C 
BRANCH  16  24
ATOM     21  F   UNL     1      38.226 -23.511 -11.721  0.00  0.00    -0.166 F 
ATOM     22  F   UNL     1      37.878 -25.593 -12.220  0.00  0.00    -0.166 F 
ATOM     23  F   UNL     1      38.492 -24.193 -13.768  0.00  0.00    -0.166 F 
ATOM     24  C   UNL     1      37.684 -24.321 -12.676  0.00  0.00    +0.419 C 
ENDBRANCH  16  24
ENDBRANCH   9  15
ENDBRANCH   2  10
BRANCH   3  25
ATOM     25  O   UNL     1      35.284 -18.624 -22.287  0.00  0.00    -0.453 OA
BRANCH  25  27
ATOM     26  N   UNL     1      33.737 -14.768 -22.174  0.00  0.00    -0.239 NA
ATOM     27  C   UNL     1      34.770 -17.339 -22.250  0.00  0.00    +0.149 C 
ATOM     28  C   UNL     1      34.328 -16.756 -23.418  0.00  0.00    +0.061 C 
ATOM     29  C   UNL     1      33.820 -15.469 -23.328  0.00  0.00    +0.137 C 
ATOM     30  C   UNL     1      34.710 -16.672 -21.045  0.00  0.00    +0.058 C 
ATOM     31  C   UNL     1      34.186 -15.390 -21.061  0.00  0.00    +0.102 C 
BRANCH  29  34
ATOM     32  O   UNL     1      33.208 -15.404 -25.590  0.00  0.00    -0.268 OA
ATOM     33  N   UNL     1      33.003 -13.434 -24.383  0.00  0.00    -0.298 N 
ATOM     34  C   UNL     1      33.335 -14.788 -24.515  0.00  0.00    +0.264 C 
ATOM     35  C   UNL     1      32.487 -12.627 -25.464  0.00  0.00    +0.111 C 
ATOM     36  H   UNL     1      33.130 -13.008 -23.504  0.00  0.00    +0.150 HD
ENDBRANCH  29  34
ENDBRANCH  25  27
ENDBRANCH   3  25
TORSDOF 6
ENDMDL
MODEL 6
REMARK VINA RESULT:     -13.0      5.898      9.897
REMARK  Name = 11167602
REMARK  6 active torsions:
REMARK  status: ('A' for Active; 'I' for Inactive)
REMARK    1  A    between atoms: C_2  and  N_10
REMARK    2  A    between atoms: C_3  and  O_25
REMARK    3  A    between atoms: N_9  and  C_15
REMARK    4  A    between atoms: C_16  and  C_24
REMARK    5  A    between atoms: O_25  and  C_27
REMARK    6  A    between atoms: C_29  and  C_34
REMARK                            x       y       z     vdW  Elec       q    Type
REMARK                         _______ _______ _______ _____ _____    ______ ____
ROOT
ATOM      1  F   UNL     1      36.496 -20.930 -17.211  0.00  0.00    -0.203 F 
ATOM      2  C   UNL     1      34.529 -21.577 -18.372  0.00  0.00    +0.079 C 
ATOM      3  C   UNL     1      33.772 -23.111 -16.194  0.00  0.00    +0.148 C 
ATOM      4  C   UNL     1      35.348 -21.618 -17.255  0.00  0.00    +0.157 C 
ATOM      5  C   UNL     1      33.339 -22.285 -18.422  0.00  0.00    +0.020 C 
ATOM      6  C   UNL     1      34.967 -22.391 -16.159  0.00  0.00    +0.068 C 
ATOM      7  C   UNL     1      32.959 -23.059 -17.325  0.00  0.00    +0.039 C 
ENDROOT
BRANCH   2  10
ATOM      8  O   UNL     1      32.985 -19.541 -19.920  0.00  0.00    -0.252 OA
ATOM      9  N   UNL     1      34.906 -19.286 -21.237  0.00  0.00    -0.268 N 
ATOM     10  N   UNL     1      34.912 -20.793 -19.486  0.00  0.00    -0.266 N 
ATOM     11  C   UNL     1      34.144 -19.845 -20.182  0.00  0.00    +0.308 C 
ATOM     12  H   UNL     1      35.825 -19.627 -21.327  0.00  0.00    +0.156 HD
ATOM     13  H   UNL     1      35.830 -20.929 -19.814  0.00  0.00    +0.156 HD
BRANCH   9  15
ATOM     14 CL   UNL     1      33.300 -15.202 -25.197  0.00  0.00    -0.082 Cl
ATOM     15  C   UNL     1      34.526 -18.315 -22.164  0.00  0.00    +0.052 C 
ATOM     16  C   UNL     1      34.031 -16.012 -22.700  0.00  0.00    +0.083 C 
ATOM     17  C   UNL     1      34.410 -16.982 -21.771  0.00  0.00    +0.019 C 
ATOM     18  C   UNL     1      34.263 -18.679 -23.485  0.00  0.00    +0.016 C 
ATOM     19  C   UNL     1      33.769 -16.375 -24.020  0.00  0.00    +0.062 C 
ATOM     20  C   UNL     1      33.884 -17.708 -24.413  0.00  0.00    +0.013 C 
BRANCH  16  24
ATOM     21  F   UNL     1      32.636 -14.144 -22.166  0.00  0.00    -0.166 F 
ATOM     22  F   UNL     1      34.448 -14.383 -20.998  0.00  0.00    -0.166 F 
ATOM     23  F   UNL     1      34.569 -13.726 -23.068  0.00  0.00    -0.166 F 
ATOM     24  C   UNL     1      33.922 -14.594 -22.239  0.00  0.00    +0.419 C 
ENDBRANCH  16  24
ENDBRANCH   9  15
ENDBRANCH   2  10
BRANCH   3  25
ATOM     25  O   UNL     1      33.400 -23.865 -15.123  0.00  0.00    -0.453 OA
BRANCH  25  27
ATOM     26  N   UNL     1      36.314 -24.787 -12.306  0.00  0.00    -0.239 NA
ATOM     27  C   UNL     1      34.371 -24.174 -14.185  0.00  0.00    +0.149 C 
ATOM     28  C   UNL     1      35.507 -24.842 -14.585  0.00  0.00    +0.061 C 
ATOM     29  C   UNL     1      36.449 -25.126 -13.609  0.00  0.00    +0.137 C 
ATOM     30  C   UNL     1      34.179 -23.803 -12.871  0.00  0.00    +0.058 C 
ATOM     31  C   UNL     1      35.179 -24.133 -11.971  0.00  0.00    +0.102 C 
BRANCH  29  34
ATOM     32  O   UNL     1      37.643 -27.028 -14.283  0.00  0.00    -0.268 OA
ATOM     33  N   UNL     1      38.863 -25.090 -13.916  0.00  0.00    -0.298 N 
ATOM     34  C   UNL     1      37.674 -25.828 -13.953  0.00  0.00    +0.264 C 
ATOM     35  C   UNL     1      40.156 -25.639 -14.254  0.00  0.00    +0.111 C 
ATOM     36  H   UNL     1      38.816 -24.145 -13.644  0.00  0.00    +0.150 HD
ENDBRANCH  29  34
ENDBRANCH  25  27
ENDBRANCH   3  25
TORSDOF 6
ENDMDL
MODEL 7
REMARK VINA RESULT:     -12.8      6.997     13.242
REMARK  Name = 11167602
REMARK  6 active torsions:
REMARK  status: ('A' for Active; 'I' for Inactive)
REMARK    1  A    between atoms: C_2  and  N_10
REMARK    2  A    between atoms: C_3  and  O_25
REMARK    3  A    between atoms: N_9  and  C_15
REMARK    4  A    between atoms: C_16  and  C_24
REMARK    5  A    between atoms: O_25  and  C_27
REMARK    6  A    between atoms: C_29  and  C_34
REMARK                            x       y       z     vdW  Elec       q    Type
REMARK                         _______ _______ _______ _____ _____    ______ ____
ROOT
ATOM      1  F   UNL     1      32.280 -20.408 -20.377  0.00  0.00    -0.203 F 
ATOM      2  C   UNL     1      34.554 -20.401 -19.695  0.00  0.00    +0.079 C 
ATOM      3  C   UNL     1      35.172 -18.767 -21.845  0.00  0.00    +0.148 C 
ATOM      4  C   UNL     1      33.546 -20.011 -20.561  0.00  0.00    +0.157 C 
ATOM      5  C   UNL     1      35.864 -19.990 -19.880  0.00  0.00    +0.020 C 
ATOM      6  C   UNL     1      33.857 -19.188 -21.644  0.00  0.00    +0.068 C 
ATOM      7  C   UNL     1      36.175 -19.169 -20.963  0.00  0.00    +0.039 C 
ENDROOT
BRANCH   2  10
ATOM      8  O   UNL     1      36.250 -21.279 -17.398  0.00  0.00    -0.252 OA
ATOM      9  N   UNL     1      34.373 -22.462 -16.643  0.00  0.00    -0.268 N 
ATOM     10  N   UNL     1      34.241 -21.234 -18.595  0.00  0.00    -0.266 N 
ATOM     11  C   UNL     1      35.079 -21.619 -17.536  0.00  0.00    +0.308 C 
ATOM     12  H   UNL     1      33.437 -22.648 -16.882  0.00  0.00    +0.156 HD
ATOM     13  H   UNL     1      33.323 -21.587 -18.569  0.00  0.00    +0.156 HD
BRANCH   9  15
ATOM     14 CL   UNL     1      36.268 -24.998 -11.651  0.00  0.00    -0.082 Cl
ATOM     15  C   UNL     1      34.829 -23.062 -15.469  0.00  0.00    +0.052 C 
ATOM     16  C   UNL     1      36.623 -24.037 -14.177  0.00  0.00    +0.083 C 
ATOM     17  C   UNL     1      36.168 -23.437 -15.351  0.00  0.00    +0.019 C 
ATOM     18  C   UNL     1      33.946 -23.286 -14.413  0.00  0.00    +0.016 C 
ATOM     19  C   UNL     1      35.740 -24.260 -13.120  0.00  0.00    +0.062 C 
ATOM     20  C   UNL     1      34.402 -23.886 -13.238  0.00  0.00    +0.013 C 
BRANCH  16  24
ATOM     21  F   UNL     1      38.272 -25.769 -14.143  0.00  0.00    -0.166 F 
ATOM     22  F   UNL     1      38.828 -23.900 -15.092  0.00  0.00    -0.166 F 
ATOM     23  F   UNL     1      38.645 -24.006 -12.928  0.00  0.00    -0.166 F 
ATOM     24  C   UNL     1      38.064 -24.422 -14.090  0.00  0.00    +0.419 C 
ENDBRANCH  16  24
ENDBRANCH   9  15
ENDBRANCH   2  10
BRANCH   3  25
ATOM     25  O   UNL     1      35.476 -17.964 -22.902  0.00  0.00    -0.453 OA
BRANCH  25  27
ATOM     26  N   UNL     1      33.113 -14.602 -23.519  0.00  0.00    -0.239 NA
ATOM     27  C   UNL     1      34.688 -16.845 -23.106  0.00  0.00    +0.149 C 
ATOM     28  C   UNL     1      34.502 -15.953 -22.073  0.00  0.00    +0.061 C 
ATOM     29  C   UNL     1      33.706 -14.847 -22.329  0.00  0.00    +0.137 C 
ATOM     30  C   UNL     1      34.107 -16.647 -24.341  0.00  0.00    +0.058 C 
ATOM     31  C   UNL     1      33.329 -15.511 -24.496  0.00  0.00    +0.102 C 
BRANCH  29  34
ATOM     32  O   UNL     1      34.248 -13.750 -20.329  0.00  0.00    -0.268 OA
ATOM     33  N   UNL     1      32.336 -13.045 -21.436  0.00  0.00    -0.298 N 
ATOM     34  C   UNL     1      33.464 -13.862 -21.290  0.00  0.00    +0.264 C 
ATOM     35  C   UNL     1      31.974 -12.006 -20.500  0.00  0.00    +0.111 C 
ATOM     36  H   UNL     1      31.757 -13.188 -22.219  0.00  0.00    +0.150 HD
ENDBRANCH  29  34
ENDBRANCH  25  27
ENDBRANCH   3  25
TORSDOF 6
ENDMDL
MODEL 8
REMARK VINA RESULT:     -12.6      5.907     11.773
REMARK  Name = 11167602
REMARK  6 active torsions:
REMARK  status: ('A' for Active; 'I' for Inactive)
REMARK    1  A    between atoms: C_2  and  N_10
REMARK    2  A    between atoms: C_3  and  O_25
REMARK    3  A    between atoms: N_9  and  C_15
REMARK    4  A    between atoms: C_16  and  C_24
REMARK    5  A    between atoms: O_25  and  C_27
REMARK    6  A    between atoms: C_29  and  C_34
REMARK                            x       y       z     vdW  Elec       q    Type
REMARK                         _______ _______ _______ _____ _____    ______ ____
ROOT
ATOM      1  F   UNL     1      35.609 -16.882 -21.191  0.00  0.00    -0.203 F 
ATOM      2  C   UNL     1      34.501 -18.620 -22.369  0.00  0.00    +0.079 C 
ATOM      3  C   UNL     1      33.767 -16.799 -24.323  0.00  0.00    +0.148 C 
ATOM      4  C   UNL     1      34.887 -17.296 -22.241  0.00  0.00    +0.157 C 
ATOM      5  C   UNL     1      33.756 -19.053 -23.454  0.00  0.00    +0.020 C 
ATOM      6  C   UNL     1      34.518 -16.379 -23.225  0.00  0.00    +0.068 C 
ATOM      7  C   UNL     1      33.385 -18.135 -24.437  0.00  0.00    +0.039 C 
ENDROOT
BRANCH   2  10
ATOM      8  O   UNL     1      32.966 -19.662 -20.028  0.00  0.00    -0.252 OA
ATOM      9  N   UNL     1      34.863 -20.944 -19.529  0.00  0.00    -0.268 N 
ATOM     10  N   UNL     1      34.875 -19.553 -21.373  0.00  0.00    -0.266 N 
ATOM     11  C   UNL     1      34.113 -20.012 -20.288  0.00  0.00    +0.308 C 
ATOM     12  H   UNL     1      35.772 -21.128 -19.859  0.00  0.00    +0.156 HD
ATOM     13  H   UNL     1      35.783 -19.926 -21.452  0.00  0.00    +0.156 HD
BRANCH   9  15
ATOM     14 CL   UNL     1      33.218 -23.875 -14.667  0.00  0.00    -0.082 Cl
ATOM     15  C   UNL     1      34.484 -21.635 -18.378  0.00  0.00    +0.052 C 
ATOM     16  C   UNL     1      35.012 -22.491 -16.182  0.00  0.00    +0.083 C 
ATOM     17  C   UNL     1      35.392 -21.800 -17.333  0.00  0.00    +0.019 C 
ATOM     18  C   UNL     1      33.196 -22.161 -18.274  0.00  0.00    +0.016 C 
ATOM     19  C   UNL     1      33.724 -23.016 -16.077  0.00  0.00    +0.062 C 
ATOM     20  C   UNL     1      32.817 -22.852 -17.123  0.00  0.00    +0.013 C 
BRANCH  16  24
ATOM     21  F   UNL     1      35.553 -22.234 -13.866  0.00  0.00    -0.166 F 
ATOM     22  F   UNL     1      36.426 -23.931 -14.897  0.00  0.00    -0.166 F 
ATOM     23  F   UNL     1      37.148 -21.921 -15.309  0.00  0.00    -0.166 F 
ATOM     24  C   UNL     1      36.014 -22.643 -15.083  0.00  0.00    +0.419 C 
ENDBRANCH  16  24
ENDBRANCH   9  15
ENDBRANCH   2  10
BRANCH   3  25
ATOM     25  O   UNL     1      33.406 -15.904 -25.283  0.00  0.00    -0.453 OA
BRANCH  25  27
ATOM     26  N   UNL     1      32.606 -12.005 -24.088  0.00  0.00    -0.239 NA
ATOM     27  C   UNL     1      33.138 -14.605 -24.885  0.00  0.00    +0.149 C 
ATOM     28  C   UNL     1      33.036 -14.320 -23.540  0.00  0.00    +0.061 C 
ATOM     29  C   UNL     1      32.769 -13.005 -23.193  0.00  0.00    +0.137 C 
ATOM     30  C   UNL     1      32.982 -13.626 -25.842  0.00  0.00    +0.058 C 
ATOM     31  C   UNL     1      32.716 -12.343 -25.393  0.00  0.00    +0.102 C 
BRANCH  29  34
ATOM     32  O   UNL     1      33.333 -13.192 -20.925  0.00  0.00    -0.268 OA
ATOM     33  N   UNL     1      31.749 -11.595 -21.491  0.00  0.00    -0.298 N 
ATOM     34  C   UNL     1      32.647 -12.626 -21.796  0.00  0.00    +0.264 C 
ATOM     35  C   UNL     1      31.534 -11.091 -20.155  0.00  0.00    +0.111 C 
ATOM     36  H   UNL     1      31.237 -11.192 -22.229  0.00  0.00    +0.150 HD
ENDBRANCH  29  34
ENDBRANCH  25  27
ENDBRANCH   3  25
TORSDOF 6
ENDMDL
MODEL 9
REMARK VINA RESULT:     -12.6      5.349      8.830
REMARK  Name = 11167602
REMARK  6 active torsions:
REMARK  status: ('A' for Active; 'I' for Inactive)
REMARK    1  A    between atoms: C_2  and  N_10
REMARK    2  A    between atoms: C_3  and  O_25
REMARK    3  A    between atoms: N_9  and  C_15
REMARK    4  A    between atoms: C_16  and  C_24
REMARK    5  A    between atoms: O_25  and  C_27
REMARK    6  A    between atoms: C_29  and  C_34
REMARK                            x       y       z     vdW  Elec       q    Type
REMARK                         _______ _______ _______ _____ _____    ______ ____
ROOT
ATOM      1  F   UNL     1      36.796 -20.286 -17.689  0.00  0.00    -0.203 F 
ATOM      2  C   UNL     1      34.920 -20.987 -18.965  0.00  0.00    +0.079 C 
ATOM      3  C   UNL     1      34.291 -22.827 -16.992  0.00  0.00    +0.148 C 
ATOM      4  C   UNL     1      35.723 -21.075 -17.840  0.00  0.00    +0.157 C 
ATOM      5  C   UNL     1      33.809 -21.800 -19.124  0.00  0.00    +0.020 C 
ATOM      6  C   UNL     1      35.406 -22.001 -16.846  0.00  0.00    +0.068 C 
ATOM      7  C   UNL     1      33.493 -22.726 -18.131  0.00  0.00    +0.039 C 
ENDROOT
BRANCH   2  10
ATOM      8  O   UNL     1      33.165 -19.068 -20.434  0.00  0.00    -0.252 OA
ATOM      9  N   UNL     1      35.094 -18.394 -21.580  0.00  0.00    -0.268 N 
ATOM     10  N   UNL     1      35.237 -20.048 -19.975  0.00  0.00    -0.266 N 
ATOM     11  C   UNL     1      34.371 -19.164 -20.637  0.00  0.00    +0.308 C 
ATOM     12  H   UNL     1      36.059 -18.580 -21.633  0.00  0.00    +0.156 HD
ATOM     13  H   UNL     1      36.183 -20.010 -20.246  0.00  0.00    +0.156 HD
BRANCH   9  15
ATOM     14 CL   UNL     1      33.088 -14.232 -25.268  0.00  0.00    -0.082 Cl
ATOM     15  C   UNL     1      34.620 -17.405 -22.443  0.00  0.00    +0.052 C 
ATOM     16  C   UNL     1      33.933 -15.122 -22.834  0.00  0.00    +0.083 C 
ATOM     17  C   UNL     1      34.407 -16.110 -21.970  0.00  0.00    +0.019 C 
ATOM     18  C   UNL     1      34.359 -17.712 -23.778  0.00  0.00    +0.016 C 
ATOM     19  C   UNL     1      33.673 -15.429 -24.169  0.00  0.00    +0.062 C 
ATOM     20  C   UNL     1      33.886 -16.724 -24.641  0.00  0.00    +0.013 C 
BRANCH  16  24
ATOM     21  F   UNL     1      32.405 -13.411 -22.156  0.00  0.00    -0.166 F 
ATOM     22  F   UNL     1      34.266 -13.561 -21.053  0.00  0.00    -0.166 F 
ATOM     23  F   UNL     1      34.268 -12.782 -23.083  0.00  0.00    -0.166 F 
ATOM     24  C   UNL     1      33.720 -13.747 -22.290  0.00  0.00    +0.419 C 
ENDBRANCH  16  24
ENDBRANCH   9  15
ENDBRANCH   2  10
BRANCH   3  25
ATOM     25  O   UNL     1      33.982 -23.731 -16.022  0.00  0.00    -0.453 OA
BRANCH  25  27
ATOM     26  N   UNL     1      30.519 -23.093 -13.816  0.00  0.00    -0.239 NA
ATOM     27  C   UNL     1      32.828 -23.517 -15.287  0.00  0.00    +0.149 C 
ATOM     28  C   UNL     1      31.692 -23.076 -15.930  0.00  0.00    +0.061 C 
ATOM     29  C   UNL     1      30.563 -22.879 -15.150  0.00  0.00    +0.137 C 
ATOM     30  C   UNL     1      32.842 -23.753 -13.929  0.00  0.00    +0.058 C 
ATOM     31  C   UNL     1      31.663 -23.525 -13.239  0.00  0.00    +0.102 C 
BRANCH  29  34
ATOM     32  O   UNL     1      29.316 -21.988 -16.924  0.00  0.00    -0.268 OA
ATOM     33  N   UNL     1      28.166 -22.495 -14.975  0.00  0.00    -0.298 N 
ATOM     34  C   UNL     1      29.327 -22.415 -15.755  0.00  0.00    +0.264 C 
ATOM     35  C   UNL     1      26.859 -22.095 -15.443  0.00  0.00    +0.111 C 
ATOM     36  H   UNL     1      28.246 -22.842 -14.058  0.00  0.00    +0.150 HD
ENDBRANCH  29  34
ENDBRANCH  25  27
ENDBRANCH   3  25
TORSDOF 6
ENDMDL
