MODEL 1
REMARK VINA RESULT:     -12.2      0.000      0.000
REMARK  Name = 72098
REMARK  4 active torsions:
REMARK  status: ('A' for Active; 'I' for Inactive)
REMARK    1  A    between atoms: N_1  and  C_9
REMARK    2  A    between atoms: N_2  and  C_19
REMARK    3  A    between atoms: C_9  and  C_12
REMARK    4  A    between atoms: C_19  and  C_23
REMARK                            x       y       z     vdW  Elec       q    Type
REMARK                         _______ _______ _______ _____ _____    ______ ____
ROOT
ATOM      1  N   UNL     1      34.757 -19.484 -20.784  0.00  0.00    +0.387 N 
ATOM      2  N   UNL     1      34.513 -21.531 -18.757  0.00  0.00    +0.390 N 
ATOM      3  C   UNL     1      33.478 -20.161 -20.535  0.00  0.00    -0.100 C 
ATOM      4  C   UNL     1      35.879 -20.372 -20.458  0.00  0.00    -0.100 C 
ATOM      5  C   UNL     1      33.390 -20.643 -19.081  0.00  0.00    -0.100 C 
ATOM      6  C   UNL     1      35.790 -20.853 -19.006  0.00  0.00    -0.100 C 
ATOM      7  H   UNL     1      34.809 -18.665 -20.180  0.00  0.00    -0.079 HD
ATOM      8  H   UNL     1      34.460 -22.350 -19.362  0.00  0.00    -0.079 HD
ENDROOT
BRANCH   1   9
ATOM      9  C   UNL     1      34.840 -19.029 -22.170  0.00  0.00    -0.050 C 
BRANCH   9  12
ATOM     10  O   UNL     1      34.129 -14.514 -20.305  0.00  0.00    -0.435 OA
ATOM     11  O   UNL     1      33.865 -13.528 -22.488  0.00  0.00    -0.435 OA
ATOM     12  C   UNL     1      34.577 -17.552 -22.293  0.00  0.00    -0.040 C 
ATOM     13  C   UNL     1      34.491 -16.778 -21.141  0.00  0.00    +0.034 C 
ATOM     14  C   UNL     1      34.425 -16.990 -23.565  0.00  0.00    -0.003 C 
ATOM     15  C   UNL     1      34.249 -15.430 -21.303  0.00  0.00    +0.176 C 
ATOM     16  C   UNL     1      34.181 -15.621 -23.703  0.00  0.00    +0.040 C 
ATOM     17  C   UNL     1      34.098 -14.867 -22.551  0.00  0.00    +0.176 C 
ATOM     18  C   UNL     1      33.887 -13.310 -21.062  0.00  0.00    +0.429 C 
ENDBRANCH   9  12
ENDBRANCH   1   9
BRANCH   2  19
ATOM     19  C   UNL     1      34.428 -21.988 -17.371  0.00  0.00    +0.011 C 
BRANCH  19  23
ATOM     20  S   UNL     1      32.032 -22.406 -12.983  0.00  0.00    -0.084 S 
ATOM     21  O   UNL     1      32.362 -22.684 -18.241  0.00  0.00    -0.276 OA
ATOM     22  N   UNL     1      32.701 -23.102 -15.944  0.00  0.00    -0.238 N 
ATOM     23  C   UNL     1      33.077 -22.665 -17.235  0.00  0.00    +0.212 C 
ATOM     24  C   UNL     1      33.652 -23.524 -14.944  0.00  0.00    +0.064 C 
ATOM     25  C   UNL     1      31.306 -23.177 -15.563  0.00  0.00    +0.064 C 
ATOM     26  C   UNL     1      33.456 -23.283 -13.575  0.00  0.00    +0.043 C 
ATOM     27  C   UNL     1      30.885 -22.903 -14.248  0.00  0.00    +0.043 C 
ATOM     28  C   UNL     1      34.787 -24.265 -15.322  0.00  0.00    +0.016 C 
ATOM     29  C   UNL     1      30.317 -23.533 -16.499  0.00  0.00    +0.016 C 
ATOM     30  C   UNL     1      34.405 -23.710 -12.632  0.00  0.00    +0.008 C 
ATOM     31  C   UNL     1      29.525 -22.959 -13.902  0.00  0.00    +0.008 C 
ATOM     32  C   UNL     1      35.724 -24.697 -14.382  0.00  0.00    +0.001 C 
ATOM     33  C   UNL     1      28.965 -23.596 -16.147  0.00  0.00    +0.001 C 
ATOM     34  C   UNL     1      35.537 -24.411 -13.036  0.00  0.00    +0.001 C 
ATOM     35  C   UNL     1      28.568 -23.303 -14.850  0.00  0.00    +0.001 C 
ENDBRANCH  19  23
ENDBRANCH   2  19
TORSDOF 4
ENDMDL
MODEL 2
REMARK VINA RESULT:     -11.5      8.449     15.717
REMARK  Name = 72098
REMARK  4 active torsions:
REMARK  status: ('A' for Active; 'I' for Inactive)
REMARK    1  A    between atoms: N_1  and  C_9
REMARK    2  A    between atoms: N_2  and  C_19
REMARK    3  A    between atoms: C_9  and  C_12
REMARK    4  A    between atoms: C_19  and  C_23
REMARK                            x       y       z     vdW  Elec       q    Type
REMARK                         _______ _______ _______ _____ _____    ______ ____
ROOT
ATOM      1  N   UNL     1      31.956 -11.817 -21.699  0.00  0.00    +0.387 N 
ATOM      2  N   UNL     1      31.627  -9.120 -22.686  0.00  0.00    +0.390 N 
ATOM      3  C   UNL     1      30.988 -10.896 -21.090  0.00  0.00    -0.100 C 
ATOM      4  C   UNL     1      33.083 -11.072 -22.272  0.00  0.00    -0.100 C 
ATOM      5  C   UNL     1      30.499  -9.865 -22.115  0.00  0.00    -0.100 C 
ATOM      6  C   UNL     1      32.593 -10.042 -23.295  0.00  0.00    -0.100 C 
ATOM      7  H   UNL     1      31.489 -12.322 -22.451  0.00  0.00    -0.079 HD
ATOM      8  H   UNL     1      32.094  -8.616 -21.934  0.00  0.00    -0.079 HD
ENDROOT
BRANCH   1   9
ATOM      9  C   UNL     1      32.424 -12.797 -20.721  0.00  0.00    -0.050 C 
BRANCH   9  12
ATOM     10  O   UNL     1      35.068 -16.965 -20.616  0.00  0.00    -0.435 OA
ATOM     11  O   UNL     1      35.231 -17.059 -23.019  0.00  0.00    -0.435 OA
ATOM     12  C   UNL     1      33.171 -13.929 -21.373  0.00  0.00    -0.040 C 
ATOM     13  C   UNL     1      33.757 -14.906 -20.575  0.00  0.00    +0.034 C 
ATOM     14  C   UNL     1      33.259 -13.974 -22.769  0.00  0.00    -0.003 C 
ATOM     15  C   UNL     1      34.431 -15.924 -21.217  0.00  0.00    +0.176 C 
ATOM     16  C   UNL     1      33.948 -15.016 -23.395  0.00  0.00    +0.040 C 
ATOM     17  C   UNL     1      34.524 -15.977 -22.590  0.00  0.00    +0.176 C 
ATOM     18  C   UNL     1      35.571 -17.681 -21.763  0.00  0.00    +0.429 C 
ENDBRANCH   9  12
ENDBRANCH   1   9
BRANCH   2  19
ATOM     19  C   UNL     1      31.159  -8.139 -23.663  0.00  0.00    +0.011 C 
BRANCH  19  23
ATOM     20  S   UNL     1      31.517  -3.711 -25.994  0.00  0.00    -0.084 S 
ATOM     21  O   UNL     1      30.473  -6.810 -21.854  0.00  0.00    -0.276 OA
ATOM     22  N   UNL     1      31.613  -5.680 -23.583  0.00  0.00    -0.238 N 
ATOM     23  C   UNL     1      31.086  -6.815 -22.926  0.00  0.00    +0.212 C 
ATOM     24  C   UNL     1      32.705  -5.747 -24.525  0.00  0.00    +0.064 C 
ATOM     25  C   UNL     1      31.089  -4.357 -23.315  0.00  0.00    +0.064 C 
ATOM     26  C   UNL     1      32.783  -4.902 -25.644  0.00  0.00    +0.043 C 
ATOM     27  C   UNL     1      31.014  -3.376 -24.321  0.00  0.00    +0.043 C 
ATOM     28  C   UNL     1      33.774  -6.633 -24.298  0.00  0.00    +0.016 C 
ATOM     29  C   UNL     1      30.638  -4.002 -22.029  0.00  0.00    +0.016 C 
ATOM     30  C   UNL     1      33.862  -4.999 -26.536  0.00  0.00    +0.008 C 
ATOM     31  C   UNL     1      30.482  -2.104 -24.048  0.00  0.00    +0.008 C 
ATOM     32  C   UNL     1      34.851  -6.720 -25.182  0.00  0.00    +0.001 C 
ATOM     33  C   UNL     1      30.117  -2.733 -21.761  0.00  0.00    +0.001 C 
ATOM     34  C   UNL     1      34.890  -5.908 -26.309  0.00  0.00    +0.001 C 
ATOM     35  C   UNL     1      30.034  -1.786 -22.771  0.00  0.00    +0.001 C 
ENDBRANCH  19  23
ENDBRANCH   2  19
TORSDOF 4
ENDMDL
MODEL 3
REMARK VINA RESULT:     -11.3      1.713      3.807
REMARK  Name = 72098
REMARK  4 active torsions:
REMARK  status: ('A' for Active; 'I' for Inactive)
REMARK    1  A    between atoms: N_1  and  C_9
REMARK    2  A    between atoms: N_2  and  C_19
REMARK    3  A    between atoms: C_9  and  C_12
REMARK    4  A    between atoms: C_19  and  C_23
REMARK                            x       y       z     vdW  Elec       q    Type
REMARK                         _______ _______ _______ _____ _____    ______ ____
ROOT
ATOM      1  N   UNL     1      34.671 -19.325 -20.957  0.00  0.00    +0.387 N 
ATOM      2  N   UNL     1      33.998 -21.501 -19.176  0.00  0.00    +0.390 N 
ATOM      3  C   UNL     1      33.339 -19.944 -20.979  0.00  0.00    -0.100 C 
ATOM      4  C   UNL     1      35.681 -20.298 -20.526  0.00  0.00    -0.100 C 
ATOM      5  C   UNL     1      32.986 -20.527 -19.605  0.00  0.00    -0.100 C 
ATOM      6  C   UNL     1      35.328 -20.881 -19.153  0.00  0.00    -0.100 C 
ATOM      7  H   UNL     1      34.657 -18.558 -20.286  0.00  0.00    -0.079 HD
ATOM      8  H   UNL     1      34.012 -22.267 -19.848  0.00  0.00    -0.079 HD
ENDROOT
BRANCH   1   9
ATOM      9  C   UNL     1      35.007 -18.772 -22.268  0.00  0.00    -0.050 C 
BRANCH   9  12
ATOM     10  O   UNL     1      34.097 -14.305 -20.373  0.00  0.00    -0.435 OA
ATOM     11  O   UNL     1      33.621 -13.357 -22.537  0.00  0.00    -0.435 OA
ATOM     12  C   UNL     1      34.631 -17.319 -22.377  0.00  0.00    -0.040 C 
ATOM     13  C   UNL     1      34.565 -16.545 -21.224  0.00  0.00    +0.034 C 
ATOM     14  C   UNL     1      34.357 -16.779 -23.639  0.00  0.00    -0.003 C 
ATOM     15  C   UNL     1      34.217 -15.219 -21.374  0.00  0.00    +0.176 C 
ATOM     16  C   UNL     1      34.007 -15.432 -23.764  0.00  0.00    +0.040 C 
ATOM     17  C   UNL     1      33.945 -14.677 -22.611  0.00  0.00    +0.176 C 
ATOM     18  C   UNL     1      33.721 -13.128 -21.116  0.00  0.00    +0.429 C 
ENDBRANCH   9  12
ENDBRANCH   1   9
BRANCH   2  19
ATOM     19  C   UNL     1      33.660 -22.055 -17.866  0.00  0.00    +0.011 C 
BRANCH  19  23
ATOM     20  S   UNL     1      34.830 -25.590 -14.504  0.00  0.00    -0.084 S 
ATOM     21  O   UNL     1      35.896 -21.415 -17.548  0.00  0.00    -0.276 OA
ATOM     22  N   UNL     1      34.976 -22.795 -15.871  0.00  0.00    -0.238 N 
ATOM     23  C   UNL     1      34.942 -22.024 -17.055  0.00  0.00    +0.212 C 
ATOM     24  C   UNL     1      33.805 -23.072 -15.073  0.00  0.00    +0.064 C 
ATOM     25  C   UNL     1      36.223 -23.334 -15.371  0.00  0.00    +0.064 C 
ATOM     26  C   UNL     1      33.629 -24.288 -14.396  0.00  0.00    +0.043 C 
ATOM     27  C   UNL     1      36.279 -24.581 -14.719  0.00  0.00    +0.043 C 
ATOM     28  C   UNL     1      32.825 -22.077 -14.898  0.00  0.00    +0.016 C 
ATOM     29  C   UNL     1      37.431 -22.626 -15.519  0.00  0.00    +0.016 C 
ATOM     30  C   UNL     1      32.476 -24.518 -13.629  0.00  0.00    +0.008 C 
ATOM     31  C   UNL     1      37.501 -25.099 -14.261  0.00  0.00    +0.008 C 
ATOM     32  C   UNL     1      31.683 -22.305 -14.127  0.00  0.00    +0.001 C 
ATOM     33  C   UNL     1      38.643 -23.142 -15.054  0.00  0.00    +0.001 C 
ATOM     34  C   UNL     1      31.504 -23.531 -13.500  0.00  0.00    +0.001 C 
ATOM     35  C   UNL     1      38.680 -24.381 -14.430  0.00  0.00    +0.001 C 
ENDBRANCH  19  23
ENDBRANCH   2  19
TORSDOF 4
ENDMDL
MODEL 4
REMARK VINA RESULT:     -10.9      7.804     14.595
REMARK  Name = 72098
REMARK  4 active torsions:
REMARK  status: ('A' for Active; 'I' for Inactive)
REMARK    1  A    between atoms: N_1  and  C_9
REMARK    2  A    between atoms: N_2  and  C_19
REMARK    3  A    between atoms: C_9  and  C_12
REMARK    4  A    between atoms: C_19  and  C_23
REMARK                            x       y       z     vdW  Elec       q    Type
REMARK                         _______ _______ _______ _____ _____    ______ ____
ROOT
ATOM      1  N   UNL     1      33.035 -13.002 -21.610  0.00  0.00    +0.387 N 
ATOM      2  N   UNL     1      32.196 -10.338 -22.357  0.00  0.00    +0.390 N 
ATOM      3  C   UNL     1      32.208 -12.184 -20.714  0.00  0.00    -0.100 C 
ATOM      4  C   UNL     1      33.877 -12.146 -22.454  0.00  0.00    -0.100 C 
ATOM      5  C   UNL     1      31.352 -11.194 -21.514  0.00  0.00    -0.100 C 
ATOM      6  C   UNL     1      33.021 -11.156 -23.253  0.00  0.00    -0.100 C 
ATOM      7  H   UNL     1      32.417 -13.541 -22.215  0.00  0.00    -0.079 HD
ATOM      8  H   UNL     1      32.815  -9.799 -21.752  0.00  0.00    -0.079 HD
ENDROOT
BRANCH   1   9
ATOM      9  C   UNL     1      33.852 -13.942 -20.846  0.00  0.00    -0.050 C 
BRANCH   9  12
ATOM     10  O   UNL     1      34.918 -18.755 -21.113  0.00  0.00    -0.435 OA
ATOM     11  O   UNL     1      34.722 -18.784 -23.514  0.00  0.00    -0.435 OA
ATOM     12  C   UNL     1      34.079 -15.227 -21.597  0.00  0.00    -0.040 C 
ATOM     13  C   UNL     1      34.399 -16.381 -20.889  0.00  0.00    +0.034 C 
ATOM     14  C   UNL     1      33.963 -15.233 -22.991  0.00  0.00    -0.003 C 
ATOM     15  C   UNL     1      34.598 -17.534 -21.619  0.00  0.00    +0.176 C 
ATOM     16  C   UNL     1      34.169 -16.414 -23.707  0.00  0.00    +0.040 C 
ATOM     17  C   UNL     1      34.486 -17.550 -22.991  0.00  0.00    +0.176 C 
ATOM     18  C   UNL     1      34.994 -19.543 -22.318  0.00  0.00    +0.429 C 
ENDBRANCH   9  12
ENDBRANCH   1   9
BRANCH   2  19
ATOM     19  C   UNL     1      31.379  -9.395 -23.119  0.00  0.00    +0.011 C 
BRANCH  19  23
ATOM     20  S   UNL     1      31.521  -4.761 -25.034  0.00  0.00    -0.084 S 
ATOM     21  O   UNL     1      30.671  -8.268 -21.186  0.00  0.00    -0.276 OA
ATOM     22  N   UNL     1      31.737  -6.938 -22.818  0.00  0.00    -0.238 N 
ATOM     23  C   UNL     1      31.266  -8.149 -22.261  0.00  0.00    +0.212 C 
ATOM     24  C   UNL     1      32.814  -6.873 -23.776  0.00  0.00    +0.064 C 
ATOM     25  C   UNL     1      31.165  -5.668 -22.421  0.00  0.00    +0.064 C 
ATOM     26  C   UNL     1      32.839  -5.927 -24.812  0.00  0.00    +0.043 C 
ATOM     27  C   UNL     1      31.034  -4.602 -23.331  0.00  0.00    +0.043 C 
ATOM     28  C   UNL     1      33.921  -7.731 -23.645  0.00  0.00    +0.016 C 
ATOM     29  C   UNL     1      30.722  -5.452 -21.102  0.00  0.00    +0.016 C 
ATOM     30  C   UNL     1      33.907  -5.896 -25.724  0.00  0.00    +0.008 C 
ATOM     31  C   UNL     1      30.457  -3.384 -22.935  0.00  0.00    +0.008 C 
ATOM     32  C   UNL     1      34.986  -7.692 -24.548  0.00  0.00    +0.001 C 
ATOM     33  C   UNL     1      30.155  -4.236 -20.711  0.00  0.00    +0.001 C 
ATOM     34  C   UNL     1      34.974  -6.779 -25.595  0.00  0.00    +0.001 C 
ATOM     35  C   UNL     1      30.017  -3.203 -21.628  0.00  0.00    +0.001 C 
ENDBRANCH  19  23
ENDBRANCH   2  19
TORSDOF 4
ENDMDL
MODEL 5
REMARK VINA RESULT:     -10.4      1.296      3.575
REMARK  Name = 72098
REMARK  4 active torsions:
REMARK  status: ('A' for Active; 'I' for Inactive)
REMARK    1  A    between atoms: N_1  and  C_9
REMARK    2  A    between atoms: N_2  and  C_19
REMARK    3  A    between atoms: C_9  and  C_12
REMARK    4  A    between atoms: C_19  and  C_23
REMARK                            x       y       z     vdW  Elec       q    Type
REMARK                         _______ _______ _______ _____ _____    ______ ____
ROOT
ATOM      1  N   UNL     1      34.868 -19.392 -20.571  0.00  0.00    +0.387 N 
ATOM      2  N   UNL     1      33.746 -21.835 -19.507  0.00  0.00    +0.390 N 
ATOM      3  C   UNL     1      33.533 -19.855 -20.971  0.00  0.00    -0.100 C 
ATOM      4  C   UNL     1      35.721 -20.532 -20.218  0.00  0.00    -0.100 C 
ATOM      5  C   UNL     1      32.891 -20.695 -19.859  0.00  0.00    -0.100 C 
ATOM      6  C   UNL     1      35.079 -21.371 -19.107  0.00  0.00    -0.100 C 
ATOM      7  H   UNL     1      34.768 -18.798 -19.749  0.00  0.00    -0.079 HD
ATOM      8  H   UNL     1      33.845 -22.429 -20.330  0.00  0.00    -0.079 HD
ENDROOT
BRANCH   1   9
ATOM      9  C   UNL     1      35.479 -18.595 -21.633  0.00  0.00    -0.050 C 
BRANCH   9  12
ATOM     10  O   UNL     1      33.617 -14.790 -24.167  0.00  0.00    -0.435 OA
ATOM     11  O   UNL     1      33.165 -13.528 -22.164  0.00  0.00    -0.435 OA
ATOM     12  C   UNL     1      34.857 -17.229 -21.738  0.00  0.00    -0.040 C 
ATOM     13  C   UNL     1      34.552 -16.715 -22.994  0.00  0.00    +0.034 C 
ATOM     14  C   UNL     1      34.598 -16.505 -20.569  0.00  0.00    -0.003 C 
ATOM     15  C   UNL     1      33.983 -15.460 -23.041  0.00  0.00    +0.176 C 
ATOM     16  C   UNL     1      34.021 -15.235 -20.643  0.00  0.00    +0.040 C 
ATOM     17  C   UNL     1      33.725 -14.739 -21.896  0.00  0.00    +0.176 C 
ATOM     18  C   UNL     1      33.099 -13.567 -23.604  0.00  0.00    +0.429 C 
ENDBRANCH   9  12
ENDBRANCH   1   9
BRANCH   2  19
ATOM     19  C   UNL     1      33.133 -22.634 -18.447  0.00  0.00    +0.011 C 
BRANCH  19  23
ATOM     20  S   UNL     1      32.305 -24.954 -14.077  0.00  0.00    -0.084 S 
ATOM     21  O   UNL     1      34.961 -21.722 -17.291  0.00  0.00    -0.276 OA
ATOM     22  N   UNL     1      33.260 -22.656 -15.949  0.00  0.00    -0.238 N 
ATOM     23  C   UNL     1      33.854 -22.255 -17.167  0.00  0.00    +0.212 C 
ATOM     24  C   UNL     1      31.835 -22.807 -15.775  0.00  0.00    +0.064 C 
ATOM     25  C   UNL     1      34.071 -22.912 -14.777  0.00  0.00    +0.064 C 
ATOM     26  C   UNL     1      31.282 -23.795 -14.946  0.00  0.00    +0.043 C 
ATOM     27  C   UNL     1      33.729 -23.914 -13.848  0.00  0.00    +0.043 C 
ATOM     28  C   UNL     1      30.953 -21.901 -16.393  0.00  0.00    +0.016 C 
ATOM     29  C   UNL     1      35.235 -22.162 -14.521  0.00  0.00    +0.016 C 
ATOM     30  C   UNL     1      29.890 -23.909 -14.803  0.00  0.00    +0.008 C 
ATOM     31  C   UNL     1      34.540 -24.164 -12.729  0.00  0.00    +0.008 C 
ATOM     32  C   UNL     1      29.569 -22.010 -16.241  0.00  0.00    +0.001 C 
ATOM     33  C   UNL     1      36.034 -22.410 -13.401  0.00  0.00    +0.001 C 
ATOM     34  C   UNL     1      29.037 -23.022 -15.453  0.00  0.00    +0.001 C 
ATOM     35  C   UNL     1      35.690 -23.414 -12.508  0.00  0.00    +0.001 C 
ENDBRANCH  19  23
ENDBRANCH   2  19
TORSDOF 4
ENDMDL
MODEL 6
REMARK VINA RESULT:      -9.9      8.716     14.873
REMARK  Name = 72098
REMARK  4 active torsions:
REMARK  status: ('A' for Active; 'I' for Inactive)
REMARK    1  A    between atoms: N_1  and  C_9
REMARK    2  A    between atoms: N_2  and  C_19
REMARK    3  A    between atoms: C_9  and  C_12
REMARK    4  A    between atoms: C_19  and  C_23
REMARK                            x       y       z     vdW  Elec       q    Type
REMARK                         _______ _______ _______ _____ _____    ______ ____
ROOT
ATOM      1  N   UNL     1      32.389 -11.608 -22.492  0.00  0.00    +0.387 N 
ATOM      2  N   UNL     1      30.868  -9.151 -22.549  0.00  0.00    +0.390 N 
ATOM      3  C   UNL     1      31.590 -11.179 -21.336  0.00  0.00    -0.100 C 
ATOM      4  C   UNL     1      32.851 -10.444 -23.256  0.00  0.00    -0.100 C 
ATOM      5  C   UNL     1      30.405 -10.315 -21.784  0.00  0.00    -0.100 C 
ATOM      6  C   UNL     1      31.666  -9.581 -23.703  0.00  0.00    -0.100 C 
ATOM      7  H   UNL     1      31.799 -12.177 -23.097  0.00  0.00    -0.079 HD
ATOM      8  H   UNL     1      31.459  -8.582 -21.944  0.00  0.00    -0.079 HD
ENDROOT
BRANCH   1   9
ATOM      9  C   UNL     1      33.520 -12.429 -22.063  0.00  0.00    -0.050 C 
BRANCH   9  12
ATOM     10  O   UNL     1      34.551 -17.242 -22.436  0.00  0.00    -0.435 OA
ATOM     11  O   UNL     1      33.803 -17.343 -24.725  0.00  0.00    -0.435 OA
ATOM     12  C   UNL     1      33.581 -13.735 -22.809  0.00  0.00    -0.040 C 
ATOM     13  C   UNL     1      34.071 -14.865 -22.164  0.00  0.00    +0.034 C 
ATOM     14  C   UNL     1      33.144 -13.782 -24.138  0.00  0.00    -0.003 C 
ATOM     15  C   UNL     1      34.108 -16.038 -22.888  0.00  0.00    +0.176 C 
ATOM     16  C   UNL     1      33.192 -14.983 -24.850  0.00  0.00    +0.040 C 
ATOM     17  C   UNL     1      33.680 -16.095 -24.195  0.00  0.00    +0.176 C 
ATOM     18  C   UNL     1      34.354 -18.065 -23.604  0.00  0.00    +0.429 C 
ENDBRANCH   9  12
ENDBRANCH   1   9
BRANCH   2  19
ATOM     19  C   UNL     1      29.737  -8.328 -22.976  0.00  0.00    +0.011 C 
BRANCH  19  23
ATOM     20  S   UNL     1      34.456  -6.633 -22.837  0.00  0.00    -0.084 S 
ATOM     21  O   UNL     1      29.751  -7.352 -25.110  0.00  0.00    -0.276 OA
ATOM     22  N   UNL     1      31.448  -6.627 -23.640  0.00  0.00    -0.238 N 
ATOM     23  C   UNL     1      30.290  -7.354 -24.000  0.00  0.00    +0.212 C 
ATOM     24  C   UNL     1      31.761  -6.261 -22.280  0.00  0.00    +0.064 C 
ATOM     25  C   UNL     1      32.385  -6.178 -24.648  0.00  0.00    +0.064 C 
ATOM     26  C   UNL     1      33.080  -6.211 -21.801  0.00  0.00    +0.043 C 
ATOM     27  C   UNL     1      33.768  -6.120 -24.395  0.00  0.00    +0.043 C 
ATOM     28  C   UNL     1      30.731  -5.869 -21.404  0.00  0.00    +0.016 C 
ATOM     29  C   UNL     1      31.942  -5.779 -25.923  0.00  0.00    +0.016 C 
ATOM     30  C   UNL     1      33.343  -5.849 -20.471  0.00  0.00    +0.008 C 
ATOM     31  C   UNL     1      34.665  -5.702 -25.392  0.00  0.00    +0.008 C 
ATOM     32  C   UNL     1      30.997  -5.499 -20.083  0.00  0.00    +0.001 C 
ATOM     33  C   UNL     1      32.838  -5.357 -26.910  0.00  0.00    +0.001 C 
ATOM     34  C   UNL     1      32.304  -5.499 -19.614  0.00  0.00    +0.001 C 
ATOM     35  C   UNL     1      34.200  -5.324 -26.647  0.00  0.00    +0.001 C 
ENDBRANCH  19  23
ENDBRANCH   2  19
TORSDOF 4
ENDMDL
MODEL 7
REMARK VINA RESULT:      -9.7      5.929     12.830
REMARK  Name = 72098
REMARK  4 active torsions:
REMARK  status: ('A' for Active; 'I' for Inactive)
REMARK    1  A    between atoms: N_1  and  C_9
REMARK    2  A    between atoms: N_2  and  C_19
REMARK    3  A    between atoms: C_9  and  C_12
REMARK    4  A    between atoms: C_19  and  C_23
REMARK                            x       y       z     vdW  Elec       q    Type
REMARK                         _______ _______ _______ _____ _____    ______ ____
ROOT
ATOM      1  N   UNL     1      34.152 -15.282 -23.194  0.00  0.00    +0.387 N 
ATOM      2  N   UNL     1      33.192 -12.638 -22.528  0.00  0.00    +0.390 N 
ATOM      3  C   UNL     1      33.576 -14.400 -24.217  0.00  0.00    -0.100 C 
ATOM      4  C   UNL     1      33.569 -14.992 -21.879  0.00  0.00    -0.100 C 
ATOM      5  C   UNL     1      33.777 -12.927 -23.843  0.00  0.00    -0.100 C 
ATOM      6  C   UNL     1      33.770 -13.519 -21.506  0.00  0.00    -0.100 C 
ATOM      7  H   UNL     1      35.155 -15.106 -23.146  0.00  0.00    -0.079 HD
ATOM      8  H   UNL     1      32.189 -12.815 -22.575  0.00  0.00    -0.079 HD
ENDROOT
BRANCH   1   9
ATOM      9  C   UNL     1      33.957 -16.686 -23.550  0.00  0.00    -0.050 C 
BRANCH   9  12
ATOM     10  O   UNL     1      33.646 -20.382 -20.292  0.00  0.00    -0.435 OA
ATOM     11  O   UNL     1      35.970 -20.195 -19.683  0.00  0.00    -0.435 OA
ATOM     12  C   UNL     1      34.532 -17.614 -22.514  0.00  0.00    -0.040 C 
ATOM     13  C   UNL     1      33.710 -18.567 -21.923  0.00  0.00    +0.034 C 
ATOM     14  C   UNL     1      35.883 -17.497 -22.168  0.00  0.00    -0.003 C 
ATOM     15  C   UNL     1      34.281 -19.395 -20.979  0.00  0.00    +0.176 C 
ATOM     16  C   UNL     1      36.438 -18.348 -21.209  0.00  0.00    +0.040 C 
ATOM     17  C   UNL     1      35.610 -19.287 -20.632  0.00  0.00    +0.176 C 
ATOM     18  C   UNL     1      34.722 -20.886 -19.474  0.00  0.00    +0.429 C 
ENDBRANCH   9  12
ENDBRANCH   1   9
BRANCH   2  19
ATOM     19  C   UNL     1      33.386 -11.233 -22.172  0.00  0.00    +0.011 C 
BRANCH  19  23
ATOM     20  S   UNL     1      32.526  -6.327 -21.577  0.00  0.00    -0.084 S 
ATOM     21  O   UNL     1      32.361 -10.870 -24.253  0.00  0.00    -0.276 OA
ATOM     22  N   UNL     1      31.982  -9.210 -22.619  0.00  0.00    -0.238 N 
ATOM     23  C   UNL     1      32.490 -10.438 -23.103  0.00  0.00    +0.212 C 
ATOM     24  C   UNL     1      31.716  -8.960 -21.223  0.00  0.00    +0.064 C 
ATOM     25  C   UNL     1      31.669  -8.127 -23.527  0.00  0.00    +0.064 C 
ATOM     26  C   UNL     1      31.908  -7.698 -20.638  0.00  0.00    +0.043 C 
ATOM     27  C   UNL     1      31.855  -6.781 -23.161  0.00  0.00    +0.043 C 
ATOM     28  C   UNL     1      31.181  -9.981 -20.416  0.00  0.00    +0.016 C 
ATOM     29  C   UNL     1      31.161  -8.383 -24.815  0.00  0.00    +0.016 C 
ATOM     30  C   UNL     1      31.636  -7.495 -19.276  0.00  0.00    +0.008 C 
ATOM     31  C   UNL     1      31.567  -5.743 -24.062  0.00  0.00    +0.008 C 
ATOM     32  C   UNL     1      30.903  -9.774 -19.063  0.00  0.00    +0.001 C 
ATOM     33  C   UNL     1      30.869  -7.347 -25.706  0.00  0.00    +0.001 C 
ATOM     34  C   UNL     1      31.141  -8.531 -18.490  0.00  0.00    +0.001 C 
ATOM     35  C   UNL     1      31.077  -6.027 -25.332  0.00  0.00    +0.001 C 
ENDBRANCH  19  23
ENDBRANCH   2  19
TORSDOF 4
ENDMDL
MODEL 8
REMARK VINA RESULT:      -9.7      9.270     16.758
REMARK  Name = 72098
REMARK  4 active torsions:
REMARK  status: ('A' for Active; 'I' for Inactive)
REMARK    1  A    between atoms: N_1  and  C_9
REMARK    2  A    between atoms: N_2  and  C_19
REMARK    3  A    between atoms: C_9  and  C_12
REMARK    4  A    between atoms: C_19  and  C_23
REMARK                            x       y       z     vdW  Elec       q    Type
REMARK                         _______ _______ _______ _____ _____    ______ ____
ROOT
ATOM      1  N   UNL     1      32.140 -10.591 -22.889  0.00  0.00    +0.387 N 
ATOM      2  N   UNL     1      33.397  -8.016 -23.268  0.00  0.00    +0.390 N 
ATOM      3  C   UNL     1      31.484  -9.351 -22.454  0.00  0.00    -0.100 C 
ATOM      4  C   UNL     1      33.599 -10.442 -22.846  0.00  0.00    -0.100 C 
ATOM      5  C   UNL     1      31.938  -8.164 -23.312  0.00  0.00    -0.100 C 
ATOM      6  C   UNL     1      34.051  -9.256 -23.704  0.00  0.00    -0.100 C 
ATOM      7  H   UNL     1      31.864 -10.779 -23.852  0.00  0.00    -0.079 HD
ATOM      8  H   UNL     1      33.673  -7.829 -22.305  0.00  0.00    -0.079 HD
ENDROOT
BRANCH   1   9
ATOM      9  C   UNL     1      31.709 -11.721 -22.067  0.00  0.00    -0.050 C 
BRANCH   9  12
ATOM     10  O   UNL     1      34.365 -15.648 -20.693  0.00  0.00    -0.435 OA
ATOM     11  O   UNL     1      34.730 -16.344 -22.971  0.00  0.00    -0.435 OA
ATOM     12  C   UNL     1      32.516 -12.960 -22.347  0.00  0.00    -0.040 C 
ATOM     13  C   UNL     1      33.040 -13.685 -21.283  0.00  0.00    +0.034 C 
ATOM     14  C   UNL     1      32.722 -13.354 -23.674  0.00  0.00    -0.003 C 
ATOM     15  C   UNL     1      33.773 -14.813 -21.589  0.00  0.00    +0.176 C 
ATOM     16  C   UNL     1      33.468 -14.501 -23.957  0.00  0.00    +0.040 C 
ATOM     17  C   UNL     1      33.981 -15.210 -22.891  0.00  0.00    +0.176 C 
ATOM     18  C   UNL     1      34.968 -16.617 -21.575  0.00  0.00    +0.429 C 
ENDBRANCH   9  12
ENDBRANCH   1   9
BRANCH   2  19
ATOM     19  C   UNL     1      33.828  -6.885 -24.088  0.00  0.00    +0.011 C 
BRANCH  19  23
ATOM     20  S   UNL     1      31.528  -3.304 -26.743  0.00  0.00    -0.084 S 
ATOM     21  O   UNL     1      32.878  -5.749 -22.267  0.00  0.00    -0.276 OA
ATOM     22  N   UNL     1      32.995  -4.535 -24.287  0.00  0.00    -0.238 N 
ATOM     23  C   UNL     1      33.224  -5.649 -23.448  0.00  0.00    +0.212 C 
ATOM     24  C   UNL     1      33.800  -4.238 -25.447  0.00  0.00    +0.064 C 
ATOM     25  C   UNL     1      31.931  -3.596 -23.998  0.00  0.00    +0.064 C 
ATOM     26  C   UNL     1      33.259  -3.668 -26.610  0.00  0.00    +0.043 C 
ATOM     27  C   UNL     1      31.209  -2.961 -25.027  0.00  0.00    +0.043 C 
ATOM     28  C   UNL     1      35.190  -4.454 -25.410  0.00  0.00    +0.016 C 
ATOM     29  C   UNL     1      31.581  -3.280 -22.672  0.00  0.00    +0.016 C 
ATOM     30  C   UNL     1      34.077  -3.394 -27.717  0.00  0.00    +0.008 C 
ATOM     31  C   UNL     1      30.165  -2.070 -24.729  0.00  0.00    +0.008 C 
ATOM     32  C   UNL     1      36.003  -4.172 -26.510  0.00  0.00    +0.001 C 
ATOM     33  C   UNL     1      30.547  -2.387 -22.380  0.00  0.00    +0.001 C 
ATOM     34  C   UNL     1      35.444  -3.650 -27.669  0.00  0.00    +0.001 C 
ATOM     35  C   UNL     1      29.834  -1.786 -23.409  0.00  0.00    +0.001 C 
ENDBRANCH  19  23
ENDBRANCH   2  19
TORSDOF 4
ENDMDL
MODEL 9
REMARK VINA RESULT:      -9.7      7.265     13.102
REMARK  Name = 72098
REMARK  4 active torsions:
REMARK  status: ('A' for Active; 'I' for Inactive)
REMARK    1  A    between atoms: N_1  and  C_9
REMARK    2  A    between atoms: N_2  and  C_19
REMARK    3  A    between atoms: C_9  and  C_12
REMARK    4  A    between atoms: C_19  and  C_23
REMARK                            x       y       z     vdW  Elec       q    Type
REMARK                         _______ _______ _______ _____ _____    ______ ____
ROOT
ATOM      1  N   UNL     1      33.494 -14.255 -24.285  0.00  0.00    +0.387 N 
ATOM      2  N   UNL     1      32.977 -11.552 -23.401  0.00  0.00    +0.390 N 
ATOM      3  C   UNL     1      33.082 -13.210 -25.231  0.00  0.00    -0.100 C 
ATOM      4  C   UNL     1      32.952 -13.980 -22.950  0.00  0.00    -0.100 C 
ATOM      5  C   UNL     1      33.519 -11.825 -24.737  0.00  0.00    -0.100 C 
ATOM      6  C   UNL     1      33.390 -12.596 -22.457  0.00  0.00    -0.100 C 
ATOM      7  H   UNL     1      34.511 -14.252 -24.227  0.00  0.00    -0.079 HD
ATOM      8  H   UNL     1      31.959 -11.556 -23.460  0.00  0.00    -0.079 HD
ENDROOT
BRANCH   1   9
ATOM      9  C   UNL     1      33.073 -15.573 -24.755  0.00  0.00    -0.050 C 
BRANCH   9  12
ATOM     10  O   UNL     1      35.681 -17.299 -20.936  0.00  0.00    -0.435 OA
ATOM     11  O   UNL     1      35.306 -19.594 -21.567  0.00  0.00    -0.435 OA
ATOM     12  C   UNL     1      33.658 -16.681 -23.921  0.00  0.00    -0.040 C 
ATOM     13  C   UNL     1      34.408 -16.360 -22.795  0.00  0.00    +0.034 C 
ATOM     14  C   UNL     1      33.434 -18.010 -24.296  0.00  0.00    -0.003 C 
ATOM     15  C   UNL     1      34.925 -17.407 -22.061  0.00  0.00    +0.176 C 
ATOM     16  C   UNL     1      33.968 -19.053 -23.536  0.00  0.00    +0.040 C 
ATOM     17  C   UNL     1      34.710 -18.718 -22.422  0.00  0.00    +0.176 C 
ATOM     18  C   UNL     1      35.919 -18.687 -20.627  0.00  0.00    +0.429 C 
ENDBRANCH   9  12
ENDBRANCH   1   9
BRANCH   2  19
ATOM     19  C   UNL     1      33.396 -10.232 -22.932  0.00  0.00    +0.011 C 
BRANCH  19  23
ATOM     20  S   UNL     1      32.168  -6.056 -20.438  0.00  0.00    -0.084 S 
ATOM     21  O   UNL     1      32.144  -9.234 -24.649  0.00  0.00    -0.276 OA
ATOM     22  N   UNL     1      31.782  -8.374 -22.482  0.00  0.00    -0.238 N 
ATOM     23  C   UNL     1      32.346  -9.257 -23.431  0.00  0.00    +0.212 C 
ATOM     24  C   UNL     1      31.634  -8.704 -21.085  0.00  0.00    +0.064 C 
ATOM     25  C   UNL     1      31.287  -7.073 -22.881  0.00  0.00    +0.064 C 
ATOM     26  C   UNL     1      31.769  -7.744 -20.069  0.00  0.00    +0.043 C 
ATOM     27  C   UNL     1      31.389  -5.954 -22.033  0.00  0.00    +0.043 C 
ATOM     28  C   UNL     1      31.273 -10.011 -20.707  0.00  0.00    +0.016 C 
ATOM     29  C   UNL     1      30.680  -6.882 -24.136  0.00  0.00    +0.016 C 
ATOM     30  C   UNL     1      31.616  -8.106 -18.721  0.00  0.00    +0.008 C 
ATOM     31  C   UNL     1      30.923  -4.694 -22.446  0.00  0.00    +0.008 C 
ATOM     32  C   UNL     1      31.112 -10.365 -19.366  0.00  0.00    +0.001 C 
ATOM     33  C   UNL     1      30.211  -5.628 -24.539  0.00  0.00    +0.001 C 
ATOM     34  C   UNL     1      31.293  -9.413 -18.371  0.00  0.00    +0.001 C 
ATOM     35  C   UNL     1      30.337  -4.533 -23.696  0.00  0.00    +0.001 C 
ENDBRANCH  19  23
ENDBRANCH   2  19
TORSDOF 4
ENDMDL
