MODEL 1
REMARK VINA RESULT:     -11.6      0.000      0.000
REMARK  Name = 5288850
REMARK  5 active torsions:
REMARK  status: ('A' for Active; 'I' for Inactive)
REMARK    1  A    between atoms: S_1  and  C_7
REMARK    2  A    between atoms: S_1  and  N_16
REMARK    3  A    between atoms: C_17  and  C_21
REMARK    4  A    between atoms: C_21  and  O_22
REMARK    5  A    between atoms: O_22  and  C_23
REMARK                            x       y       z     vdW  Elec       q    Type
REMARK                         _______ _______ _______ _____ _____    ______ ____
ROOT
ATOM      1  S   UNL     1      35.860 -18.389 -21.448  0.00  0.00    +0.063 S 
ATOM      2  O   UNL     1      36.613 -18.717 -22.644  0.00  0.00    -0.153 OA
ATOM      3  O   UNL     1      36.535 -18.214 -20.176  0.00  0.00    -0.153 OA
ENDROOT
BRANCH   1   7
ATOM      4  O   UNL     1      33.642 -15.152 -25.662  0.00  0.00    -0.282 OA
ATOM      5  O   UNL     1      32.261 -12.761 -24.924  0.00  0.00    -0.266 OA
ATOM      6  N   UNL     1      32.834 -13.481 -22.733  0.00  0.00    -0.251 N 
ATOM      7  C   UNL     1      34.951 -16.910 -21.780  0.00  0.00    +0.122 C 
ATOM      8  C   UNL     1      34.667 -16.578 -23.095  0.00  0.00    +0.024 C 
ATOM      9  C   UNL     1      34.544 -16.113 -20.703  0.00  0.00    +0.021 C 
ATOM     10  C   UNL     1      33.955 -15.413 -23.287  0.00  0.00    +0.059 C 
ATOM     11  C   UNL     1      33.535 -14.596 -22.239  0.00  0.00    +0.058 C 
ATOM     12  C   UNL     1      33.823 -14.935 -20.930  0.00  0.00    +0.016 C 
ATOM     13  C   UNL     1      33.497 -14.783 -24.522  0.00  0.00    +0.250 C 
ATOM     14  C   UNL     1      32.762 -13.511 -24.115  0.00  0.00    +0.292 C 
ATOM     15  C   UNL     1      32.274 -12.456 -21.885  0.00  0.00    +0.120 C 
ENDBRANCH   1   7
BRANCH   1  16
ATOM     16  N   UNL     1      34.585 -19.496 -21.260  0.00  0.00    -0.153 NA
ATOM     17  C   UNL     1      34.315 -20.034 -19.888  0.00  0.00    +0.123 C 
ATOM     18  C   UNL     1      32.795 -19.954 -19.728  0.00  0.00    +0.023 C 
ATOM     19  C   UNL     1      33.285 -19.169 -21.908  0.00  0.00    +0.096 C 
ATOM     20  C   UNL     1      32.274 -20.013 -21.152  0.00  0.00    +0.021 C 
BRANCH  17  21
ATOM     21  C   UNL     1      34.841 -21.461 -19.812  0.00  0.00    +0.223 C 
BRANCH  21  22
ATOM     22  O   UNL     1      34.270 -22.100 -18.682  0.00  0.00    -0.474 OA
BRANCH  22  23
ATOM     23  C   UNL     1      34.976 -22.031 -17.508  0.00  0.00    +0.139 C 
ATOM     24  C   UNL     1      34.402 -22.497 -16.332  0.00  0.00    +0.037 C 
ATOM     25  C   UNL     1      36.260 -21.497 -17.509  0.00  0.00    +0.037 C 
ATOM     26  C   UNL     1      35.121 -22.427 -15.139  0.00  0.00    +0.003 C 
ATOM     27  C   UNL     1      36.979 -21.428 -16.317  0.00  0.00    +0.003 C 
ATOM     28  C   UNL     1      36.409 -21.894 -15.131  0.00  0.00    +0.000 C 
ENDBRANCH  22  23
ENDBRANCH  21  22
ENDBRANCH  17  21
ENDBRANCH   1  16
TORSDOF 5
ENDMDL
MODEL 2
REMARK VINA RESULT:     -11.2      2.069      8.334
REMARK  Name = 5288850
REMARK  5 active torsions:
REMARK  status: ('A' for Active; 'I' for Inactive)
REMARK    1  A    between atoms: S_1  and  C_7
REMARK    2  A    between atoms: S_1  and  N_16
REMARK    3  A    between atoms: C_17  and  C_21
REMARK    4  A    between atoms: C_21  and  O_22
REMARK    5  A    between atoms: O_22  and  C_23
REMARK                            x       y       z     vdW  Elec       q    Type
REMARK                         _______ _______ _______ _____ _____    ______ ____
ROOT
ATOM      1  S   UNL     1      35.701 -18.541 -22.140  0.00  0.00    +0.063 S 
ATOM      2  O   UNL     1      36.741 -17.788 -21.465  0.00  0.00    -0.153 OA
ATOM      3  O   UNL     1      36.026 -19.421 -23.246  0.00  0.00    -0.153 OA
ENDROOT
BRANCH   1   7
ATOM      4  O   UNL     1      36.493 -21.921 -17.547  0.00  0.00    -0.282 OA
ATOM      5  O   UNL     1      34.178 -23.013 -16.276  0.00  0.00    -0.266 OA
ATOM      6  N   UNL     1      33.056 -21.803 -17.985  0.00  0.00    -0.251 N 
ATOM      7  C   UNL     1      34.862 -19.504 -20.918  0.00  0.00    +0.122 C 
ATOM      8  C   UNL     1      35.609 -20.173 -19.962  0.00  0.00    +0.024 C 
ATOM      9  C   UNL     1      33.464 -19.564 -20.951  0.00  0.00    +0.021 C 
ATOM     10  C   UNL     1      34.896 -20.906 -19.038  0.00  0.00    +0.059 C 
ATOM     11  C   UNL     1      33.504 -20.988 -19.041  0.00  0.00    +0.058 C 
ATOM     12  C   UNL     1      32.767 -20.317 -19.999  0.00  0.00    +0.016 C 
ATOM     13  C   UNL     1      35.363 -21.716 -17.915  0.00  0.00    +0.250 C 
ATOM     14  C   UNL     1      34.120 -22.291 -17.247  0.00  0.00    +0.292 C 
ATOM     15  C   UNL     1      31.662 -22.076 -17.732  0.00  0.00    +0.120 C 
ENDBRANCH   1   7
BRANCH   1  16
ATOM     16  N   UNL     1      34.453 -17.486 -22.608  0.00  0.00    -0.153 NA
ATOM     17  C   UNL     1      34.687 -16.013 -22.470  0.00  0.00    +0.123 C 
ATOM     18  C   UNL     1      34.183 -15.410 -23.784  0.00  0.00    +0.023 C 
ATOM     19  C   UNL     1      33.787 -17.742 -23.915  0.00  0.00    +0.096 C 
ATOM     20  C   UNL     1      33.150 -16.410 -24.270  0.00  0.00    +0.021 C 
BRANCH  17  21
ATOM     21  C   UNL     1      33.916 -15.510 -21.257  0.00  0.00    +0.223 C 
BRANCH  21  22
ATOM     22  O   UNL     1      34.282 -14.163 -21.008  0.00  0.00    -0.474 OA
BRANCH  22  23
ATOM     23  C   UNL     1      33.368 -13.198 -21.349  0.00  0.00    +0.139 C 
ATOM     24  C   UNL     1      32.285 -12.953 -20.517  0.00  0.00    +0.037 C 
ATOM     25  C   UNL     1      33.540 -12.476 -22.525  0.00  0.00    +0.037 C 
ATOM     26  C   UNL     1      31.356 -11.972 -20.864  0.00  0.00    +0.003 C 
ATOM     27  C   UNL     1      32.612 -11.494 -22.872  0.00  0.00    +0.003 C 
ATOM     28  C   UNL     1      31.519 -11.242 -22.041  0.00  0.00    +0.000 C 
ENDBRANCH  22  23
ENDBRANCH  21  22
ENDBRANCH  17  21
ENDBRANCH   1  16
TORSDOF 5
ENDMDL
MODEL 3
REMARK VINA RESULT:     -11.1      5.288      8.708
REMARK  Name = 5288850
REMARK  5 active torsions:
REMARK  status: ('A' for Active; 'I' for Inactive)
REMARK    1  A    between atoms: S_1  and  C_7
REMARK    2  A    between atoms: S_1  and  N_16
REMARK    3  A    between atoms: C_17  and  C_21
REMARK    4  A    between atoms: C_21  and  O_22
REMARK    5  A    between atoms: O_22  and  C_23
REMARK                            x       y       z     vdW  Elec       q    Type
REMARK                         _______ _______ _______ _____ _____    ______ ____
ROOT
ATOM      1  S   UNL     1      36.917 -23.808 -14.397  0.00  0.00    +0.063 S 
ATOM      2  O   UNL     1      36.628 -25.220 -14.557  0.00  0.00    -0.153 OA
ATOM      3  O   UNL     1      38.287 -23.342 -14.290  0.00  0.00    -0.153 OA
ENDROOT
BRANCH   1   7
ATOM      4  O   UNL     1      31.980 -23.111 -17.278  0.00  0.00    -0.282 OA
ATOM      5  O   UNL     1      31.969 -21.307 -19.494  0.00  0.00    -0.266 OA
ATOM      6  N   UNL     1      34.250 -21.038 -18.882  0.00  0.00    -0.251 N 
ATOM      7  C   UNL     1      36.166 -22.954 -15.750  0.00  0.00    +0.122 C 
ATOM      8  C   UNL     1      34.826 -23.180 -16.025  0.00  0.00    +0.024 C 
ATOM      9  C   UNL     1      36.945 -22.072 -16.508  0.00  0.00    +0.021 C 
ATOM     10  C   UNL     1      34.300 -22.484 -17.092  0.00  0.00    +0.059 C 
ATOM     11  C   UNL     1      35.047 -21.600 -17.868  0.00  0.00    +0.058 C 
ATOM     12  C   UNL     1      36.383 -21.380 -17.586  0.00  0.00    +0.016 C 
ATOM     13  C   UNL     1      32.947 -22.488 -17.644  0.00  0.00    +0.250 C 
ATOM     14  C   UNL     1      32.956 -21.523 -18.823  0.00  0.00    +0.292 C 
ATOM     15  C   UNL     1      34.747 -20.084 -19.844  0.00  0.00    +0.120 C 
ENDBRANCH   1   7
BRANCH   1  16
ATOM     16  N   UNL     1      36.009 -23.188 -13.102  0.00  0.00    -0.153 NA
ATOM     17  C   UNL     1      34.834 -23.983 -12.620  0.00  0.00    +0.123 C 
ATOM     18  C   UNL     1      34.951 -23.971 -11.094  0.00  0.00    +0.023 C 
ATOM     19  C   UNL     1      36.755 -22.676 -11.918  0.00  0.00    +0.096 C 
ATOM     20  C   UNL     1      35.730 -22.703 -10.798  0.00  0.00    +0.021 C 
BRANCH  17  21
ATOM     21  C   UNL     1      33.559 -23.318 -13.119  0.00  0.00    +0.223 C 
BRANCH  21  22
ATOM     22  O   UNL     1      32.457 -24.162 -12.828  0.00  0.00    -0.474 OA
BRANCH  22  23
ATOM     23  C   UNL     1      31.293 -23.923 -13.514  0.00  0.00    +0.139 C 
ATOM     24  C   UNL     1      30.424 -24.973 -13.777  0.00  0.00    +0.037 C 
ATOM     25  C   UNL     1      30.999 -22.632 -13.936  0.00  0.00    +0.037 C 
ATOM     26  C   UNL     1      29.240 -24.729 -14.474  0.00  0.00    +0.003 C 
ATOM     27  C   UNL     1      29.816 -22.388 -14.632  0.00  0.00    +0.003 C 
ATOM     28  C   UNL     1      28.935 -23.437 -14.901  0.00  0.00    +0.000 C 
ENDBRANCH  22  23
ENDBRANCH  21  22
ENDBRANCH  17  21
ENDBRANCH   1  16
TORSDOF 5
ENDMDL
MODEL 4
REMARK VINA RESULT:     -10.6      1.134      2.015
REMARK  Name = 5288850
REMARK  5 active torsions:
REMARK  status: ('A' for Active; 'I' for Inactive)
REMARK    1  A    between atoms: S_1  and  C_7
REMARK    2  A    between atoms: S_1  and  N_16
REMARK    3  A    between atoms: C_17  and  C_21
REMARK    4  A    between atoms: C_21  and  O_22
REMARK    5  A    between atoms: O_22  and  C_23
REMARK                            x       y       z     vdW  Elec       q    Type
REMARK                         _______ _______ _______ _____ _____    ______ ____
ROOT
ATOM      1  S   UNL     1      35.822 -18.301 -21.391  0.00  0.00    +0.063 S 
ATOM      2  O   UNL     1      36.832 -18.793 -22.310  0.00  0.00    -0.153 OA
ATOM      3  O   UNL     1      36.191 -17.847 -20.064  0.00  0.00    -0.153 OA
ENDROOT
BRANCH   1   7
ATOM      4  O   UNL     1      33.379 -13.158 -20.532  0.00  0.00    -0.282 OA
ATOM      5  O   UNL     1      32.214 -11.839 -22.784  0.00  0.00    -0.266 OA
ATOM      6  N   UNL     1      32.967 -13.788 -23.917  0.00  0.00    -0.251 N 
ATOM      7  C   UNL     1      34.971 -16.976 -22.194  0.00  0.00    +0.122 C 
ATOM      8  C   UNL     1      34.574 -15.881 -21.443  0.00  0.00    +0.024 C 
ATOM      9  C   UNL     1      34.722 -17.070 -23.568  0.00  0.00    +0.021 C 
ATOM     10  C   UNL     1      33.915 -14.883 -22.128  0.00  0.00    +0.059 C 
ATOM     11  C   UNL     1      33.649 -14.944 -23.495  0.00  0.00    +0.058 C 
ATOM     12  C   UNL     1      34.050 -16.040 -24.236  0.00  0.00    +0.016 C 
ATOM     13  C   UNL     1      33.370 -13.615 -21.649  0.00  0.00    +0.250 C 
ATOM     14  C   UNL     1      32.753 -12.923 -22.859  0.00  0.00    +0.292 C 
ATOM     15  C   UNL     1      32.557 -13.564 -25.282  0.00  0.00    +0.120 C 
ENDBRANCH   1   7
BRANCH   1  16
ATOM     16  N   UNL     1      34.568 -19.440 -21.267  0.00  0.00    -0.153 NA
ATOM     17  C   UNL     1      34.288 -20.038 -19.922  0.00  0.00    +0.123 C 
ATOM     18  C   UNL     1      32.765 -19.994 -19.781  0.00  0.00    +0.023 C 
ATOM     19  C   UNL     1      33.271 -19.113 -21.921  0.00  0.00    +0.096 C 
ATOM     20  C   UNL     1      32.266 -20.007 -21.215  0.00  0.00    +0.021 C 
BRANCH  17  21
ATOM     21  C   UNL     1      34.842 -21.456 -19.894  0.00  0.00    +0.223 C 
BRANCH  21  22
ATOM     22  O   UNL     1      34.298 -22.139 -18.776  0.00  0.00    -0.474 OA
BRANCH  22  23
ATOM     23  C   UNL     1      34.977 -22.024 -17.589  0.00  0.00    +0.139 C 
ATOM     24  C   UNL     1      36.238 -21.442 -17.573  0.00  0.00    +0.037 C 
ATOM     25  C   UNL     1      34.393 -22.491 -16.417  0.00  0.00    +0.037 C 
ATOM     26  C   UNL     1      36.927 -21.326 -16.366  0.00  0.00    +0.003 C 
ATOM     27  C   UNL     1      35.082 -22.374 -15.211  0.00  0.00    +0.003 C 
ATOM     28  C   UNL     1      36.350 -21.790 -15.185  0.00  0.00    +0.000 C 
ENDBRANCH  22  23
ENDBRANCH  21  22
ENDBRANCH  17  21
ENDBRANCH   1  16
TORSDOF 5
ENDMDL
MODEL 5
REMARK VINA RESULT:     -10.5      5.526     12.147
REMARK  Name = 5288850
REMARK  5 active torsions:
REMARK  status: ('A' for Active; 'I' for Inactive)
REMARK    1  A    between atoms: S_1  and  C_7
REMARK    2  A    between atoms: S_1  and  N_16
REMARK    3  A    between atoms: C_17  and  C_21
REMARK    4  A    between atoms: C_21  and  O_22
REMARK    5  A    between atoms: O_22  and  C_23
REMARK                            x       y       z     vdW  Elec       q    Type
REMARK                         _______ _______ _______ _____ _____    ______ ____
ROOT
ATOM      1  S   UNL     1      31.107 -10.343 -21.343  0.00  0.00    +0.063 S 
ATOM      2  O   UNL     1      29.712 -10.546 -21.686  0.00  0.00    -0.153 OA
ATOM      3  O   UNL     1      31.490  -9.979 -19.993  0.00  0.00    -0.153 OA
ENDROOT
BRANCH   1   7
ATOM      4  O   UNL     1      32.659 -13.711 -25.748  0.00  0.00    -0.282 OA
ATOM      5  O   UNL     1      34.199 -16.047 -25.167  0.00  0.00    -0.266 OA
ATOM      6  N   UNL     1      33.986 -15.249 -22.938  0.00  0.00    -0.251 N 
ATOM      7  C   UNL     1      31.981 -11.819 -21.769  0.00  0.00    +0.122 C 
ATOM      8  C   UNL     1      32.048 -12.199 -23.100  0.00  0.00    +0.024 C 
ATOM      9  C   UNL     1      32.582 -12.565 -20.748  0.00  0.00    +0.021 C 
ATOM     10  C   UNL     1      32.744 -13.359 -23.366  0.00  0.00    +0.059 C 
ATOM     11  C   UNL     1      33.353 -14.126 -22.374  0.00  0.00    +0.058 C 
ATOM     12  C   UNL     1      33.281 -13.739 -21.049  0.00  0.00    +0.016 C 
ATOM     13  C   UNL     1      33.002 -14.031 -24.637  0.00  0.00    +0.250 C 
ATOM     14  C   UNL     1      33.824 -15.273 -24.312  0.00  0.00    +0.292 C 
ATOM     15  C   UNL     1      34.704 -16.229 -22.159  0.00  0.00    +0.120 C 
ENDBRANCH   1   7
BRANCH   1  16
ATOM     16  N   UNL     1      31.804  -9.247 -22.439  0.00  0.00    -0.153 NA
ATOM     17  C   UNL     1      31.680  -7.783 -22.148  0.00  0.00    +0.123 C 
ATOM     18  C   UNL     1      33.077  -7.212 -22.404  0.00  0.00    +0.023 C 
ATOM     19  C   UNL     1      33.191  -9.525 -22.905  0.00  0.00    +0.096 C 
ATOM     20  C   UNL     1      33.689  -8.178 -23.402  0.00  0.00    +0.021 C 
BRANCH  17  21
ATOM     21  C   UNL     1      30.624  -7.190 -23.070  0.00  0.00    +0.223 C 
BRANCH  21  22
ATOM     22  O   UNL     1      30.120  -6.001 -22.485  0.00  0.00    -0.474 OA
BRANCH  22  23
ATOM     23  C   UNL     1      30.562  -4.814 -23.014  0.00  0.00    +0.139 C 
ATOM     24  C   UNL     1      30.896  -4.745 -24.361  0.00  0.00    +0.037 C 
ATOM     25  C   UNL     1      30.670  -3.696 -22.196  0.00  0.00    +0.037 C 
ATOM     26  C   UNL     1      31.345  -3.538 -24.898  0.00  0.00    +0.003 C 
ATOM     27  C   UNL     1      31.117  -2.490 -22.733  0.00  0.00    +0.003 C 
ATOM     28  C   UNL     1      31.455  -2.410 -24.085  0.00  0.00    +0.000 C 
ENDBRANCH  22  23
ENDBRANCH  21  22
ENDBRANCH  17  21
ENDBRANCH   1  16
TORSDOF 5
ENDMDL
MODEL 6
REMARK VINA RESULT:     -10.3      6.109     10.579
REMARK  Name = 5288850
REMARK  5 active torsions:
REMARK  status: ('A' for Active; 'I' for Inactive)
REMARK    1  A    between atoms: S_1  and  C_7
REMARK    2  A    between atoms: S_1  and  N_16
REMARK    3  A    between atoms: C_17  and  C_21
REMARK    4  A    between atoms: C_21  and  O_22
REMARK    5  A    between atoms: O_22  and  C_23
REMARK                            x       y       z     vdW  Elec       q    Type
REMARK                         _______ _______ _______ _____ _____    ______ ____
ROOT
ATOM      1  S   UNL     1      31.731 -23.335 -13.141  0.00  0.00    +0.063 S 
ATOM      2  O   UNL     1      31.238 -24.688 -12.958  0.00  0.00    -0.153 OA
ATOM      3  O   UNL     1      31.592 -22.350 -12.086  0.00  0.00    -0.153 OA
ENDROOT
BRANCH   1   7
ATOM      4  O   UNL     1      36.680 -25.922 -11.738  0.00  0.00    -0.282 OA
ATOM      5  O   UNL     1      39.017 -25.240 -13.235  0.00  0.00    -0.266 OA
ATOM      6  N   UNL     1      37.488 -23.821 -14.376  0.00  0.00    -0.251 N 
ATOM      7  C   UNL     1      33.447 -23.445 -13.550  0.00  0.00    +0.122 C 
ATOM      8  C   UNL     1      34.256 -24.305 -12.823  0.00  0.00    +0.024 C 
ATOM      9  C   UNL     1      33.942 -22.659 -14.597  0.00  0.00    +0.021 C 
ATOM     10  C   UNL     1      35.584 -24.343 -13.191  0.00  0.00    +0.059 C 
ATOM     11  C   UNL     1      36.110 -23.575 -14.228  0.00  0.00    +0.058 C 
ATOM     12  C   UNL     1      35.296 -22.720 -14.948  0.00  0.00    +0.016 C 
ATOM     13  C   UNL     1      36.690 -25.126 -12.644  0.00  0.00    +0.250 C 
ATOM     14  C   UNL     1      37.928 -24.753 -13.452  0.00  0.00    +0.292 C 
ATOM     15  C   UNL     1      38.308 -23.172 -15.369  0.00  0.00    +0.120 C 
ENDBRANCH   1   7
BRANCH   1  16
ATOM     16  N   UNL     1      31.111 -22.700 -14.590  0.00  0.00    -0.153 NA
ATOM     17  C   UNL     1      31.065 -23.596 -15.790  0.00  0.00    +0.123 C 
ATOM     18  C   UNL     1      29.677 -23.371 -16.395  0.00  0.00    +0.023 C 
ATOM     19  C   UNL     1      29.837 -21.933 -14.518  0.00  0.00    +0.096 C 
ATOM     20  C   UNL     1      29.304 -21.972 -15.941  0.00  0.00    +0.021 C 
BRANCH  17  21
ATOM     21  C   UNL     1      32.191 -23.200 -16.736  0.00  0.00    +0.223 C 
BRANCH  21  22
ATOM     22  O   UNL     1      31.719 -22.190 -17.613  0.00  0.00    -0.474 OA
BRANCH  22  23
ATOM     23  C   UNL     1      32.647 -21.595 -18.430  0.00  0.00    +0.139 C 
ATOM     24  C   UNL     1      33.989 -21.929 -18.302  0.00  0.00    +0.037 C 
ATOM     25  C   UNL     1      32.232 -20.666 -19.377  0.00  0.00    +0.037 C 
ATOM     26  C   UNL     1      34.932 -21.323 -19.133  0.00  0.00    +0.003 C 
ATOM     27  C   UNL     1      33.174 -20.062 -20.209  0.00  0.00    +0.003 C 
ATOM     28  C   UNL     1      34.525 -20.391 -20.087  0.00  0.00    +0.000 C 
ENDBRANCH  22  23
ENDBRANCH  21  22
ENDBRANCH  17  21
ENDBRANCH   1  16
TORSDOF 5
ENDMDL
MODEL 7
REMARK VINA RESULT:     -10.2      2.754      9.092
REMARK  Name = 5288850
REMARK  5 active torsions:
REMARK  status: ('A' for Active; 'I' for Inactive)
REMARK    1  A    between atoms: S_1  and  C_7
REMARK    2  A    between atoms: S_1  and  N_16
REMARK    3  A    between atoms: C_17  and  C_21
REMARK    4  A    between atoms: C_21  and  O_22
REMARK    5  A    between atoms: O_22  and  C_23
REMARK                            x       y       z     vdW  Elec       q    Type
REMARK                         _______ _______ _______ _____ _____    ______ ____
ROOT
ATOM      1  S   UNL     1      35.604 -20.934 -19.022  0.00  0.00    +0.063 S 
ATOM      2  O   UNL     1      36.580 -20.148 -18.291  0.00  0.00    -0.153 OA
ATOM      3  O   UNL     1      36.030 -21.972 -19.941  0.00  0.00    -0.153 OA
ENDROOT
BRANCH   1   7
ATOM      4  O   UNL     1      35.304 -22.953 -13.638  0.00  0.00    -0.282 OA
ATOM      5  O   UNL     1      32.804 -24.012 -12.746  0.00  0.00    -0.266 OA
ATOM      6  N   UNL     1      32.126 -23.420 -14.946  0.00  0.00    -0.251 N 
ATOM      7  C   UNL     1      34.523 -21.676 -17.838  0.00  0.00    +0.122 C 
ATOM      8  C   UNL     1      35.016 -21.983 -16.579  0.00  0.00    +0.024 C 
ATOM      9  C   UNL     1      33.197 -21.935 -18.204  0.00  0.00    +0.021 C 
ATOM     10  C   UNL     1      34.123 -22.561 -15.702  0.00  0.00    +0.059 C 
ATOM     11  C   UNL     1      32.797 -22.833 -16.034  0.00  0.00    +0.058 C 
ATOM     12  C   UNL     1      32.313 -22.523 -17.292  0.00  0.00    +0.016 C 
ATOM     13  C   UNL     1      34.310 -23.001 -14.322  0.00  0.00    +0.250 C 
ATOM     14  C   UNL     1      32.971 -23.563 -13.859  0.00  0.00    +0.292 C 
ATOM     15  C   UNL     1      30.738 -23.813 -14.987  0.00  0.00    +0.120 C 
ENDBRANCH   1   7
BRANCH   1  16
ATOM     16  N   UNL     1      34.520 -19.892 -19.815  0.00  0.00    -0.153 NA
ATOM     17  C   UNL     1      34.958 -19.268 -21.105  0.00  0.00    +0.123 C 
ATOM     18  C   UNL     1      33.759 -19.425 -22.044  0.00  0.00    +0.023 C 
ATOM     19  C   UNL     1      33.109 -20.344 -19.960  0.00  0.00    +0.096 C 
ATOM     20  C   UNL     1      32.569 -19.506 -21.106  0.00  0.00    +0.021 C 
BRANCH  17  21
ATOM     21  C   UNL     1      35.315 -17.810 -20.844  0.00  0.00    +0.223 C 
BRANCH  21  22
ATOM     22  O   UNL     1      35.132 -17.073 -22.041  0.00  0.00    -0.474 OA
BRANCH  22  23
ATOM     23  C   UNL     1      34.536 -15.842 -21.926  0.00  0.00    +0.139 C 
ATOM     24  C   UNL     1      34.385 -15.045 -23.053  0.00  0.00    +0.037 C 
ATOM     25  C   UNL     1      34.091 -15.408 -20.683  0.00  0.00    +0.037 C 
ATOM     26  C   UNL     1      33.779 -13.794 -22.936  0.00  0.00    +0.003 C 
ATOM     27  C   UNL     1      33.485 -14.158 -20.566  0.00  0.00    +0.003 C 
ATOM     28  C   UNL     1      33.328 -13.350 -21.694  0.00  0.00    +0.000 C 
ENDBRANCH  22  23
ENDBRANCH  21  22
ENDBRANCH  17  21
ENDBRANCH   1  16
TORSDOF 5
ENDMDL
MODEL 8
REMARK VINA RESULT:     -10.1      5.686     12.372
REMARK  Name = 5288850
REMARK  5 active torsions:
REMARK  status: ('A' for Active; 'I' for Inactive)
REMARK    1  A    between atoms: S_1  and  C_7
REMARK    2  A    between atoms: S_1  and  N_16
REMARK    3  A    between atoms: C_17  and  C_21
REMARK    4  A    between atoms: C_21  and  O_22
REMARK    5  A    between atoms: O_22  and  C_23
REMARK                            x       y       z     vdW  Elec       q    Type
REMARK                         _______ _______ _______ _____ _____    ______ ____
ROOT
ATOM      1  S   UNL     1      31.139 -10.270 -21.436  0.00  0.00    +0.063 S 
ATOM      2  O   UNL     1      29.726 -10.431 -21.725  0.00  0.00    -0.153 OA
ATOM      3  O   UNL     1      31.594 -10.055 -20.076  0.00  0.00    -0.153 OA
ENDROOT
BRANCH   1   7
ATOM      4  O   UNL     1      34.045 -14.996 -19.897  0.00  0.00    -0.282 OA
ATOM      5  O   UNL     1      35.009 -16.708 -21.973  0.00  0.00    -0.266 OA
ATOM      6  N   UNL     1      33.975 -15.080 -23.363  0.00  0.00    -0.251 N 
ATOM      7  C   UNL     1      31.976 -11.695 -22.063  0.00  0.00    +0.122 C 
ATOM      8  C   UNL     1      32.546 -12.586 -21.168  0.00  0.00    +0.024 C 
ATOM      9  C   UNL     1      32.041 -11.883 -23.448  0.00  0.00    +0.021 C 
ATOM     10  C   UNL     1      33.185 -13.676 -21.720  0.00  0.00    +0.059 C 
ATOM     11  C   UNL     1      33.269 -13.894 -23.094  0.00  0.00    +0.058 C 
ATOM     12  C   UNL     1      32.697 -13.000 -23.980  0.00  0.00    +0.016 C 
ATOM     13  C   UNL     1      33.879 -14.787 -21.073  0.00  0.00    +0.250 C 
ATOM     14  C   UNL     1      34.386 -15.691 -22.191  0.00  0.00    +0.292 C 
ATOM     15  C   UNL     1      34.224 -15.571 -24.697  0.00  0.00    +0.120 C 
ENDBRANCH   1   7
BRANCH   1  16
ATOM     16  N   UNL     1      31.788  -9.065 -22.444  0.00  0.00    -0.153 NA
ATOM     17  C   UNL     1      31.592  -7.634 -22.048  0.00  0.00    +0.123 C 
ATOM     18  C   UNL     1      32.961  -6.980 -22.249  0.00  0.00    +0.023 C 
ATOM     19  C   UNL     1      33.190  -9.241 -22.916  0.00  0.00    +0.096 C 
ATOM     20  C   UNL     1      33.624  -7.840 -23.309  0.00  0.00    +0.021 C 
BRANCH  17  21
ATOM     21  C   UNL     1      30.513  -7.026 -22.934  0.00  0.00    +0.223 C 
BRANCH  21  22
ATOM     22  O   UNL     1      30.097  -5.794 -22.370  0.00  0.00    -0.474 OA
BRANCH  22  23
ATOM     23  C   UNL     1      30.557  -4.649 -22.973  0.00  0.00    +0.139 C 
ATOM     24  C   UNL     1      30.683  -3.484 -22.228  0.00  0.00    +0.037 C 
ATOM     25  C   UNL     1      30.891  -4.671 -24.322  0.00  0.00    +0.037 C 
ATOM     26  C   UNL     1      31.150  -2.322 -22.840  0.00  0.00    +0.003 C 
ATOM     27  C   UNL     1      31.358  -3.509 -24.934  0.00  0.00    +0.003 C 
ATOM     28  C   UNL     1      31.489  -2.333 -24.193  0.00  0.00    +0.000 C 
ENDBRANCH  22  23
ENDBRANCH  21  22
ENDBRANCH  17  21
ENDBRANCH   1  16
TORSDOF 5
ENDMDL
MODEL 9
REMARK VINA RESULT:     -10.0      4.895      8.577
REMARK  Name = 5288850
REMARK  5 active torsions:
REMARK  status: ('A' for Active; 'I' for Inactive)
REMARK    1  A    between atoms: S_1  and  C_7
REMARK    2  A    between atoms: S_1  and  N_16
REMARK    3  A    between atoms: C_17  and  C_21
REMARK    4  A    between atoms: C_21  and  O_22
REMARK    5  A    between atoms: O_22  and  C_23
REMARK                            x       y       z     vdW  Elec       q    Type
REMARK                         _______ _______ _______ _____ _____    ______ ____
ROOT
ATOM      1  S   UNL     1      31.237 -10.889 -21.048  0.00  0.00    +0.063 S 
ATOM      2  O   UNL     1      31.660 -11.071 -19.672  0.00  0.00    -0.153 OA
ATOM      3  O   UNL     1      29.960 -11.404 -21.502  0.00  0.00    -0.153 OA
ENDROOT
BRANCH   1   7
ATOM      4  O   UNL     1      30.088  -6.928 -25.066  0.00  0.00    -0.282 OA
ATOM      5  O   UNL     1      30.586  -4.188 -24.422  0.00  0.00    -0.266 OA
ATOM      6  N   UNL     1      31.277  -5.127 -22.351  0.00  0.00    -0.251 N 
ATOM      7  C   UNL     1      31.268  -9.155 -21.389  0.00  0.00    +0.122 C 
ATOM      8  C   UNL     1      30.842  -8.707 -22.630  0.00  0.00    +0.024 C 
ATOM      9  C   UNL     1      31.722  -8.281 -20.394  0.00  0.00    +0.021 C 
ATOM     10  C   UNL     1      30.891  -7.345 -22.832  0.00  0.00    +0.059 C 
ATOM     11  C   UNL     1      31.339  -6.446 -21.865  0.00  0.00    +0.058 C 
ATOM     12  C   UNL     1      31.761  -6.901 -20.630  0.00  0.00    +0.016 C 
ATOM     13  C   UNL     1      30.523  -6.554 -24.004  0.00  0.00    +0.250 C 
ATOM     14  C   UNL     1      30.793  -5.097 -23.647  0.00  0.00    +0.292 C 
ATOM     15  C   UNL     1      31.674  -3.977 -21.576  0.00  0.00    +0.120 C 
ENDBRANCH   1   7
BRANCH   1  16
ATOM     16  N   UNL     1      32.464 -11.428 -22.092  0.00  0.00    -0.153 NA
ATOM     17  C   UNL     1      32.452 -12.867 -22.511  0.00  0.00    +0.123 C 
ATOM     18  C   UNL     1      32.713 -12.839 -24.019  0.00  0.00    +0.023 C 
ATOM     19  C   UNL     1      32.777 -10.589 -23.282  0.00  0.00    +0.096 C 
ATOM     20  C   UNL     1      33.475 -11.545 -24.233  0.00  0.00    +0.021 C 
BRANCH  17  21
ATOM     21  C   UNL     1      33.536 -13.607 -21.739  0.00  0.00    +0.223 C 
BRANCH  21  22
ATOM     22  O   UNL     1      34.359 -14.304 -22.661  0.00  0.00    -0.474 OA
BRANCH  22  23
ATOM     23  C   UNL     1      34.381 -15.672 -22.562  0.00  0.00    +0.139 C 
ATOM     24  C   UNL     1      34.133 -16.445 -23.689  0.00  0.00    +0.037 C 
ATOM     25  C   UNL     1      34.652 -16.268 -21.336  0.00  0.00    +0.037 C 
ATOM     26  C   UNL     1      34.155 -17.836 -23.588  0.00  0.00    +0.003 C 
ATOM     27  C   UNL     1      34.675 -17.658 -21.236  0.00  0.00    +0.003 C 
ATOM     28  C   UNL     1      34.427 -18.443 -22.363  0.00  0.00    +0.000 C 
ENDBRANCH  22  23
ENDBRANCH  21  22
ENDBRANCH  17  21
ENDBRANCH   1  16
TORSDOF 5
ENDMDL
