MODEL 1
REMARK VINA RESULT:     -13.6      0.000      0.000
REMARK  Name = 445480
REMARK  5 active torsions:
REMARK  status: ('A' for Active; 'I' for Inactive)
REMARK    1  A    between atoms: N_2  and  C_21
REMARK    2  A    between atoms: C_3  and  N_7
REMARK    3  A    between atoms: N_7  and  S_9
REMARK    4  A    between atoms: S_9  and  C_14
REMARK    5  A    between atoms: C_21  and  C_24
REMARK                            x       y       z     vdW  Elec       q    Type
REMARK                         _______ _______ _______ _____ _____    ______ ____
ROOT
ATOM      1  O   UNL     1      36.603 -18.271 -20.403  0.00  0.00    -0.273 OA
ATOM      2  N   UNL     1      34.890 -17.994 -21.990  0.00  0.00    -0.274 N 
ATOM      3  C   UNL     1      34.896 -19.966 -20.749  0.00  0.00    +0.153 C 
ATOM      4  C   UNL     1      33.515 -19.749 -21.355  0.00  0.00    +0.048 C 
ATOM      5  C   UNL     1      33.770 -18.763 -22.480  0.00  0.00    +0.096 C 
ATOM      6  C   UNL     1      35.595 -18.649 -20.981  0.00  0.00    +0.242 C 
ENDROOT
BRANCH   3   7
ATOM      7  N   UNL     1      34.805 -20.222 -19.307  0.00  0.00    -0.171 NA
ATOM      8  H   UNL     1      35.759 -20.274 -18.948  0.00  0.00    +0.149 HD
BRANCH   7   9
ATOM      9  S   UNL     1      33.988 -21.638 -18.789  0.00  0.00    +0.066 S 
ATOM     10  O   UNL     1      34.343 -22.741 -19.662  0.00  0.00    -0.152 OA
ATOM     11  O   UNL     1      32.603 -21.312 -18.512  0.00  0.00    -0.152 OA
BRANCH   9  14
ATOM     12  S   UNL     1      33.535 -22.848 -16.171  0.00  0.00    -0.066 S 
ATOM     13  N   UNL     1      37.006 -22.383 -14.478  0.00  0.00    -0.243 NA
ATOM     14  C   UNL     1      34.651 -22.070 -17.180  0.00  0.00    +0.153 C 
ATOM     15  C   UNL     1      35.871 -21.889 -16.626  0.00  0.00    +0.046 C 
ATOM     16  C   UNL     1      35.920 -22.411 -15.298  0.00  0.00    +0.089 C 
ATOM     17  C   UNL     1      34.701 -22.971 -14.914  0.00  0.00    +0.048 C 
ATOM     18  C   UNL     1      34.558 -23.535 -13.638  0.00  0.00    +0.010 C 
ATOM     19  C   UNL     1      35.663 -23.509 -12.797  0.00  0.00    +0.021 C 
ATOM     20  C   UNL     1      36.832 -22.934 -13.260  0.00  0.00    +0.099 C 
ENDBRANCH   9  14
ENDBRANCH   7   9
ENDBRANCH   3   7
BRANCH   2  21
ATOM     21  C   UNL     1      35.273 -16.740 -22.603  0.00  0.00    +0.120 C 
BRANCH  21  24
ATOM     22  N   UNL     1      31.876 -11.566 -22.857  0.00  0.00    -0.230 NA
ATOM     23  N   UNL     1      32.913 -12.638 -24.678  0.00  0.00    -0.343 N 
ATOM     24  C   UNL     1      34.428 -15.615 -22.074  0.00  0.00    -0.002 C 
ATOM     25  C   UNL     1      33.944 -14.652 -22.949  0.00  0.00    +0.000 C 
ATOM     26  C   UNL     1      34.145 -15.552 -20.718  0.00  0.00    -0.003 C 
ATOM     27  C   UNL     1      33.155 -13.596 -22.462  0.00  0.00    +0.031 C 
ATOM     28  C   UNL     1      32.860 -13.520 -21.084  0.00  0.00    +0.004 C 
ATOM     29  C   UNL     1      33.363 -14.508 -20.222  0.00  0.00    -0.000 C 
ATOM     30  C   UNL     1      32.638 -12.597 -23.287  0.00  0.00    +0.125 C 
ATOM     31  C   UNL     1      32.072 -12.461 -20.618  0.00  0.00    +0.021 C 
ATOM     32  C   UNL     1      31.613 -11.526 -21.533  0.00  0.00    +0.100 C 
ATOM     33  H   UNL     1      32.555 -11.940 -25.272  0.00  0.00    +0.144 HD
ATOM     34  H   UNL     1      33.463 -13.366 -25.049  0.00  0.00    +0.144 HD
ENDBRANCH  21  24
ENDBRANCH   2  21
TORSDOF 5
ENDMDL
MODEL 2
REMARK VINA RESULT:     -13.4      2.108      2.758
REMARK  Name = 445480
REMARK  5 active torsions:
REMARK  status: ('A' for Active; 'I' for Inactive)
REMARK    1  A    between atoms: N_2  and  C_21
REMARK    2  A    between atoms: C_3  and  N_7
REMARK    3  A    between atoms: N_7  and  S_9
REMARK    4  A    between atoms: S_9  and  C_14
REMARK    5  A    between atoms: C_21  and  C_24
REMARK                            x       y       z     vdW  Elec       q    Type
REMARK                         _______ _______ _______ _____ _____    ______ ____
ROOT
ATOM      1  O   UNL     1      36.506 -18.231 -20.319  0.00  0.00    -0.273 OA
ATOM      2  N   UNL     1      34.841 -17.978 -21.961  0.00  0.00    -0.274 N 
ATOM      3  C   UNL     1      34.808 -19.930 -20.688  0.00  0.00    +0.153 C 
ATOM      4  C   UNL     1      33.446 -19.723 -21.339  0.00  0.00    +0.048 C 
ATOM      5  C   UNL     1      33.735 -18.755 -22.471  0.00  0.00    +0.096 C 
ATOM      6  C   UNL     1      35.515 -18.617 -20.920  0.00  0.00    +0.242 C 
ENDROOT
BRANCH   3   7
ATOM      7  N   UNL     1      34.674 -20.163 -19.246  0.00  0.00    -0.171 NA
ATOM      8  H   UNL     1      35.414 -19.634 -18.783  0.00  0.00    +0.149 HD
BRANCH   7   9
ATOM      9  S   UNL     1      34.770 -21.777 -18.676  0.00  0.00    +0.066 S 
ATOM     10  O   UNL     1      35.879 -21.891 -17.747  0.00  0.00    -0.152 OA
ATOM     11  O   UNL     1      34.632 -22.685 -19.798  0.00  0.00    -0.152 OA
BRANCH   9  14
ATOM     12  S   UNL     1      33.606 -22.838 -16.218  0.00  0.00    -0.066 S 
ATOM     13  N   UNL     1      29.820 -22.134 -16.775  0.00  0.00    -0.243 NA
ATOM     14  C   UNL     1      33.296 -22.081 -17.702  0.00  0.00    +0.153 C 
ATOM     15  C   UNL     1      31.990 -21.820 -17.932  0.00  0.00    +0.046 C 
ATOM     16  C   UNL     1      31.175 -22.255 -16.845  0.00  0.00    +0.089 C 
ATOM     17  C   UNL     1      31.932 -22.836 -15.827  0.00  0.00    +0.048 C 
ATOM     18  C   UNL     1      31.301 -23.324 -14.673  0.00  0.00    +0.010 C 
ATOM     19  C   UNL     1      29.920 -23.203 -14.596  0.00  0.00    +0.021 C 
ATOM     20  C   UNL     1      29.248 -22.613 -15.652  0.00  0.00    +0.099 C 
ENDBRANCH   9  14
ENDBRANCH   7   9
ENDBRANCH   3   7
BRANCH   2  21
ATOM     21  C   UNL     1      35.243 -16.735 -22.582  0.00  0.00    +0.120 C 
BRANCH  21  24
ATOM     22  N   UNL     1      31.898 -11.531 -22.900  0.00  0.00    -0.230 NA
ATOM     23  N   UNL     1      32.922 -12.637 -24.709  0.00  0.00    -0.343 N 
ATOM     24  C   UNL     1      34.410 -15.595 -22.067  0.00  0.00    -0.002 C 
ATOM     25  C   UNL     1      33.935 -14.638 -22.954  0.00  0.00    +0.000 C 
ATOM     26  C   UNL     1      34.129 -15.511 -20.712  0.00  0.00    -0.003 C 
ATOM     27  C   UNL     1      33.157 -13.568 -22.480  0.00  0.00    +0.031 C 
ATOM     28  C   UNL     1      32.864 -13.471 -21.103  0.00  0.00    +0.004 C 
ATOM     29  C   UNL     1      33.358 -14.453 -20.228  0.00  0.00    -0.000 C 
ATOM     30  C   UNL     1      32.649 -12.575 -23.318  0.00  0.00    +0.125 C 
ATOM     31  C   UNL     1      32.088 -12.398 -20.650  0.00  0.00    +0.021 C 
ATOM     32  C   UNL     1      31.637 -11.471 -21.577  0.00  0.00    +0.100 C 
ATOM     33  H   UNL     1      32.571 -11.942 -25.311  0.00  0.00    +0.144 HD
ATOM     34  H   UNL     1      33.465 -13.375 -25.071  0.00  0.00    +0.144 HD
ENDBRANCH  21  24
ENDBRANCH   2  21
TORSDOF 5
ENDMDL
MODEL 3
REMARK VINA RESULT:     -13.3      3.213     10.152
REMARK  Name = 445480
REMARK  5 active torsions:
REMARK  status: ('A' for Active; 'I' for Inactive)
REMARK    1  A    between atoms: N_2  and  C_21
REMARK    2  A    between atoms: C_3  and  N_7
REMARK    3  A    between atoms: N_7  and  S_9
REMARK    4  A    between atoms: S_9  and  C_14
REMARK    5  A    between atoms: C_21  and  C_24
REMARK                            x       y       z     vdW  Elec       q    Type
REMARK                         _______ _______ _______ _____ _____    ______ ____
ROOT
ATOM      1  O   UNL     1      35.619 -20.818 -19.960  0.00  0.00    -0.273 OA
ATOM      2  N   UNL     1      33.484 -21.544 -19.292  0.00  0.00    -0.274 N 
ATOM      3  C   UNL     1      33.634 -19.467 -20.338  0.00  0.00    +0.153 C 
ATOM      4  C   UNL     1      32.197 -19.968 -20.404  0.00  0.00    +0.048 C 
ATOM      5  C   UNL     1      32.137 -21.023 -19.316  0.00  0.00    +0.096 C 
ATOM      6  C   UNL     1      34.409 -20.674 -19.869  0.00  0.00    +0.242 C 
ENDROOT
BRANCH   3   7
ATOM      7  N   UNL     1      34.115 -19.065 -21.665  0.00  0.00    -0.171 NA
ATOM      8  H   UNL     1      34.538 -19.887 -22.097  0.00  0.00    +0.149 HD
BRANCH   7   9
ATOM      9  S   UNL     1      35.264 -17.795 -21.756  0.00  0.00    +0.066 S 
ATOM     10  O   UNL     1      36.423 -18.251 -22.501  0.00  0.00    -0.152 OA
ATOM     11  O   UNL     1      35.401 -17.184 -20.449  0.00  0.00    -0.152 OA
BRANCH   9  14
ATOM     12  S   UNL     1      34.195 -15.082 -21.889  0.00  0.00    -0.066 S 
ATOM     13  N   UNL     1      33.219 -14.804 -25.645  0.00  0.00    -0.243 NA
ATOM     14  C   UNL     1      34.536 -16.496 -22.755  0.00  0.00    +0.153 C 
ATOM     15  C   UNL     1      34.210 -16.439 -24.066  0.00  0.00    +0.046 C 
ATOM     16  C   UNL     1      33.647 -15.172 -24.405  0.00  0.00    +0.089 C 
ATOM     17  C   UNL     1      33.576 -14.321 -23.301  0.00  0.00    +0.048 C 
ATOM     18  C   UNL     1      33.050 -13.029 -23.443  0.00  0.00    +0.010 C 
ATOM     19  C   UNL     1      32.612 -12.648 -24.704  0.00  0.00    +0.021 C 
ATOM     20  C   UNL     1      32.719 -13.556 -25.743  0.00  0.00    +0.099 C 
ENDBRANCH   9  14
ENDBRANCH   7   9
ENDBRANCH   3   7
BRANCH   2  21
ATOM     21  C   UNL     1      33.805 -22.782 -18.617  0.00  0.00    +0.120 C 
BRANCH  21  24
ATOM     22  N   UNL     1      29.438 -22.663 -14.224  0.00  0.00    -0.230 NA
ATOM     23  N   UNL     1      29.072 -22.619 -16.550  0.00  0.00    -0.343 N 
ATOM     24  C   UNL     1      33.251 -22.780 -17.219  0.00  0.00    -0.002 C 
ATOM     25  C   UNL     1      31.877 -22.727 -17.027  0.00  0.00    +0.000 C 
ATOM     26  C   UNL     1      34.120 -22.828 -16.139  0.00  0.00    -0.003 C 
ATOM     27  C   UNL     1      31.352 -22.722 -15.724  0.00  0.00    +0.031 C 
ATOM     28  C   UNL     1      32.224 -22.771 -14.616  0.00  0.00    +0.004 C 
ATOM     29  C   UNL     1      33.610 -22.824 -14.840  0.00  0.00    -0.000 C 
ATOM     30  C   UNL     1      29.982 -22.670 -15.462  0.00  0.00    +0.125 C 
ATOM     31  C   UNL     1      31.682 -22.765 -13.326  0.00  0.00    +0.021 C 
ATOM     32  C   UNL     1      30.304 -22.712 -13.189  0.00  0.00    +0.100 C 
ATOM     33  H   UNL     1      28.103 -22.582 -16.380  0.00  0.00    +0.144 HD
ATOM     34  H   UNL     1      29.410 -22.621 -17.475  0.00  0.00    +0.144 HD
ENDBRANCH  21  24
ENDBRANCH   2  21
TORSDOF 5
ENDMDL
MODEL 4
REMARK VINA RESULT:     -13.3      2.241     10.265
REMARK  Name = 445480
REMARK  5 active torsions:
REMARK  status: ('A' for Active; 'I' for Inactive)
REMARK    1  A    between atoms: N_2  and  C_21
REMARK    2  A    between atoms: C_3  and  N_7
REMARK    3  A    between atoms: N_7  and  S_9
REMARK    4  A    between atoms: S_9  and  C_14
REMARK    5  A    between atoms: C_21  and  C_24
REMARK                            x       y       z     vdW  Elec       q    Type
REMARK                         _______ _______ _______ _____ _____    ______ ____
ROOT
ATOM      1  O   UNL     1      31.848 -20.140 -19.643  0.00  0.00    -0.273 OA
ATOM      2  N   UNL     1      33.363 -21.638 -18.648  0.00  0.00    -0.274 N 
ATOM      3  C   UNL     1      34.163 -20.286 -20.369  0.00  0.00    +0.153 C 
ATOM      4  C   UNL     1      35.335 -20.822 -19.555  0.00  0.00    +0.048 C 
ATOM      5  C   UNL     1      34.745 -22.015 -18.827  0.00  0.00    +0.096 C 
ATOM      6  C   UNL     1      32.959 -20.634 -19.528  0.00  0.00    +0.242 C 
ENDROOT
BRANCH   3   7
ATOM      7  N   UNL     1      34.247 -18.828 -20.518  0.00  0.00    -0.171 NA
ATOM      8  H   UNL     1      33.297 -18.483 -20.661  0.00  0.00    +0.149 HD
BRANCH   7   9
ATOM      9  S   UNL     1      35.213 -18.202 -21.788  0.00  0.00    +0.066 S 
ATOM     10  O   UNL     1      35.008 -18.999 -22.983  0.00  0.00    -0.152 OA
ATOM     11  O   UNL     1      36.544 -17.931 -21.283  0.00  0.00    -0.152 OA
BRANCH   9  14
ATOM     12  S   UNL     1      34.149 -16.389 -23.814  0.00  0.00    -0.066 S 
ATOM     13  N   UNL     1      33.515 -13.166 -21.729  0.00  0.00    -0.243 NA
ATOM     14  C   UNL     1      34.572 -16.575 -22.185  0.00  0.00    +0.153 C 
ATOM     15  C   UNL     1      34.366 -15.474 -21.427  0.00  0.00    +0.046 C 
ATOM     16  C   UNL     1      33.831 -14.403 -22.203  0.00  0.00    +0.089 C 
ATOM     17  C   UNL     1      33.658 -14.764 -23.540  0.00  0.00    +0.048 C 
ATOM     18  C   UNL     1      33.140 -13.838 -24.456  0.00  0.00    +0.010 C 
ATOM     19  C   UNL     1      32.817 -12.574 -23.979  0.00  0.00    +0.021 C 
ATOM     20  C   UNL     1      33.021 -12.302 -22.639  0.00  0.00    +0.099 C 
ENDBRANCH   9  14
ENDBRANCH   7   9
ENDBRANCH   3   7
BRANCH   2  21
ATOM     21  C   UNL     1      32.498 -22.344 -17.727  0.00  0.00    +0.120 C 
BRANCH  21  24
ATOM     22  N   UNL     1      37.333 -22.827 -13.884  0.00  0.00    -0.230 NA
ATOM     23  N   UNL     1      37.420 -22.219 -16.157  0.00  0.00    -0.343 N 
ATOM     24  C   UNL     1      33.211 -22.606 -16.430  0.00  0.00    -0.002 C 
ATOM     25  C   UNL     1      34.591 -22.472 -16.367  0.00  0.00    +0.000 C 
ATOM     26  C   UNL     1      32.480 -22.981 -15.312  0.00  0.00    -0.003 C 
ATOM     27  C   UNL     1      35.264 -22.717 -15.158  0.00  0.00    +0.031 C 
ATOM     28  C   UNL     1      34.533 -23.099 -14.014  0.00  0.00    +0.004 C 
ATOM     29  C   UNL     1      33.137 -23.228 -14.106  0.00  0.00    -0.000 C 
ATOM     30  C   UNL     1      36.649 -22.600 -15.028  0.00  0.00    +0.125 C 
ATOM     31  C   UNL     1      35.222 -23.339 -12.819  0.00  0.00    +0.021 C 
ATOM     32  C   UNL     1      36.600 -23.190 -12.810  0.00  0.00    +0.100 C 
ATOM     33  H   UNL     1      38.397 -22.133 -16.080  0.00  0.00    +0.144 HD
ATOM     34  H   UNL     1      36.976 -22.040 -17.018  0.00  0.00    +0.144 HD
ENDBRANCH  21  24
ENDBRANCH   2  21
TORSDOF 5
ENDMDL
MODEL 5
REMARK VINA RESULT:     -12.9      1.806      2.689
REMARK  Name = 445480
REMARK  5 active torsions:
REMARK  status: ('A' for Active; 'I' for Inactive)
REMARK    1  A    between atoms: N_2  and  C_21
REMARK    2  A    between atoms: C_3  and  N_7
REMARK    3  A    between atoms: N_7  and  S_9
REMARK    4  A    between atoms: S_9  and  C_14
REMARK    5  A    between atoms: C_21  and  C_24
REMARK                            x       y       z     vdW  Elec       q    Type
REMARK                         _______ _______ _______ _____ _____    ______ ____
ROOT
ATOM      1  O   UNL     1      35.866 -20.506 -19.146  0.00  0.00    -0.273 OA
ATOM      2  N   UNL     1      34.592 -19.420 -20.798  0.00  0.00    -0.274 N 
ATOM      3  C   UNL     1      33.532 -21.065 -19.532  0.00  0.00    +0.153 C 
ATOM      4  C   UNL     1      32.485 -20.175 -20.192  0.00  0.00    +0.048 C 
ATOM      5  C   UNL     1      33.247 -19.503 -21.318  0.00  0.00    +0.096 C 
ATOM      6  C   UNL     1      34.823 -20.317 -19.755  0.00  0.00    +0.242 C 
ENDROOT
BRANCH   3   7
ATOM      7  N   UNL     1      33.285 -21.192 -18.092  0.00  0.00    -0.171 NA
ATOM      8  H   UNL     1      34.165 -20.995 -17.614  0.00  0.00    +0.149 HD
BRANCH   7   9
ATOM      9  S   UNL     1      32.712 -22.697 -17.501  0.00  0.00    +0.066 S 
ATOM     10  O   UNL     1      33.221 -23.765 -18.341  0.00  0.00    -0.152 OA
ATOM     11  O   UNL     1      31.298 -22.582 -17.203  0.00  0.00    -0.152 OA
BRANCH   9  14
ATOM     12  S   UNL     1      35.069 -22.418 -15.801  0.00  0.00    -0.066 S 
ATOM     13  N   UNL     1      33.808 -23.952 -12.455  0.00  0.00    -0.243 NA
ATOM     14  C   UNL     1      33.465 -22.954 -15.894  0.00  0.00    +0.153 C 
ATOM     15  C   UNL     1      32.990 -23.494 -14.749  0.00  0.00    +0.046 C 
ATOM     16  C   UNL     1      33.979 -23.480 -13.720  0.00  0.00    +0.089 C 
ATOM     17  C   UNL     1      35.177 -22.914 -14.158  0.00  0.00    +0.048 C 
ATOM     18  C   UNL     1      36.267 -22.814 -13.282  0.00  0.00    +0.010 C 
ATOM     19  C   UNL     1      36.100 -23.294 -11.990  0.00  0.00    +0.021 C 
ATOM     20  C   UNL     1      34.877 -23.839 -11.641  0.00  0.00    +0.099 C 
ENDBRANCH   9  14
ENDBRANCH   7   9
ENDBRANCH   3   7
BRANCH   2  21
ATOM     21  C   UNL     1      35.591 -18.572 -21.412  0.00  0.00    +0.120 C 
BRANCH  21  24
ATOM     22  N   UNL     1      33.149 -13.007 -22.617  0.00  0.00    -0.230 NA
ATOM     23  N   UNL     1      34.055 -13.711 -20.561  0.00  0.00    -0.343 N 
ATOM     24  C   UNL     1      34.936 -17.500 -22.238  0.00  0.00    -0.002 C 
ATOM     25  C   UNL     1      34.658 -16.266 -21.664  0.00  0.00    +0.000 C 
ATOM     26  C   UNL     1      34.616 -17.757 -23.563  0.00  0.00    -0.003 C 
ATOM     27  C   UNL     1      34.044 -15.260 -22.429  0.00  0.00    +0.031 C 
ATOM     28  C   UNL     1      33.713 -15.509 -23.778  0.00  0.00    +0.004 C 
ATOM     29  C   UNL     1      34.006 -16.766 -24.333  0.00  0.00    -0.000 C 
ATOM     30  C   UNL     1      33.738 -14.000 -21.914  0.00  0.00    +0.125 C 
ATOM     31  C   UNL     1      33.102 -14.494 -24.524  0.00  0.00    +0.021 C 
ATOM     32  C   UNL     1      32.847 -13.281 -23.904  0.00  0.00    +0.100 C 
ATOM     33  H   UNL     1      33.844 -12.827 -20.184  0.00  0.00    +0.144 HD
ATOM     34  H   UNL     1      34.485 -14.397 -20.000  0.00  0.00    +0.144 HD
ENDBRANCH  21  24
ENDBRANCH   2  21
TORSDOF 5
ENDMDL
MODEL 6
REMARK VINA RESULT:     -12.4      4.826     11.270
REMARK  Name = 445480
REMARK  5 active torsions:
REMARK  status: ('A' for Active; 'I' for Inactive)
REMARK    1  A    between atoms: N_2  and  C_21
REMARK    2  A    between atoms: C_3  and  N_7
REMARK    3  A    between atoms: N_7  and  S_9
REMARK    4  A    between atoms: S_9  and  C_14
REMARK    5  A    between atoms: C_21  and  C_24
REMARK                            x       y       z     vdW  Elec       q    Type
REMARK                         _______ _______ _______ _____ _____    ______ ____
ROOT
ATOM      1  O   UNL     1      33.148 -14.460 -24.785  0.00  0.00    -0.273 OA
ATOM      2  N   UNL     1      33.964 -15.590 -22.892  0.00  0.00    -0.274 N 
ATOM      3  C   UNL     1      33.361 -13.355 -22.631  0.00  0.00    +0.153 C 
ATOM      4  C   UNL     1      33.410 -14.032 -21.267  0.00  0.00    +0.048 C 
ATOM      5  C   UNL     1      34.252 -15.269 -21.513  0.00  0.00    +0.096 C 
ATOM      6  C   UNL     1      33.448 -14.507 -23.601  0.00  0.00    +0.242 C 
ENDROOT
BRANCH   3   7
ATOM      7  N   UNL     1      32.090 -12.648 -22.826  0.00  0.00    -0.171 NA
ATOM      8  H   UNL     1      32.170 -12.111 -23.689  0.00  0.00    +0.149 HD
BRANCH   7   9
ATOM      9  S   UNL     1      31.572 -11.567 -21.600  0.00  0.00    +0.066 S 
ATOM     10  O   UNL     1      32.292 -11.854 -20.374  0.00  0.00    -0.152 OA
ATOM     11  O   UNL     1      30.124 -11.485 -21.621  0.00  0.00    -0.152 OA
BRANCH   9  14
ATOM     12  S   UNL     1      31.394  -8.685 -21.172  0.00  0.00    -0.066 S 
ATOM     13  N   UNL     1      33.813  -7.335 -23.904  0.00  0.00    -0.243 NA
ATOM     14  C   UNL     1      32.096  -9.924 -22.089  0.00  0.00    +0.153 C 
ATOM     15  C   UNL     1      32.944  -9.494 -23.050  0.00  0.00    +0.046 C 
ATOM     16  C   UNL     1      33.042  -8.070 -23.056  0.00  0.00    +0.089 C 
ATOM     17  C   UNL     1      32.240  -7.489 -22.073  0.00  0.00    +0.048 C 
ATOM     18  C   UNL     1      32.207  -6.095 -21.927  0.00  0.00    +0.010 C 
ATOM     19  C   UNL     1      32.991  -5.340 -22.789  0.00  0.00    +0.021 C 
ATOM     20  C   UNL     1      33.756  -5.998 -23.735  0.00  0.00    +0.099 C 
ENDBRANCH   9  14
ENDBRANCH   7   9
ENDBRANCH   3   7
BRANCH   2  21
ATOM     21  C   UNL     1      34.311 -16.876 -23.458  0.00  0.00    +0.120 C 
BRANCH  21  24
ATOM     22  N   UNL     1      33.637 -21.236 -19.110  0.00  0.00    -0.230 NA
ATOM     23  N   UNL     1      31.923 -20.326 -20.442  0.00  0.00    -0.343 N 
ATOM     24  C   UNL     1      34.743 -17.828 -22.378  0.00  0.00    -0.002 C 
ATOM     25  C   UNL     1      33.799 -18.636 -21.759  0.00  0.00    +0.000 C 
ATOM     26  C   UNL     1      36.080 -17.886 -22.012  0.00  0.00    -0.003 C 
ATOM     27  C   UNL     1      34.194 -19.528 -20.748  0.00  0.00    +0.031 C 
ATOM     28  C   UNL     1      35.551 -19.597 -20.366  0.00  0.00    +0.004 C 
ATOM     29  C   UNL     1      36.485 -18.767 -21.009  0.00  0.00    -0.000 C 
ATOM     30  C   UNL     1      33.296 -20.366 -20.087  0.00  0.00    +0.125 C 
ATOM     31  C   UNL     1      35.925 -20.491 -19.356  0.00  0.00    +0.021 C 
ATOM     32  C   UNL     1      34.943 -21.275 -18.771  0.00  0.00    +0.100 C 
ATOM     33  H   UNL     1      31.278 -20.912 -19.984  0.00  0.00    +0.144 HD
ATOM     34  H   UNL     1      31.615 -19.712 -21.148  0.00  0.00    +0.144 HD
ENDBRANCH  21  24
ENDBRANCH   2  21
TORSDOF 5
ENDMDL
MODEL 7
REMARK VINA RESULT:     -12.3      2.655     10.432
REMARK  Name = 445480
REMARK  5 active torsions:
REMARK  status: ('A' for Active; 'I' for Inactive)
REMARK    1  A    between atoms: N_2  and  C_21
REMARK    2  A    between atoms: C_3  and  N_7
REMARK    3  A    between atoms: N_7  and  S_9
REMARK    4  A    between atoms: S_9  and  C_14
REMARK    5  A    between atoms: C_21  and  C_24
REMARK                            x       y       z     vdW  Elec       q    Type
REMARK                         _______ _______ _______ _____ _____    ______ ____
ROOT
ATOM      1  O   UNL     1      35.518 -21.002 -20.038  0.00  0.00    -0.273 OA
ATOM      2  N   UNL     1      33.336 -21.552 -19.356  0.00  0.00    -0.274 N 
ATOM      3  C   UNL     1      33.658 -19.469 -20.348  0.00  0.00    +0.153 C 
ATOM      4  C   UNL     1      32.180 -19.837 -20.405  0.00  0.00    +0.048 C 
ATOM      5  C   UNL     1      32.041 -20.913 -19.344  0.00  0.00    +0.096 C 
ATOM      6  C   UNL     1      34.327 -20.753 -19.924  0.00  0.00    +0.242 C 
ENDROOT
BRANCH   3   7
ATOM      7  N   UNL     1      34.155 -19.074 -21.671  0.00  0.00    -0.171 NA
ATOM      8  H   UNL     1      34.592 -19.896 -22.089  0.00  0.00    +0.149 HD
BRANCH   7   9
ATOM      9  S   UNL     1      35.293 -17.794 -21.757  0.00  0.00    +0.066 S 
ATOM     10  O   UNL     1      36.452 -18.235 -22.510  0.00  0.00    -0.152 OA
ATOM     11  O   UNL     1      35.432 -17.194 -20.444  0.00  0.00    -0.152 OA
BRANCH   9  14
ATOM     12  S   UNL     1      34.218 -15.082 -21.864  0.00  0.00    -0.066 S 
ATOM     13  N   UNL     1      33.194 -14.790 -25.606  0.00  0.00    -0.243 NA
ATOM     14  C   UNL     1      34.550 -16.493 -22.741  0.00  0.00    +0.153 C 
ATOM     15  C   UNL     1      34.208 -16.430 -24.047  0.00  0.00    +0.046 C 
ATOM     16  C   UNL     1      33.638 -15.163 -24.374  0.00  0.00    +0.089 C 
ATOM     17  C   UNL     1      33.580 -14.317 -23.265  0.00  0.00    +0.048 C 
ATOM     18  C   UNL     1      33.050 -13.025 -23.394  0.00  0.00    +0.010 C 
ATOM     19  C   UNL     1      32.595 -12.640 -24.648  0.00  0.00    +0.021 C 
ATOM     20  C   UNL     1      32.690 -13.543 -25.692  0.00  0.00    +0.099 C 
ENDBRANCH   9  14
ENDBRANCH   7   9
ENDBRANCH   3   7
BRANCH   2  21
ATOM     21  C   UNL     1      33.553 -22.833 -18.719  0.00  0.00    +0.120 C 
BRANCH  21  24
ATOM     22  N   UNL     1      33.704 -23.403 -12.552  0.00  0.00    -0.230 NA
ATOM     23  N   UNL     1      35.519 -23.708 -14.021  0.00  0.00    -0.343 N 
ATOM     24  C   UNL     1      33.011 -22.824 -17.317  0.00  0.00    -0.002 C 
ATOM     25  C   UNL     1      33.854 -23.117 -16.254  0.00  0.00    +0.000 C 
ATOM     26  C   UNL     1      31.673 -22.524 -17.103  0.00  0.00    -0.003 C 
ATOM     27  C   UNL     1      33.354 -23.112 -14.941  0.00  0.00    +0.031 C 
ATOM     28  C   UNL     1      31.996 -22.809 -14.709  0.00  0.00    +0.004 C 
ATOM     29  C   UNL     1      31.165 -22.516 -15.804  0.00  0.00    -0.000 C 
ATOM     30  C   UNL     1      34.148 -23.398 -13.829  0.00  0.00    +0.125 C 
ATOM     31  C   UNL     1      31.516 -22.809 -13.394  0.00  0.00    +0.021 C 
ATOM     32  C   UNL     1      32.400 -23.108 -12.369  0.00  0.00    +0.100 C 
ATOM     33  H   UNL     1      36.091 -23.912 -13.246  0.00  0.00    +0.144 HD
ATOM     34  H   UNL     1      35.899 -23.719 -14.929  0.00  0.00    +0.144 HD
ENDBRANCH  21  24
ENDBRANCH   2  21
TORSDOF 5
ENDMDL
MODEL 8
REMARK VINA RESULT:     -11.9      3.414     10.144
REMARK  Name = 445480
REMARK  5 active torsions:
REMARK  status: ('A' for Active; 'I' for Inactive)
REMARK    1  A    between atoms: N_2  and  C_21
REMARK    2  A    between atoms: C_3  and  N_7
REMARK    3  A    between atoms: N_7  and  S_9
REMARK    4  A    between atoms: S_9  and  C_14
REMARK    5  A    between atoms: C_21  and  C_24
REMARK                            x       y       z     vdW  Elec       q    Type
REMARK                         _______ _______ _______ _____ _____    ______ ____
ROOT
ATOM      1  O   UNL     1      35.286 -16.958 -20.398  0.00  0.00    -0.273 OA
ATOM      2  N   UNL     1      35.241 -19.023 -21.523  0.00  0.00    -0.274 N 
ATOM      3  C   UNL     1      34.190 -17.215 -22.552  0.00  0.00    +0.153 C 
ATOM      4  C   UNL     1      34.469 -18.298 -23.586  0.00  0.00    +0.048 C 
ATOM      5  C   UNL     1      34.681 -19.545 -22.748  0.00  0.00    +0.096 C 
ATOM      6  C   UNL     1      34.979 -17.664 -21.347  0.00  0.00    +0.242 C 
ENDROOT
BRANCH   3   7
ATOM      7  N   UNL     1      34.691 -15.912 -23.004  0.00  0.00    -0.171 NA
ATOM      8  H   UNL     1      34.713 -15.296 -22.190  0.00  0.00    +0.149 HD
BRANCH   7   9
ATOM      9  S   UNL     1      33.822 -15.096 -24.236  0.00  0.00    +0.066 S 
ATOM     10  O   UNL     1      32.674 -15.896 -24.621  0.00  0.00    -0.152 OA
ATOM     11  O   UNL     1      34.757 -14.596 -25.225  0.00  0.00    -0.152 OA
BRANCH   9  14
ATOM     12  S   UNL     1      32.694 -13.788 -21.882  0.00  0.00    -0.066 S 
ATOM     13  N   UNL     1      32.022 -10.199 -23.223  0.00  0.00    -0.243 NA
ATOM     14  C   UNL     1      33.143 -13.606 -23.505  0.00  0.00    +0.153 C 
ATOM     15  C   UNL     1      32.924 -12.370 -24.008  0.00  0.00    +0.046 C 
ATOM     16  C   UNL     1      32.357 -11.504 -23.027  0.00  0.00    +0.089 C 
ATOM     17  C   UNL     1      32.173 -12.152 -21.804  0.00  0.00    +0.048 C 
ATOM     18  C   UNL     1      31.625 -11.457 -20.716  0.00  0.00    +0.010 C 
ATOM     19  C   UNL     1      31.282 -10.126 -20.912  0.00  0.00    +0.021 C 
ATOM     20  C   UNL     1      31.497  -9.563 -22.156  0.00  0.00    +0.099 C 
ENDBRANCH   9  14
ENDBRANCH   7   9
ENDBRANCH   3   7
BRANCH   2  21
ATOM     21  C   UNL     1      35.883 -19.886 -20.556  0.00  0.00    +0.120 C 
BRANCH  21  24
ATOM     22  N   UNL     1      33.762 -23.073 -15.685  0.00  0.00    -0.230 NA
ATOM     23  N   UNL     1      36.007 -22.490 -16.095  0.00  0.00    -0.343 N 
ATOM     24  C   UNL     1      34.859 -20.554 -19.682  0.00  0.00    -0.002 C 
ATOM     25  C   UNL     1      35.261 -21.182 -18.511  0.00  0.00    +0.000 C 
ATOM     26  C   UNL     1      33.524 -20.536 -20.058  0.00  0.00    -0.003 C 
ATOM     27  C   UNL     1      34.309 -21.810 -17.690  0.00  0.00    +0.031 C 
ATOM     28  C   UNL     1      32.948 -21.799 -18.061  0.00  0.00    +0.004 C 
ATOM     29  C   UNL     1      32.569 -21.157 -19.251  0.00  0.00    -0.000 C 
ATOM     30  C   UNL     1      34.648 -22.458 -16.501  0.00  0.00    +0.125 C 
ATOM     31  C   UNL     1      32.015 -22.430 -17.230  0.00  0.00    +0.021 C 
ATOM     32  C   UNL     1      32.469 -23.042 -16.072  0.00  0.00    +0.100 C 
ATOM     33  H   UNL     1      36.260 -22.944 -15.259  0.00  0.00    +0.144 HD
ATOM     34  H   UNL     1      36.697 -22.059 -16.649  0.00  0.00    +0.144 HD
ENDBRANCH  21  24
ENDBRANCH   2  21
TORSDOF 5
ENDMDL
MODEL 9
REMARK VINA RESULT:     -11.7      4.629     10.774
REMARK  Name = 445480
REMARK  5 active torsions:
REMARK  status: ('A' for Active; 'I' for Inactive)
REMARK    1  A    between atoms: N_2  and  C_21
REMARK    2  A    between atoms: C_3  and  N_7
REMARK    3  A    between atoms: N_7  and  S_9
REMARK    4  A    between atoms: S_9  and  C_14
REMARK    5  A    between atoms: C_21  and  C_24
REMARK                            x       y       z     vdW  Elec       q    Type
REMARK                         _______ _______ _______ _____ _____    ______ ____
ROOT
ATOM      1  O   UNL     1      33.408 -15.446 -24.762  0.00  0.00    -0.273 OA
ATOM      2  N   UNL     1      34.219 -16.389 -22.766  0.00  0.00    -0.274 N 
ATOM      3  C   UNL     1      33.816 -14.094 -22.784  0.00  0.00    +0.153 C 
ATOM      4  C   UNL     1      33.874 -14.590 -21.344  0.00  0.00    +0.048 C 
ATOM      5  C   UNL     1      34.598 -15.919 -21.454  0.00  0.00    +0.096 C 
ATOM      6  C   UNL     1      33.760 -15.365 -23.594  0.00  0.00    +0.242 C 
ENDROOT
BRANCH   3   7
ATOM      7  N   UNL     1      32.599 -13.310 -23.024  0.00  0.00    -0.171 NA
ATOM      8  H   UNL     1      31.936 -13.917 -23.506  0.00  0.00    +0.149 HD
BRANCH   7   9
ATOM      9  S   UNL     1      32.735 -11.871 -23.946  0.00  0.00    +0.066 S 
ATOM     10  O   UNL     1      31.712 -11.864 -24.975  0.00  0.00    -0.152 OA
ATOM     11  O   UNL     1      34.130 -11.645 -24.271  0.00  0.00    -0.152 OA
BRANCH   9  14
ATOM     12  S   UNL     1      31.662 -10.991 -21.378  0.00  0.00    -0.066 S 
ATOM     13  N   UNL     1      31.976  -7.125 -21.679  0.00  0.00    -0.243 NA
ATOM     14  C   UNL     1      32.328 -10.506 -22.858  0.00  0.00    +0.153 C 
ATOM     15  C   UNL     1      32.453  -9.167 -23.001  0.00  0.00    +0.046 C 
ATOM     16  C   UNL     1      31.984  -8.476 -21.843  0.00  0.00    +0.089 C 
ATOM     17  C   UNL     1      31.517  -9.356 -20.866  0.00  0.00    +0.048 C 
ATOM     18  C   UNL     1      31.016  -8.858 -19.654  0.00  0.00    +0.010 C 
ATOM     19  C   UNL     1      31.006  -7.480 -19.481  0.00  0.00    +0.021 C 
ATOM     20  C   UNL     1      31.487  -6.682 -20.503  0.00  0.00    +0.099 C 
ENDBRANCH   9  14
ENDBRANCH   7   9
ENDBRANCH   3   7
BRANCH   2  21
ATOM     21  C   UNL     1      34.431 -17.763 -23.168  0.00  0.00    +0.120 C 
BRANCH  21  24
ATOM     22  N   UNL     1      33.608 -21.731 -18.483  0.00  0.00    -0.230 NA
ATOM     23  N   UNL     1      31.951 -20.985 -19.979  0.00  0.00    -0.343 N 
ATOM     24  C   UNL     1      34.823 -18.604 -21.986  0.00  0.00    -0.002 C 
ATOM     25  C   UNL     1      33.862 -19.376 -21.346  0.00  0.00    +0.000 C 
ATOM     26  C   UNL     1      36.138 -18.597 -21.547  0.00  0.00    -0.003 C 
ATOM     27  C   UNL     1      34.220 -20.163 -20.238  0.00  0.00    +0.031 C 
ATOM     28  C   UNL     1      35.555 -20.165 -19.782  0.00  0.00    +0.004 C 
ATOM     29  C   UNL     1      36.506 -19.375 -20.448  0.00  0.00    -0.000 C 
ATOM     30  C   UNL     1      33.303 -20.960 -19.551  0.00  0.00    +0.125 C 
ATOM     31  C   UNL     1      35.891 -20.956 -18.677  0.00  0.00    +0.021 C 
ATOM     32  C   UNL     1      34.895 -21.708 -18.075  0.00  0.00    +0.100 C 
ATOM     33  H   UNL     1      31.293 -21.542 -19.504  0.00  0.00    +0.144 HD
ATOM     34  H   UNL     1      31.670 -20.443 -20.753  0.00  0.00    +0.144 HD
ENDBRANCH  21  24
ENDBRANCH   2  21
TORSDOF 5
ENDMDL
