MODEL 1
REMARK VINA RESULT:     -13.3      0.000      0.000
REMARK  Name = 11610526
REMARK  3 active torsions:
REMARK  status: ('A' for Active; 'I' for Inactive)
REMARK    1  A    between atoms: C_2  and  C_21
REMARK    2  A    between atoms: C_9  and  C_14
REMARK    3  A    between atoms: C_21  and  C_23
REMARK                            x       y       z     vdW  Elec       q    Type
REMARK                         _______ _______ _______ _____ _____    ______ ____
ROOT
ATOM      1  N   UNL     1      33.399 -20.134 -19.748  0.00  0.00    -0.388 NA
ATOM      2  C   UNL     1      33.764 -21.171 -18.989  0.00  0.00    +0.167 C 
ATOM      3  C   UNL     1      35.027 -21.672 -18.840  0.00  0.00    +0.031 C 
ATOM      4  C   UNL     1      34.406 -19.542 -20.427  0.00  0.00    +0.167 C 
ATOM      5  C   UNL     1      36.037 -21.037 -19.554  0.00  0.00    -0.015 C 
ATOM      6  C   UNL     1      35.729 -19.950 -20.365  0.00  0.00    +0.101 C 
ATOM      7  O   UNL     1      36.197 -17.858 -22.143  0.00  0.00    -0.270 OA
ATOM      8  N   UNL     1      34.106 -18.447 -21.246  0.00  0.00    -0.259 N 
ATOM      9  C   UNL     1      34.986 -17.695 -22.029  0.00  0.00    +0.255 C 
ATOM     10  H   UNL     1      33.161 -18.175 -21.275  0.00  0.00    +0.157 HD
ENDROOT
BRANCH   9  14
ATOM     11  F   UNL     1      34.600 -15.173 -20.864  0.00  0.00    -0.204 F 
ATOM     12  F   UNL     1      34.129 -17.951 -24.688  0.00  0.00    -0.204 F 
ATOM     13  F   UNL     1      32.659 -13.457 -24.822  0.00  0.00    -0.204 F 
ATOM     14  C   UNL     1      34.367 -16.567 -22.773  0.00  0.00    +0.109 C 
ATOM     15  C   UNL     1      34.209 -15.355 -22.133  0.00  0.00    +0.149 C 
ATOM     16  C   UNL     1      33.970 -16.768 -24.078  0.00  0.00    +0.149 C 
ATOM     17  C   UNL     1      33.627 -14.296 -22.831  0.00  0.00    +0.060 C 
ATOM     18  C   UNL     1      33.388 -15.709 -24.775  0.00  0.00    +0.060 C 
ATOM     19  C   UNL     1      33.216 -14.473 -24.152  0.00  0.00    +0.145 C 
ENDBRANCH   9  14
BRANCH   2  21
ATOM     20  O   UNL     1      31.480 -21.593 -18.579  0.00  0.00    -0.289 OA
ATOM     21  C   UNL     1      32.642 -21.813 -18.248  0.00  0.00    +0.202 C 
BRANCH  21  23
ATOM     22  N   UNL     1      33.373 -23.012 -14.221  0.00  0.00    +0.386 N 
ATOM     23  C   UNL     1      32.955 -22.724 -17.101  0.00  0.00    +0.060 C 
ATOM     24  C   UNL     1      31.797 -22.707 -16.104  0.00  0.00    -0.015 C 
ATOM     25  C   UNL     1      34.250 -22.288 -16.418  0.00  0.00    -0.015 C 
ATOM     26  C   UNL     1      32.138 -23.507 -14.845  0.00  0.00    -0.077 C 
ATOM     27  C   UNL     1      34.509 -23.103 -15.149  0.00  0.00    -0.077 C 
ATOM     28  C   UNL     1      33.656 -23.752 -12.992  0.00  0.00    -0.101 C 
ATOM     29  H   UNL     1      33.236 -22.029 -13.987  0.00  0.00    -0.080 HD
ENDBRANCH  21  23
ENDBRANCH   2  21
TORSDOF 3
ENDMDL
MODEL 2
REMARK VINA RESULT:     -13.3      0.032      1.593
REMARK  Name = 11610526
REMARK  3 active torsions:
REMARK  status: ('A' for Active; 'I' for Inactive)
REMARK    1  A    between atoms: C_2  and  C_21
REMARK    2  A    between atoms: C_9  and  C_14
REMARK    3  A    between atoms: C_21  and  C_23
REMARK                            x       y       z     vdW  Elec       q    Type
REMARK                         _______ _______ _______ _____ _____    ______ ____
ROOT
ATOM      1  N   UNL     1      33.413 -20.131 -19.769  0.00  0.00    -0.388 NA
ATOM      2  C   UNL     1      33.783 -21.163 -19.007  0.00  0.00    +0.167 C 
ATOM      3  C   UNL     1      35.051 -21.650 -18.845  0.00  0.00    +0.031 C 
ATOM      4  C   UNL     1      34.420 -19.527 -20.439  0.00  0.00    +0.167 C 
ATOM      5  C   UNL     1      36.060 -21.002 -19.550  0.00  0.00    -0.015 C 
ATOM      6  C   UNL     1      35.746 -19.919 -20.365  0.00  0.00    +0.101 C 
ATOM      7  O   UNL     1      36.207 -17.821 -22.138  0.00  0.00    -0.270 OA
ATOM      8  N   UNL     1      34.114 -18.436 -21.261  0.00  0.00    -0.259 N 
ATOM      9  C   UNL     1      34.993 -17.673 -22.036  0.00  0.00    +0.255 C 
ATOM     10  H   UNL     1      33.166 -18.175 -21.299  0.00  0.00    +0.157 HD
ENDROOT
BRANCH   9  14
ATOM     11  F   UNL     1      34.119 -17.954 -24.686  0.00  0.00    -0.204 F 
ATOM     12  F   UNL     1      34.611 -15.141 -20.890  0.00  0.00    -0.204 F 
ATOM     13  F   UNL     1      32.643 -13.462 -24.851  0.00  0.00    -0.204 F 
ATOM     14  C   UNL     1      34.367 -16.552 -22.785  0.00  0.00    +0.109 C 
ATOM     15  C   UNL     1      33.962 -16.766 -24.086  0.00  0.00    +0.149 C 
ATOM     16  C   UNL     1      34.213 -15.335 -22.155  0.00  0.00    +0.149 C 
ATOM     17  C   UNL     1      33.375 -15.713 -24.789  0.00  0.00    +0.060 C 
ATOM     18  C   UNL     1      33.626 -14.283 -22.860  0.00  0.00    +0.060 C 
ATOM     19  C   UNL     1      33.208 -14.472 -24.176  0.00  0.00    +0.145 C 
ENDBRANCH   9  14
BRANCH   2  21
ATOM     20  O   UNL     1      31.501 -21.617 -18.622  0.00  0.00    -0.289 OA
ATOM     21  C   UNL     1      32.663 -21.819 -18.276  0.00  0.00    +0.202 C 
BRANCH  21  23
ATOM     22  N   UNL     1      33.391 -22.989 -14.241  0.00  0.00    +0.386 N 
ATOM     23  C   UNL     1      32.975 -22.721 -17.123  0.00  0.00    +0.060 C 
ATOM     24  C   UNL     1      31.816 -22.697 -16.126  0.00  0.00    -0.015 C 
ATOM     25  C   UNL     1      34.270 -22.281 -16.443  0.00  0.00    -0.015 C 
ATOM     26  C   UNL     1      32.157 -23.488 -14.861  0.00  0.00    -0.077 C 
ATOM     27  C   UNL     1      34.528 -23.086 -15.168  0.00  0.00    -0.077 C 
ATOM     28  C   UNL     1      33.674 -23.719 -13.006  0.00  0.00    -0.101 C 
ATOM     29  H   UNL     1      33.254 -22.003 -14.014  0.00  0.00    -0.080 HD
ENDBRANCH  21  23
ENDBRANCH   2  21
TORSDOF 3
ENDMDL
MODEL 3
REMARK VINA RESULT:     -13.1      3.799      9.537
REMARK  Name = 11610526
REMARK  3 active torsions:
REMARK  status: ('A' for Active; 'I' for Inactive)
REMARK    1  A    between atoms: C_2  and  C_21
REMARK    2  A    between atoms: C_9  and  C_14
REMARK    3  A    between atoms: C_21  and  C_23
REMARK                            x       y       z     vdW  Elec       q    Type
REMARK                         _______ _______ _______ _____ _____    ______ ____
ROOT
ATOM      1  N   UNL     1      33.953 -15.437 -21.359  0.00  0.00    -0.388 NA
ATOM      2  C   UNL     1      33.939 -14.424 -22.229  0.00  0.00    +0.167 C 
ATOM      3  C   UNL     1      34.114 -14.504 -23.583  0.00  0.00    +0.031 C 
ATOM      4  C   UNL     1      34.165 -16.654 -21.904  0.00  0.00    +0.167 C 
ATOM      5  C   UNL     1      34.330 -15.774 -24.108  0.00  0.00    -0.015 C 
ATOM      6  C   UNL     1      34.357 -16.875 -23.258  0.00  0.00    +0.101 C 
ATOM      7  O   UNL     1      34.589 -19.555 -22.534  0.00  0.00    -0.270 OA
ATOM      8  N   UNL     1      34.194 -17.769 -21.058  0.00  0.00    -0.259 N 
ATOM      9  C   UNL     1      34.397 -19.108 -21.408  0.00  0.00    +0.255 C 
ATOM     10  H   UNL     1      34.056 -17.589 -20.100  0.00  0.00    +0.157 HD
ENDROOT
BRANCH   9  14
ATOM     11  F   UNL     1      36.702 -19.927 -20.036  0.00  0.00    -0.204 F 
ATOM     12  F   UNL     1      31.985 -20.228 -20.515  0.00  0.00    -0.204 F 
ATOM     13  F   UNL     1      34.197 -22.736 -17.169  0.00  0.00    -0.204 F 
ATOM     14  C   UNL     1      34.344 -20.073 -20.280  0.00  0.00    +0.109 C 
ATOM     15  C   UNL     1      35.520 -20.429 -19.653  0.00  0.00    +0.149 C 
ATOM     16  C   UNL     1      33.121 -20.582 -19.897  0.00  0.00    +0.149 C 
ATOM     17  C   UNL     1      35.469 -21.336 -18.594  0.00  0.00    +0.060 C 
ATOM     18  C   UNL     1      33.071 -21.489 -18.838  0.00  0.00    +0.060 C 
ATOM     19  C   UNL     1      34.246 -21.866 -18.186  0.00  0.00    +0.145 C 
ENDBRANCH   9  14
BRANCH   2  21
ATOM     20  O   UNL     1      34.388 -12.723 -20.658  0.00  0.00    -0.289 OA
ATOM     21  C   UNL     1      33.705 -13.088 -21.612  0.00  0.00    +0.202 C 
BRANCH  21  23
ATOM     22  N   UNL     1      31.416  -9.548 -22.253  0.00  0.00    +0.386 N 
ATOM     23  C   UNL     1      32.632 -12.206 -22.171  0.00  0.00    +0.060 C 
ATOM     24  C   UNL     1      33.270 -11.040 -22.927  0.00  0.00    -0.015 C 
ATOM     25  C   UNL     1      31.738 -11.684 -21.048  0.00  0.00    -0.015 C 
ATOM     26  C   UNL     1      32.214 -10.033 -23.387  0.00  0.00    -0.077 C 
ATOM     27  C   UNL     1      30.733 -10.656 -21.571  0.00  0.00    -0.077 C 
ATOM     28  C   UNL     1      30.447  -8.548 -22.701  0.00  0.00    -0.101 C 
ATOM     29  H   UNL     1      32.052  -9.111 -21.584  0.00  0.00    -0.080 HD
ENDBRANCH  21  23
ENDBRANCH   2  21
TORSDOF 3
ENDMDL
MODEL 4
REMARK VINA RESULT:     -13.0      1.446      2.454
REMARK  Name = 11610526
REMARK  3 active torsions:
REMARK  status: ('A' for Active; 'I' for Inactive)
REMARK    1  A    between atoms: C_2  and  C_21
REMARK    2  A    between atoms: C_9  and  C_14
REMARK    3  A    between atoms: C_21  and  C_23
REMARK                            x       y       z     vdW  Elec       q    Type
REMARK                         _______ _______ _______ _____ _____    ______ ____
ROOT
ATOM      1  N   UNL     1      33.838 -21.099 -19.100  0.00  0.00    -0.388 NA
ATOM      2  C   UNL     1      34.204 -21.903 -18.098  0.00  0.00    +0.167 C 
ATOM      3  C   UNL     1      35.427 -21.947 -17.488  0.00  0.00    +0.031 C 
ATOM      4  C   UNL     1      34.800 -20.254 -19.533  0.00  0.00    +0.167 C 
ATOM      5  C   UNL     1      36.391 -21.063 -17.961  0.00  0.00    -0.015 C 
ATOM      6  C   UNL     1      36.078 -20.196 -19.003  0.00  0.00    +0.101 C 
ATOM      7  O   UNL     1      36.501 -18.190 -20.889  0.00  0.00    -0.270 OA
ATOM      8  N   UNL     1      34.495 -19.377 -20.581  0.00  0.00    -0.259 N 
ATOM      9  C   UNL     1      35.333 -18.430 -21.178  0.00  0.00    +0.255 C 
ATOM     10  H   UNL     1      33.582 -19.435 -20.942  0.00  0.00    +0.157 HD
ENDROOT
BRANCH   9  14
ATOM     11  F   UNL     1      34.594 -19.550 -23.641  0.00  0.00    -0.204 F 
ATOM     12  F   UNL     1      34.817 -15.688 -20.884  0.00  0.00    -0.204 F 
ATOM     13  F   UNL     1      32.985 -15.397 -25.236  0.00  0.00    -0.204 F 
ATOM     14  C   UNL     1      34.708 -17.623 -22.258  0.00  0.00    +0.109 C 
ATOM     15  C   UNL     1      34.371 -18.243 -23.443  0.00  0.00    +0.149 C 
ATOM     16  C   UNL     1      34.485 -16.279 -22.040  0.00  0.00    +0.149 C 
ATOM     17  C   UNL     1      33.785 -17.485 -24.457  0.00  0.00    +0.060 C 
ATOM     18  C   UNL     1      33.899 -15.522 -23.055  0.00  0.00    +0.060 C 
ATOM     19  C   UNL     1      33.549 -16.124 -24.263  0.00  0.00    +0.145 C 
ENDBRANCH   9  14
BRANCH   2  21
ATOM     20  O   UNL     1      32.804 -23.787 -18.328  0.00  0.00    -0.289 OA
ATOM     21  C   UNL     1      33.134 -22.829 -17.633  0.00  0.00    +0.202 C 
BRANCH  21  23
ATOM     22  N   UNL     1      30.899 -23.643 -14.094  0.00  0.00    +0.386 N 
ATOM     23  C   UNL     1      32.473 -22.574 -16.314  0.00  0.00    +0.060 C 
ATOM     24  C   UNL     1      33.080 -23.491 -15.251  0.00  0.00    -0.015 C 
ATOM     25  C   UNL     1      30.968 -22.809 -16.422  0.00  0.00    -0.015 C 
ATOM     26  C   UNL     1      32.332 -23.369 -13.922  0.00  0.00    -0.077 C 
ATOM     27  C   UNL     1      30.292 -22.710 -15.053  0.00  0.00    -0.077 C 
ATOM     28  C   UNL     1      30.208 -23.575 -12.806  0.00  0.00    -0.101 C 
ATOM     29  H   UNL     1      30.801 -24.587 -14.468  0.00  0.00    -0.080 HD
ENDBRANCH  21  23
ENDBRANCH   2  21
TORSDOF 3
ENDMDL
MODEL 5
REMARK VINA RESULT:     -13.0      4.463      9.870
REMARK  Name = 11610526
REMARK  3 active torsions:
REMARK  status: ('A' for Active; 'I' for Inactive)
REMARK    1  A    between atoms: C_2  and  C_21
REMARK    2  A    between atoms: C_9  and  C_14
REMARK    3  A    between atoms: C_21  and  C_23
REMARK                            x       y       z     vdW  Elec       q    Type
REMARK                         _______ _______ _______ _____ _____    ______ ____
ROOT
ATOM      1  N   UNL     1      35.148 -20.986 -18.666  0.00  0.00    -0.388 NA
ATOM      2  C   UNL     1      34.419 -20.417 -19.629  0.00  0.00    +0.167 C 
ATOM      3  C   UNL     1      33.075 -20.563 -19.834  0.00  0.00    +0.031 C 
ATOM      4  C   UNL     1      34.456 -21.785 -17.823  0.00  0.00    +0.167 C 
ATOM      5  C   UNL     1      32.397 -21.392 -18.947  0.00  0.00    -0.015 C 
ATOM      6  C   UNL     1      33.094 -22.018 -17.919  0.00  0.00    +0.101 C 
ATOM      7  O   UNL     1      33.467 -23.640 -15.685  0.00  0.00    -0.270 OA
ATOM      8  N   UNL     1      35.148 -22.420 -16.785  0.00  0.00    -0.259 N 
ATOM      9  C   UNL     1      34.634 -23.280 -15.811  0.00  0.00    +0.255 C 
ATOM     10  H   UNL     1      36.115 -22.240 -16.736  0.00  0.00    +0.157 HD
ENDROOT
BRANCH   9  14
ATOM     11  F   UNL     1      35.936 -21.564 -14.015  0.00  0.00    -0.204 F 
ATOM     12  F   UNL     1      35.316 -25.994 -15.613  0.00  0.00    -0.204 F 
ATOM     13  F   UNL     1      38.347 -25.146 -12.082  0.00  0.00    -0.204 F 
ATOM     14  C   UNL     1      35.622 -23.777 -14.818  0.00  0.00    +0.109 C 
ATOM     15  C   UNL     1      36.223 -22.872 -13.967  0.00  0.00    +0.149 C 
ATOM     16  C   UNL     1      35.907 -25.125 -14.780  0.00  0.00    +0.149 C 
ATOM     17  C   UNL     1      37.150 -23.339 -13.036  0.00  0.00    +0.060 C 
ATOM     18  C   UNL     1      36.835 -25.591 -13.849  0.00  0.00    +0.060 C 
ATOM     19  C   UNL     1      37.457 -24.698 -12.976  0.00  0.00    +0.145 C 
ENDBRANCH   9  14
BRANCH   2  21
ATOM     20  O   UNL     1      36.419 -19.640 -20.608  0.00  0.00    -0.289 OA
ATOM     21  C   UNL     1      35.196 -19.541 -20.549  0.00  0.00    +0.202 C 
BRANCH  21  23
ATOM     22  N   UNL     1      34.561 -16.666 -23.635  0.00  0.00    +0.386 N 
ATOM     23  C   UNL     1      34.466 -18.544 -21.395  0.00  0.00    +0.060 C 
ATOM     24  C   UNL     1      34.465 -19.010 -22.851  0.00  0.00    -0.015 C 
ATOM     25  C   UNL     1      35.122 -17.169 -21.278  0.00  0.00    -0.015 C 
ATOM     26  C   UNL     1      33.861 -17.949 -23.773  0.00  0.00    -0.077 C 
ATOM     27  C   UNL     1      34.495 -16.171 -22.253  0.00  0.00    -0.077 C 
ATOM     28  C   UNL     1      34.006 -15.678 -24.560  0.00  0.00    -0.101 C 
ATOM     29  H   UNL     1      35.544 -16.817 -23.867  0.00  0.00    -0.080 HD
ENDBRANCH  21  23
ENDBRANCH   2  21
TORSDOF 3
ENDMDL
MODEL 6
REMARK VINA RESULT:     -13.0      2.925      5.286
REMARK  Name = 11610526
REMARK  3 active torsions:
REMARK  status: ('A' for Active; 'I' for Inactive)
REMARK    1  A    between atoms: C_2  and  C_21
REMARK    2  A    between atoms: C_9  and  C_14
REMARK    3  A    between atoms: C_21  and  C_23
REMARK                            x       y       z     vdW  Elec       q    Type
REMARK                         _______ _______ _______ _____ _____    ______ ____
ROOT
ATOM      1  N   UNL     1      34.460 -16.426 -21.807  0.00  0.00    -0.388 NA
ATOM      2  C   UNL     1      34.851 -17.649 -22.176  0.00  0.00    +0.167 C 
ATOM      3  C   UNL     1      34.717 -18.213 -23.415  0.00  0.00    +0.031 C 
ATOM      4  C   UNL     1      33.873 -15.697 -22.781  0.00  0.00    +0.167 C 
ATOM      5  C   UNL     1      34.108 -17.432 -24.391  0.00  0.00    -0.015 C 
ATOM      6  C   UNL     1      33.675 -16.148 -24.076  0.00  0.00    +0.101 C 
ATOM      7  O   UNL     1      32.524 -13.648 -24.506  0.00  0.00    -0.270 OA
ATOM      8  N   UNL     1      33.434 -14.403 -22.475  0.00  0.00    -0.259 N 
ATOM      9  C   UNL     1      32.807 -13.486 -23.323  0.00  0.00    +0.255 C 
ATOM     10  H   UNL     1      33.584 -14.103 -21.549  0.00  0.00    +0.157 HD
ENDROOT
BRANCH   9  14
ATOM     11  F   UNL     1      31.339 -13.274 -20.943  0.00  0.00    -0.204 F 
ATOM     12  F   UNL     1      33.625 -11.060 -24.470  0.00  0.00    -0.204 F 
ATOM     13  F   UNL     1      31.592  -8.550 -21.014  0.00  0.00    -0.204 F 
ATOM     14  C   UNL     1      32.484 -12.172 -22.709  0.00  0.00    +0.109 C 
ATOM     15  C   UNL     1      31.757 -12.147 -21.536  0.00  0.00    +0.149 C 
ATOM     16  C   UNL     1      32.920 -11.021 -23.330  0.00  0.00    +0.149 C 
ATOM     17  C   UNL     1      31.454 -10.913 -20.960  0.00  0.00    +0.060 C 
ATOM     18  C   UNL     1      32.616  -9.788 -22.753  0.00  0.00    +0.060 C 
ATOM     19  C   UNL     1      31.882  -9.734 -21.568  0.00  0.00    +0.145 C 
ENDBRANCH   9  14
BRANCH   2  21
ATOM     20  O   UNL     1      36.497 -18.010 -20.526  0.00  0.00    -0.289 OA
ATOM     21  C   UNL     1      35.494 -18.440 -21.090  0.00  0.00    +0.202 C 
BRANCH  21  23
ATOM     22  N   UNL     1      33.614 -21.374 -18.632  0.00  0.00    +0.386 N 
ATOM     23  C   UNL     1      34.902 -19.760 -20.703  0.00  0.00    +0.060 C 
ATOM     24  C   UNL     1      33.436 -19.568 -20.313  0.00  0.00    -0.015 C 
ATOM     25  C   UNL     1      35.685 -20.370 -19.541  0.00  0.00    -0.015 C 
ATOM     26  C   UNL     1      32.834 -20.864 -19.767  0.00  0.00    -0.077 C 
ATOM     27  C   UNL     1      35.006 -21.639 -19.022  0.00  0.00    -0.077 C 
ATOM     28  C   UNL     1      32.996 -22.584 -18.089  0.00  0.00    -0.101 C 
ATOM     29  H   UNL     1      33.622 -20.656 -17.907  0.00  0.00    -0.080 HD
ENDBRANCH  21  23
ENDBRANCH   2  21
TORSDOF 3
ENDMDL
MODEL 7
REMARK VINA RESULT:     -12.3      6.582     10.329
REMARK  Name = 11610526
REMARK  3 active torsions:
REMARK  status: ('A' for Active; 'I' for Inactive)
REMARK    1  A    between atoms: C_2  and  C_21
REMARK    2  A    between atoms: C_9  and  C_14
REMARK    3  A    between atoms: C_21  and  C_23
REMARK                            x       y       z     vdW  Elec       q    Type
REMARK                         _______ _______ _______ _____ _____    ______ ____
ROOT
ATOM      1  N   UNL     1      32.625 -11.264 -23.567  0.00  0.00    -0.388 NA
ATOM      2  C   UNL     1      32.402 -12.485 -23.074  0.00  0.00    +0.167 C 
ATOM      3  C   UNL     1      31.774 -12.791 -21.899  0.00  0.00    +0.031 C 
ATOM      4  C   UNL     1      32.173 -10.247 -22.801  0.00  0.00    +0.167 C 
ATOM      5  C   UNL     1      31.322 -11.719 -21.137  0.00  0.00    -0.015 C 
ATOM      6  C   UNL     1      31.522 -10.419 -21.590  0.00  0.00    +0.101 C 
ATOM      7  O   UNL     1      31.399  -7.637 -21.546  0.00  0.00    -0.270 OA
ATOM      8  N   UNL     1      32.368  -8.935 -23.248  0.00  0.00    -0.259 N 
ATOM      9  C   UNL     1      31.984  -7.748 -22.618  0.00  0.00    +0.255 C 
ATOM     10  H   UNL     1      32.833  -8.837 -24.110  0.00  0.00    +0.157 HD
ENDROOT
BRANCH   9  14
ATOM     11  F   UNL     1      34.496  -6.513 -22.434  0.00  0.00    -0.204 F 
ATOM     12  F   UNL     1      30.126  -6.482 -24.294  0.00  0.00    -0.204 F 
ATOM     13  F   UNL     1      33.205  -3.068 -25.409  0.00  0.00    -0.204 F 
ATOM     14  C   UNL     1      32.310  -6.502 -23.361  0.00  0.00    +0.109 C 
ATOM     15  C   UNL     1      33.567  -5.952 -23.220  0.00  0.00    +0.149 C 
ATOM     16  C   UNL     1      31.344  -5.937 -24.167  0.00  0.00    +0.149 C 
ATOM     17  C   UNL     1      33.871  -4.783 -23.918  0.00  0.00    +0.060 C 
ATOM     18  C   UNL     1      31.649  -4.767 -24.863  0.00  0.00    +0.060 C 
ATOM     19  C   UNL     1      32.913  -4.190 -24.739  0.00  0.00    +0.145 C 
ENDBRANCH   9  14
BRANCH   2  21
ATOM     20  O   UNL     1      33.068 -13.417 -25.136  0.00  0.00    -0.289 OA
ATOM     21  C   UNL     1      32.907 -13.594 -23.931  0.00  0.00    +0.202 C 
BRANCH  21  23
ATOM     22  N   UNL     1      35.227 -16.936 -22.651  0.00  0.00    +0.386 N 
ATOM     23  C   UNL     1      33.213 -14.918 -23.301  0.00  0.00    +0.060 C 
ATOM     24  C   UNL     1      34.224 -14.726 -22.171  0.00  0.00    -0.015 C 
ATOM     25  C   UNL     1      33.763 -15.886 -24.347  0.00  0.00    -0.015 C 
ATOM     26  C   UNL     1      34.678 -16.071 -21.599  0.00  0.00    -0.077 C 
ATOM     27  C   UNL     1      34.231 -17.191 -23.701  0.00  0.00    -0.077 C 
ATOM     28  C   UNL     1      35.704 -18.195 -22.081  0.00  0.00    -0.101 C 
ATOM     29  H   UNL     1      36.017 -16.450 -23.079  0.00  0.00    -0.080 HD
ENDBRANCH  21  23
ENDBRANCH   2  21
TORSDOF 3
ENDMDL
MODEL 8
REMARK VINA RESULT:     -12.3      6.581     10.377
REMARK  Name = 11610526
REMARK  3 active torsions:
REMARK  status: ('A' for Active; 'I' for Inactive)
REMARK    1  A    between atoms: C_2  and  C_21
REMARK    2  A    between atoms: C_9  and  C_14
REMARK    3  A    between atoms: C_21  and  C_23
REMARK                            x       y       z     vdW  Elec       q    Type
REMARK                         _______ _______ _______ _____ _____    ______ ____
ROOT
ATOM      1  N   UNL     1      32.625 -11.265 -23.567  0.00  0.00    -0.388 NA
ATOM      2  C   UNL     1      32.402 -12.486 -23.073  0.00  0.00    +0.167 C 
ATOM      3  C   UNL     1      31.775 -12.792 -21.897  0.00  0.00    +0.031 C 
ATOM      4  C   UNL     1      32.174 -10.248 -22.800  0.00  0.00    +0.167 C 
ATOM      5  C   UNL     1      31.325 -11.719 -21.135  0.00  0.00    -0.015 C 
ATOM      6  C   UNL     1      31.524 -10.420 -21.588  0.00  0.00    +0.101 C 
ATOM      7  O   UNL     1      31.402  -7.637 -21.544  0.00  0.00    -0.270 OA
ATOM      8  N   UNL     1      32.369  -8.936 -23.247  0.00  0.00    -0.259 N 
ATOM      9  C   UNL     1      31.986  -7.748 -22.617  0.00  0.00    +0.255 C 
ATOM     10  H   UNL     1      32.833  -8.838 -24.110  0.00  0.00    +0.157 HD
ENDROOT
BRANCH   9  14
ATOM     11  F   UNL     1      30.128  -6.488 -24.297  0.00  0.00    -0.204 F 
ATOM     12  F   UNL     1      34.496  -6.509 -22.430  0.00  0.00    -0.204 F 
ATOM     13  F   UNL     1      33.205  -3.071 -25.411  0.00  0.00    -0.204 F 
ATOM     14  C   UNL     1      32.311  -6.503 -23.360  0.00  0.00    +0.109 C 
ATOM     15  C   UNL     1      31.345  -5.940 -24.169  0.00  0.00    +0.149 C 
ATOM     16  C   UNL     1      33.566  -5.951 -23.219  0.00  0.00    +0.149 C 
ATOM     17  C   UNL     1      31.650  -4.771 -24.867  0.00  0.00    +0.060 C 
ATOM     18  C   UNL     1      33.871  -4.783 -23.918  0.00  0.00    +0.060 C 
ATOM     19  C   UNL     1      32.913  -4.193 -24.742  0.00  0.00    +0.145 C 
ENDBRANCH   9  14
BRANCH   2  21
ATOM     20  O   UNL     1      33.066 -13.418 -25.135  0.00  0.00    -0.289 OA
ATOM     21  C   UNL     1      32.906 -13.595 -23.930  0.00  0.00    +0.202 C 
BRANCH  21  23
ATOM     22  N   UNL     1      35.227 -16.936 -22.652  0.00  0.00    +0.386 N 
ATOM     23  C   UNL     1      33.212 -14.919 -23.301  0.00  0.00    +0.060 C 
ATOM     24  C   UNL     1      34.224 -14.727 -22.171  0.00  0.00    -0.015 C 
ATOM     25  C   UNL     1      33.762 -15.887 -24.347  0.00  0.00    -0.015 C 
ATOM     26  C   UNL     1      34.678 -16.072 -21.599  0.00  0.00    -0.077 C 
ATOM     27  C   UNL     1      34.231 -17.192 -23.702  0.00  0.00    -0.077 C 
ATOM     28  C   UNL     1      35.705 -18.196 -22.082  0.00  0.00    -0.101 C 
ATOM     29  H   UNL     1      36.016 -16.450 -23.079  0.00  0.00    -0.080 HD
ENDBRANCH  21  23
ENDBRANCH   2  21
TORSDOF 3
ENDMDL
MODEL 9
REMARK VINA RESULT:     -12.2      5.120      9.853
REMARK  Name = 11610526
REMARK  3 active torsions:
REMARK  status: ('A' for Active; 'I' for Inactive)
REMARK    1  A    between atoms: C_2  and  C_21
REMARK    2  A    between atoms: C_9  and  C_14
REMARK    3  A    between atoms: C_21  and  C_23
REMARK                            x       y       z     vdW  Elec       q    Type
REMARK                         _______ _______ _______ _____ _____    ______ ____
ROOT
ATOM      1  N   UNL     1      33.805 -22.461 -17.424  0.00  0.00    -0.388 NA
ATOM      2  C   UNL     1      32.642 -21.989 -17.881  0.00  0.00    +0.167 C 
ATOM      3  C   UNL     1      31.438 -22.011 -17.234  0.00  0.00    +0.031 C 
ATOM      4  C   UNL     1      33.752 -23.014 -16.193  0.00  0.00    +0.167 C 
ATOM      5  C   UNL     1      31.422 -22.588 -15.968  0.00  0.00    -0.015 C 
ATOM      6  C   UNL     1      32.598 -23.102 -15.431  0.00  0.00    +0.101 C 
ATOM      7  O   UNL     1      34.234 -24.338 -13.546  0.00  0.00    -0.270 OA
ATOM      8  N   UNL     1      34.930 -23.533 -15.642  0.00  0.00    -0.259 N 
ATOM      9  C   UNL     1      35.098 -24.144 -14.396  0.00  0.00    +0.255 C 
ATOM     10  H   UNL     1      35.737 -23.461 -16.200  0.00  0.00    +0.157 HD
ENDROOT
BRANCH   9  14
ATOM     11  F   UNL     1      36.781 -22.635 -12.736  0.00  0.00    -0.204 F 
ATOM     12  F   UNL     1      36.203 -26.508 -15.424  0.00  0.00    -0.204 F 
ATOM     13  F   UNL     1      40.315 -25.744 -13.214  0.00  0.00    -0.204 F 
ATOM     14  C   UNL     1      36.486 -24.570 -14.081  0.00  0.00    +0.109 C 
ATOM     15  C   UNL     1      37.256 -23.775 -13.256  0.00  0.00    +0.149 C 
ATOM     16  C   UNL     1      36.961 -25.745 -14.624  0.00  0.00    +0.149 C 
ATOM     17  C   UNL     1      38.559 -24.176 -12.962  0.00  0.00    +0.060 C 
ATOM     18  C   UNL     1      38.265 -26.145 -14.329  0.00  0.00    +0.060 C 
ATOM     19  C   UNL     1      39.064 -25.360 -13.498  0.00  0.00    +0.145 C 
ENDBRANCH   9  14
BRANCH   2  21
ATOM     20  O   UNL     1      31.965 -21.773 -20.130  0.00  0.00    -0.289 OA
ATOM     21  C   UNL     1      32.718 -21.383 -19.240  0.00  0.00    +0.202 C 
BRANCH  21  23
ATOM     22  N   UNL     1      35.677 -19.139 -21.335  0.00  0.00    +0.386 N 
ATOM     23  C   UNL     1      33.719 -20.301 -19.500  0.00  0.00    +0.060 C 
ATOM     24  C   UNL     1      33.305 -19.507 -20.739  0.00  0.00    -0.015 C 
ATOM     25  C   UNL     1      35.109 -20.903 -19.696  0.00  0.00    -0.015 C 
ATOM     26  C   UNL     1      34.377 -18.487 -21.128  0.00  0.00    -0.077 C 
ATOM     27  C   UNL     1      36.121 -19.837 -20.120  0.00  0.00    -0.077 C 
ATOM     28  C   UNL     1      36.678 -18.160 -21.758  0.00  0.00    -0.101 C 
ATOM     29  H   UNL     1      35.567 -19.834 -22.074  0.00  0.00    -0.080 HD
ENDBRANCH  21  23
ENDBRANCH   2  21
TORSDOF 3
ENDMDL
