MODEL 1
REMARK VINA RESULT:     -12.4      0.000      0.000
REMARK  Name = 42608447
REMARK  9 active torsions:
REMARK  status: ('A' for Active; 'I' for Inactive)
REMARK    1  A    between atoms: C_3  and  C_8
REMARK    2  A    between atoms: C_7  and  C_23
REMARK    3  A    between atoms: C_8  and  N_10
REMARK    4  A    between atoms: C_11  and  C_13
REMARK    5  A    between atoms: C_16  and  S_19
REMARK    6  A    between atoms: C_23  and  C_24
REMARK    7  A    between atoms: C_24  and  N_25
REMARK    8  A    between atoms: C_24  and  C_29
REMARK    9  A    between atoms: C_29  and  C_31
REMARK                            x       y       z     vdW  Elec       q    Type
REMARK                         _______ _______ _______ _____ _____    ______ ____
ROOT
ATOM      1  O   UNL     1      33.165 -23.264 -17.286  0.00  0.00    -0.275 OA
ATOM      2  N   UNL     1      35.193 -22.212 -16.923  0.00  0.00    -0.280 N 
ATOM      3  C   UNL     1      35.440 -22.778 -15.595  0.00  0.00    +0.095 C 
ATOM      4  C   UNL     1      36.925 -22.499 -15.351  0.00  0.00    +0.023 C 
ATOM      5  C   UNL     1      37.171 -21.201 -16.112  0.00  0.00    +0.023 C 
ATOM      6  C   UNL     1      36.302 -21.362 -17.350  0.00  0.00    +0.093 C 
ATOM      7  C   UNL     1      34.082 -22.542 -17.681  0.00  0.00    +0.224 C 
ENDROOT
BRANCH   3   8
ATOM      8  C   UNL     1      34.550 -22.127 -14.538  0.00  0.00    +0.109 C 
BRANCH   8  10
ATOM      9  O   UNL     1      33.100 -23.557 -12.515  0.00  0.00    -0.270 OA
ATOM     10  N   UNL     1      33.205 -22.612 -14.631  0.00  0.00    -0.299 N 
ATOM     11  C   UNL     1      32.576 -23.299 -13.595  0.00  0.00    +0.246 C 
ATOM     12  H   UNL     1      32.704 -22.451 -15.462  0.00  0.00    +0.150 HD
BRANCH  11  13
ATOM     13  C   UNL     1      31.188 -23.758 -13.857  0.00  0.00    +0.055 C 
ATOM     14  C   UNL     1      30.423 -23.139 -14.846  0.00  0.00    +0.023 C 
ATOM     15  C   UNL     1      30.648 -24.807 -13.113  0.00  0.00    +0.005 C 
ATOM     16  C   UNL     1      29.120 -23.570 -15.092  0.00  0.00    +0.106 C 
ATOM     17  C   UNL     1      29.344 -25.238 -13.359  0.00  0.00    +0.001 C 
ATOM     18  C   UNL     1      28.580 -24.620 -14.349  0.00  0.00    +0.018 C 
BRANCH  16  19
ATOM     19  S   UNL     1      28.163 -22.796 -16.331  0.00  0.00    +0.010 S 
ATOM     20  O   UNL     1      28.983 -21.799 -17.006  0.00  0.00    -0.169 OA
ATOM     21  O   UNL     1      27.507 -23.839 -17.107  0.00  0.00    -0.169 OA
ATOM     22  C   UNL     1      26.908 -21.911 -15.434  0.00  0.00    +0.182 C 
ENDBRANCH  16  19
ENDBRANCH  11  13
ENDBRANCH   8  10
ENDBRANCH   3   8
BRANCH   7  23
ATOM     23  C   UNL     1      34.040 -21.949 -19.067  0.00  0.00    +0.064 C 
BRANCH  23  24
ATOM     24  C   UNL     1      33.063 -20.775 -19.151  0.00  0.00    -0.052 C 
BRANCH  24  25
ATOM     25  N   UNL     1      31.761 -21.258 -18.675  0.00  0.00    +0.382 N 
ATOM     26  H   UNL     1      31.383 -20.601 -17.994  0.00  0.00    -0.089 HD
ATOM     27  H   UNL     1      31.876 -22.173 -18.239  0.00  0.00    -0.089 HD
ATOM     28  H   UNL     1      31.118 -21.337 -19.464  0.00  0.00    -0.089 HD
ENDBRANCH  24  25
BRANCH  24  29
ATOM     29  C   UNL     1      32.887 -20.225 -20.584  0.00  0.00    +0.005 C 
BRANCH  29  31
ATOM     30 CL   UNL     1      34.597 -16.492 -23.798  0.00  0.00    -0.082 Cl
ATOM     31  C   UNL     1      34.025 -19.364 -21.072  0.00  0.00    -0.023 C 
ATOM     32  C   UNL     1      33.810 -18.434 -22.090  0.00  0.00    +0.007 C 
ATOM     33  C   UNL     1      35.293 -19.497 -20.507  0.00  0.00    -0.004 C 
ATOM     34  C   UNL     1      34.862 -17.638 -22.542  0.00  0.00    +0.057 C 
ATOM     35  C   UNL     1      36.346 -18.701 -20.959  0.00  0.00    +0.001 C 
ATOM     36  C   UNL     1      36.130 -17.772 -21.977  0.00  0.00    +0.011 C 
ENDBRANCH  29  31
ENDBRANCH  24  29
ENDBRANCH  23  24
ENDBRANCH   7  23
TORSDOF 9
ENDMDL
MODEL 2
REMARK VINA RESULT:     -12.2      8.916     12.654
REMARK  Name = 42608447
REMARK  9 active torsions:
REMARK  status: ('A' for Active; 'I' for Inactive)
REMARK    1  A    between atoms: C_3  and  C_8
REMARK    2  A    between atoms: C_7  and  C_23
REMARK    3  A    between atoms: C_8  and  N_10
REMARK    4  A    between atoms: C_11  and  C_13
REMARK    5  A    between atoms: C_16  and  S_19
REMARK    6  A    between atoms: C_23  and  C_24
REMARK    7  A    between atoms: C_24  and  N_25
REMARK    8  A    between atoms: C_24  and  C_29
REMARK    9  A    between atoms: C_29  and  C_31
REMARK                            x       y       z     vdW  Elec       q    Type
REMARK                         _______ _______ _______ _____ _____    ______ ____
ROOT
ATOM      1  O   UNL     1      34.500 -15.311 -20.760  0.00  0.00    -0.275 OA
ATOM      2  N   UNL     1      33.742 -14.431 -22.761  0.00  0.00    -0.280 N 
ATOM      3  C   UNL     1      33.628 -13.045 -22.301  0.00  0.00    +0.095 C 
ATOM      4  C   UNL     1      33.507 -12.240 -23.597  0.00  0.00    +0.023 C 
ATOM      5  C   UNL     1      32.795 -13.200 -24.544  0.00  0.00    +0.023 C 
ATOM      6  C   UNL     1      33.393 -14.550 -24.174  0.00  0.00    +0.093 C 
ATOM      7  C   UNL     1      34.214 -15.450 -21.950  0.00  0.00    +0.224 C 
ENDROOT
BRANCH   3   8
ATOM      8  C   UNL     1      32.417 -12.858 -21.391  0.00  0.00    +0.109 C 
BRANCH   8  10
ATOM      9  O   UNL     1      30.317 -11.038 -22.113  0.00  0.00    -0.270 OA
ATOM     10  N   UNL     1      32.289 -11.492 -20.979  0.00  0.00    -0.299 N 
ATOM     11  C   UNL     1      31.232 -10.677 -21.379  0.00  0.00    +0.246 C 
ATOM     12  H   UNL     1      32.978 -11.113 -20.387  0.00  0.00    +0.150 HD
BRANCH  11  13
ATOM     13  C   UNL     1      31.258  -9.276 -20.886  0.00  0.00    +0.055 C 
ATOM     14  C   UNL     1      31.190  -8.217 -21.791  0.00  0.00    +0.023 C 
ATOM     15  C   UNL     1      31.349  -9.019 -19.518  0.00  0.00    +0.005 C 
ATOM     16  C   UNL     1      31.215  -6.901 -21.328  0.00  0.00    +0.106 C 
ATOM     17  C   UNL     1      31.374  -7.704 -19.056  0.00  0.00    +0.001 C 
ATOM     18  C   UNL     1      31.306  -6.644 -19.960  0.00  0.00    +0.018 C 
BRANCH  16  19
ATOM     19  S   UNL     1      31.130  -5.575 -22.461  0.00  0.00    +0.010 S 
ATOM     20  O   UNL     1      32.436  -4.933 -22.534  0.00  0.00    -0.169 OA
ATOM     21  O   UNL     1      30.496  -6.065 -23.678  0.00  0.00    -0.169 OA
ATOM     22  C   UNL     1      30.023  -4.411 -21.699  0.00  0.00    +0.182 C 
ENDBRANCH  16  19
ENDBRANCH  11  13
ENDBRANCH   8  10
ENDBRANCH   3   8
BRANCH   7  23
ATOM     23  C   UNL     1      34.366 -16.794 -22.617  0.00  0.00    +0.064 C 
BRANCH  23  24
ATOM     24  C   UNL     1      34.958 -17.835 -21.666  0.00  0.00    -0.052 C 
BRANCH  24  25
ATOM     25  N   UNL     1      36.408 -17.860 -21.898  0.00  0.00    +0.382 N 
ATOM     26  H   UNL     1      36.685 -18.787 -22.219  0.00  0.00    -0.089 HD
ATOM     27  H   UNL     1      36.895 -17.641 -21.028  0.00  0.00    -0.089 HD
ATOM     28  H   UNL     1      36.651 -17.167 -22.607  0.00  0.00    -0.089 HD
ENDBRANCH  24  25
BRANCH  24  29
ATOM     29  C   UNL     1      34.403 -19.259 -21.891  0.00  0.00    +0.005 C 
BRANCH  29  31
ATOM     30 CL   UNL     1      36.375 -21.656 -17.702  0.00  0.00    -0.082 Cl
ATOM     31  C   UNL     1      34.170 -20.050 -20.627  0.00  0.00    -0.023 C 
ATOM     32  C   UNL     1      35.254 -20.441 -19.840  0.00  0.00    +0.007 C 
ATOM     33  C   UNL     1      32.873 -20.392 -20.247  0.00  0.00    -0.004 C 
ATOM     34  C   UNL     1      35.039 -21.174 -18.672  0.00  0.00    +0.057 C 
ATOM     35  C   UNL     1      32.659 -21.125 -19.080  0.00  0.00    +0.001 C 
ATOM     36  C   UNL     1      33.742 -21.516 -18.292  0.00  0.00    +0.011 C 
ENDBRANCH  29  31
ENDBRANCH  24  29
ENDBRANCH  23  24
ENDBRANCH   7  23
TORSDOF 9
ENDMDL
MODEL 3
REMARK VINA RESULT:     -11.9      5.599      8.649
REMARK  Name = 42608447
REMARK  9 active torsions:
REMARK  status: ('A' for Active; 'I' for Inactive)
REMARK    1  A    between atoms: C_3  and  C_8
REMARK    2  A    between atoms: C_7  and  C_23
REMARK    3  A    between atoms: C_8  and  N_10
REMARK    4  A    between atoms: C_11  and  C_13
REMARK    5  A    between atoms: C_16  and  S_19
REMARK    6  A    between atoms: C_23  and  C_24
REMARK    7  A    between atoms: C_24  and  N_25
REMARK    8  A    between atoms: C_24  and  C_29
REMARK    9  A    between atoms: C_29  and  C_31
REMARK                            x       y       z     vdW  Elec       q    Type
REMARK                         _______ _______ _______ _____ _____    ______ ____
ROOT
ATOM      1  O   UNL     1      34.175 -15.488 -20.042  0.00  0.00    -0.275 OA
ATOM      2  N   UNL     1      34.063 -15.362 -22.349  0.00  0.00    -0.280 N 
ATOM      3  C   UNL     1      34.166 -16.801 -22.601  0.00  0.00    +0.095 C 
ATOM      4  C   UNL     1      33.723 -16.948 -24.058  0.00  0.00    +0.023 C 
ATOM      5  C   UNL     1      34.162 -15.636 -24.696  0.00  0.00    +0.023 C 
ATOM      6  C   UNL     1      33.901 -14.617 -23.596  0.00  0.00    +0.093 C 
ATOM      7  C   UNL     1      34.035 -14.827 -21.072  0.00  0.00    +0.224 C 
ENDROOT
BRANCH   3   8
ATOM      8  C   UNL     1      35.590 -17.306 -22.377  0.00  0.00    +0.109 C 
BRANCH   8  10
ATOM      9  O   UNL     1      34.095 -19.734 -22.039  0.00  0.00    -0.270 OA
ATOM     10  N   UNL     1      35.649 -18.198 -21.258  0.00  0.00    -0.299 N 
ATOM     11  C   UNL     1      34.885 -19.360 -21.177  0.00  0.00    +0.246 C 
ATOM     12  H   UNL     1      36.257 -17.980 -20.516  0.00  0.00    +0.150 HD
BRANCH  11  13
ATOM     13  C   UNL     1      35.043 -20.166 -19.938  0.00  0.00    +0.055 C 
ATOM     14  C   UNL     1      33.986 -20.951 -19.478  0.00  0.00    +0.023 C 
ATOM     15  C   UNL     1      36.248 -20.138 -19.236  0.00  0.00    +0.005 C 
ATOM     16  C   UNL     1      34.134 -21.707 -18.315  0.00  0.00    +0.106 C 
ATOM     17  C   UNL     1      36.396 -20.893 -18.074  0.00  0.00    +0.001 C 
ATOM     18  C   UNL     1      35.339 -21.679 -17.613  0.00  0.00    +0.018 C 
BRANCH  16  19
ATOM     19  S   UNL     1      32.811 -22.691 -17.738  0.00  0.00    +0.010 S 
ATOM     20  O   UNL     1      31.570 -21.942 -17.884  0.00  0.00    -0.169 OA
ATOM     21  O   UNL     1      32.936 -24.009 -18.344  0.00  0.00    -0.169 OA
ATOM     22  C   UNL     1      33.113 -22.860 -15.994  0.00  0.00    +0.182 C 
ENDBRANCH  16  19
ENDBRANCH  11  13
ENDBRANCH   8  10
ENDBRANCH   3   8
BRANCH   7  23
ATOM     23  C   UNL     1      33.819 -13.336 -20.996  0.00  0.00    +0.064 C 
BRANCH  23  24
ATOM     24  C   UNL     1      32.486 -12.990 -20.331  0.00  0.00    -0.052 C 
BRANCH  24  25
ATOM     25  N   UNL     1      31.903 -14.248 -19.846  0.00  0.00    +0.382 N 
ATOM     26  H   UNL     1      31.846 -14.227 -18.828  0.00  0.00    -0.089 HD
ATOM     27  H   UNL     1      32.490 -15.030 -20.139  0.00  0.00    -0.089 HD
ATOM     28  H   UNL     1      30.967 -14.362 -20.237  0.00  0.00    -0.089 HD
ENDBRANCH  24  25
BRANCH  24  29
ATOM     29  C   UNL     1      31.477 -12.322 -21.290  0.00  0.00    +0.005 C 
BRANCH  29  31
ATOM     30 CL   UNL     1      31.628  -7.682 -23.665  0.00  0.00    -0.082 Cl
ATOM     31  C   UNL     1      31.416 -10.817 -21.190  0.00  0.00    -0.023 C 
ATOM     32  C   UNL     1      31.535 -10.036 -22.340  0.00  0.00    +0.007 C 
ATOM     33  C   UNL     1      31.241 -10.207 -19.948  0.00  0.00    -0.004 C 
ATOM     34  C   UNL     1      31.480  -8.645 -22.247  0.00  0.00    +0.057 C 
ATOM     35  C   UNL     1      31.185  -8.817 -19.856  0.00  0.00    +0.001 C 
ATOM     36  C   UNL     1      31.305  -8.036 -21.006  0.00  0.00    +0.011 C 
ENDBRANCH  29  31
ENDBRANCH  24  29
ENDBRANCH  23  24
ENDBRANCH   7  23
TORSDOF 9
ENDMDL
MODEL 4
REMARK VINA RESULT:     -11.7      3.665      5.664
REMARK  Name = 42608447
REMARK  9 active torsions:
REMARK  status: ('A' for Active; 'I' for Inactive)
REMARK    1  A    between atoms: C_3  and  C_8
REMARK    2  A    between atoms: C_7  and  C_23
REMARK    3  A    between atoms: C_8  and  N_10
REMARK    4  A    between atoms: C_11  and  C_13
REMARK    5  A    between atoms: C_16  and  S_19
REMARK    6  A    between atoms: C_23  and  C_24
REMARK    7  A    between atoms: C_24  and  N_25
REMARK    8  A    between atoms: C_24  and  C_29
REMARK    9  A    between atoms: C_29  and  C_31
REMARK                            x       y       z     vdW  Elec       q    Type
REMARK                         _______ _______ _______ _____ _____    ______ ____
ROOT
ATOM      1  O   UNL     1      33.205 -19.241 -22.270  0.00  0.00    -0.275 OA
ATOM      2  N   UNL     1      34.820 -19.740 -20.690  0.00  0.00    -0.280 N 
ATOM      3  C   UNL     1      34.278 -21.045 -20.305  0.00  0.00    +0.095 C 
ATOM      4  C   UNL     1      35.429 -21.705 -19.541  0.00  0.00    +0.023 C 
ATOM      5  C   UNL     1      36.151 -20.526 -18.901  0.00  0.00    +0.023 C 
ATOM      6  C   UNL     1      36.056 -19.447 -19.970  0.00  0.00    +0.093 C 
ATOM      7  C   UNL     1      34.251 -18.959 -21.683  0.00  0.00    +0.224 C 
ENDROOT
BRANCH   3   8
ATOM      8  C   UNL     1      33.025 -20.897 -19.445  0.00  0.00    +0.109 C 
BRANCH   8  10
ATOM      9  O   UNL     1      30.892 -21.722 -17.710  0.00  0.00    -0.270 OA
ATOM     10  N   UNL     1      33.153 -21.630 -18.221  0.00  0.00    -0.299 N 
ATOM     11  C   UNL     1      32.058 -21.991 -17.438  0.00  0.00    +0.246 C 
ATOM     12  H   UNL     1      34.053 -21.891 -17.921  0.00  0.00    +0.150 HD
BRANCH  11  13
ATOM     13  C   UNL     1      32.360 -22.728 -16.184  0.00  0.00    +0.055 C 
ATOM     14  C   UNL     1      33.649 -23.208 -15.950  0.00  0.00    +0.023 C 
ATOM     15  C   UNL     1      31.356 -22.939 -15.239  0.00  0.00    +0.005 C 
ATOM     16  C   UNL     1      33.932 -23.900 -14.772  0.00  0.00    +0.106 C 
ATOM     17  C   UNL     1      31.639 -23.631 -14.062  0.00  0.00    +0.001 C 
ATOM     18  C   UNL     1      32.927 -24.111 -13.828  0.00  0.00    +0.018 C 
BRANCH  16  19
ATOM     19  S   UNL     1      35.545 -24.502 -14.479  0.00  0.00    +0.010 S 
ATOM     20  O   UNL     1      35.745 -24.634 -13.042  0.00  0.00    -0.169 OA
ATOM     21  O   UNL     1      35.759 -25.652 -15.347  0.00  0.00    -0.169 OA
ATOM     22  C   UNL     1      36.614 -23.193 -15.032  0.00  0.00    +0.182 C 
ENDBRANCH  16  19
ENDBRANCH  11  13
ENDBRANCH   8  10
ENDBRANCH   3   8
BRANCH   7  23
ATOM     23  C   UNL     1      34.998 -17.695 -22.024  0.00  0.00    +0.064 C 
BRANCH  23  24
ATOM     24  C   UNL     1      34.124 -16.713 -22.806  0.00  0.00    -0.052 C 
BRANCH  24  25
ATOM     25  N   UNL     1      34.062 -17.196 -24.192  0.00  0.00    +0.382 N 
ATOM     26  H   UNL     1      34.395 -16.466 -24.821  0.00  0.00    -0.089 HD
ATOM     27  H   UNL     1      33.098 -17.434 -24.426  0.00  0.00    -0.089 HD
ATOM     28  H   UNL     1      34.650 -18.024 -24.290  0.00  0.00    -0.089 HD
ENDBRANCH  24  25
BRANCH  24  29
ATOM     29  C   UNL     1      34.677 -15.271 -22.815  0.00  0.00    +0.005 C 
BRANCH  29  31
ATOM     30 CL   UNL     1      32.215 -10.690 -23.195  0.00  0.00    -0.082 Cl
ATOM     31  C   UNL     1      33.761 -14.242 -22.198  0.00  0.00    -0.023 C 
ATOM     32  C   UNL     1      33.447 -13.078 -22.900  0.00  0.00    +0.007 C 
ATOM     33  C   UNL     1      33.230 -14.455 -20.927  0.00  0.00    -0.004 C 
ATOM     34  C   UNL     1      32.602 -12.126 -22.330  0.00  0.00    +0.057 C 
ATOM     35  C   UNL     1      32.384 -13.503 -20.357  0.00  0.00    +0.001 C 
ATOM     36  C   UNL     1      32.070 -12.338 -21.058  0.00  0.00    +0.011 C 
ENDBRANCH  29  31
ENDBRANCH  24  29
ENDBRANCH  23  24
ENDBRANCH   7  23
TORSDOF 9
ENDMDL
MODEL 5
REMARK VINA RESULT:     -11.6      9.496     13.176
REMARK  Name = 42608447
REMARK  9 active torsions:
REMARK  status: ('A' for Active; 'I' for Inactive)
REMARK    1  A    between atoms: C_3  and  C_8
REMARK    2  A    between atoms: C_7  and  C_23
REMARK    3  A    between atoms: C_8  and  N_10
REMARK    4  A    between atoms: C_11  and  C_13
REMARK    5  A    between atoms: C_16  and  S_19
REMARK    6  A    between atoms: C_23  and  C_24
REMARK    7  A    between atoms: C_24  and  N_25
REMARK    8  A    between atoms: C_24  and  C_29
REMARK    9  A    between atoms: C_29  and  C_31
REMARK                            x       y       z     vdW  Elec       q    Type
REMARK                         _______ _______ _______ _____ _____    ______ ____
ROOT
ATOM      1  O   UNL     1      32.494  -9.443 -23.903  0.00  0.00    -0.275 OA
ATOM      2  N   UNL     1      31.980 -10.916 -22.195  0.00  0.00    -0.280 N 
ATOM      3  C   UNL     1      33.058 -11.870 -22.468  0.00  0.00    +0.095 C 
ATOM      4  C   UNL     1      33.118 -12.723 -21.198  0.00  0.00    +0.023 C 
ATOM      5  C   UNL     1      31.676 -12.727 -20.706  0.00  0.00    +0.023 C 
ATOM      6  C   UNL     1      31.202 -11.317 -21.025  0.00  0.00    +0.093 C 
ATOM      7  C   UNL     1      31.815  -9.747 -22.921  0.00  0.00    +0.224 C 
ENDROOT
BRANCH   3   8
ATOM      8  C   UNL     1      32.760 -12.706 -23.710  0.00  0.00    +0.109 C 
BRANCH   8  10
ATOM      9  O   UNL     1      33.148 -14.708 -25.731  0.00  0.00    -0.270 OA
ATOM     10  N   UNL     1      33.101 -14.080 -23.498  0.00  0.00    -0.299 N 
ATOM     11  C   UNL     1      33.272 -14.987 -24.542  0.00  0.00    +0.246 C 
ATOM     12  H   UNL     1      33.222 -14.398 -22.575  0.00  0.00    +0.150 HD
BRANCH  11  13
ATOM     13  C   UNL     1      33.600 -16.383 -24.155  0.00  0.00    +0.055 C 
ATOM     14  C   UNL     1      34.410 -16.628 -23.046  0.00  0.00    +0.023 C 
ATOM     15  C   UNL     1      33.098 -17.450 -24.900  0.00  0.00    +0.005 C 
ATOM     16  C   UNL     1      34.719 -17.939 -22.683  0.00  0.00    +0.106 C 
ATOM     17  C   UNL     1      33.406 -18.761 -24.537  0.00  0.00    +0.001 C 
ATOM     18  C   UNL     1      34.217 -19.006 -23.428  0.00  0.00    +0.018 C 
BRANCH  16  19
ATOM     19  S   UNL     1      35.733 -18.245 -21.295  0.00  0.00    +0.010 S 
ATOM     20  O   UNL     1      37.100 -18.464 -21.749  0.00  0.00    -0.169 OA
ATOM     21  O   UNL     1      35.457 -17.215 -20.303  0.00  0.00    -0.169 OA
ATOM     22  C   UNL     1      35.147 -19.796 -20.651  0.00  0.00    +0.182 C 
ENDBRANCH  16  19
ENDBRANCH  11  13
ENDBRANCH   8  10
ENDBRANCH   3   8
BRANCH   7  23
ATOM     23  C   UNL     1      30.721  -8.830 -22.437  0.00  0.00    +0.064 C 
BRANCH  23  24
ATOM     24  C   UNL     1      31.245  -7.420 -22.159  0.00  0.00    -0.052 C 
BRANCH  24  25
ATOM     25  N   UNL     1      31.456  -7.313 -20.710  0.00  0.00    +0.382 N 
ATOM     26  H   UNL     1      31.036  -8.117 -20.245  0.00  0.00    -0.089 HD
ATOM     27  H   UNL     1      31.023  -6.456 -20.366  0.00  0.00    -0.089 HD
ATOM     28  H   UNL     1      32.457  -7.291 -20.512  0.00  0.00    -0.089 HD
ENDBRANCH  24  25
BRANCH  24  29
ATOM     29  C   UNL     1      30.269  -6.305 -22.595  0.00  0.00    +0.005 C 
BRANCH  29  31
ATOM     30 CL   UNL     1      32.762  -5.911 -27.157  0.00  0.00    -0.082 Cl
ATOM     31  C   UNL     1      30.769  -5.436 -23.721  0.00  0.00    -0.023 C 
ATOM     32  C   UNL     1      31.454  -6.009 -24.794  0.00  0.00    +0.007 C 
ATOM     33  C   UNL     1      30.549  -4.059 -23.691  0.00  0.00    -0.004 C 
ATOM     34  C   UNL     1      31.918  -5.205 -25.835  0.00  0.00    +0.057 C 
ATOM     35  C   UNL     1      31.014  -3.255 -24.732  0.00  0.00    +0.001 C 
ATOM     36  C   UNL     1      31.698  -3.828 -25.804  0.00  0.00    +0.011 C 
ENDBRANCH  29  31
ENDBRANCH  24  29
ENDBRANCH  23  24
ENDBRANCH   7  23
TORSDOF 9
ENDMDL
MODEL 6
REMARK VINA RESULT:     -11.5      4.129      6.410
REMARK  Name = 42608447
REMARK  9 active torsions:
REMARK  status: ('A' for Active; 'I' for Inactive)
REMARK    1  A    between atoms: C_3  and  C_8
REMARK    2  A    between atoms: C_7  and  C_23
REMARK    3  A    between atoms: C_8  and  N_10
REMARK    4  A    between atoms: C_11  and  C_13
REMARK    5  A    between atoms: C_16  and  S_19
REMARK    6  A    between atoms: C_23  and  C_24
REMARK    7  A    between atoms: C_24  and  N_25
REMARK    8  A    between atoms: C_24  and  C_29
REMARK    9  A    between atoms: C_29  and  C_31
REMARK                            x       y       z     vdW  Elec       q    Type
REMARK                         _______ _______ _______ _____ _____    ______ ____
ROOT
ATOM      1  O   UNL     1      32.899 -18.481 -23.985  0.00  0.00    -0.275 OA
ATOM      2  N   UNL     1      34.673 -18.210 -22.524  0.00  0.00    -0.280 N 
ATOM      3  C   UNL     1      34.466 -19.453 -21.778  0.00  0.00    +0.095 C 
ATOM      4  C   UNL     1      35.778 -19.641 -21.013  0.00  0.00    +0.023 C 
ATOM      5  C   UNL     1      36.248 -18.213 -20.761  0.00  0.00    +0.023 C 
ATOM      6  C   UNL     1      35.849 -17.492 -22.040  0.00  0.00    +0.093 C 
ATOM      7  C   UNL     1      33.886 -17.848 -23.605  0.00  0.00    +0.224 C 
ENDROOT
BRANCH   3   8
ATOM      8  C   UNL     1      33.263 -19.348 -20.843  0.00  0.00    +0.109 C 
BRANCH   8  10
ATOM      9  O   UNL     1      31.893 -21.719 -19.983  0.00  0.00    -0.270 OA
ATOM     10  N   UNL     1      33.490 -20.075 -19.630  0.00  0.00    -0.299 N 
ATOM     11  C   UNL     1      32.776 -21.222 -19.291  0.00  0.00    +0.246 C 
ATOM     12  H   UNL     1      34.183 -19.750 -19.010  0.00  0.00    +0.150 HD
BRANCH  11  13
ATOM     13  C   UNL     1      33.114 -21.846 -17.986  0.00  0.00    +0.055 C 
ATOM     14  C   UNL     1      32.096 -22.261 -17.126  0.00  0.00    +0.023 C 
ATOM     15  C   UNL     1      34.449 -22.019 -17.619  0.00  0.00    +0.005 C 
ATOM     16  C   UNL     1      32.413 -22.846 -15.901  0.00  0.00    +0.106 C 
ATOM     17  C   UNL     1      34.766 -22.604 -16.394  0.00  0.00    +0.001 C 
ATOM     18  C   UNL     1      33.748 -23.019 -15.534  0.00  0.00    +0.018 C 
BRANCH  16  19
ATOM     19  S   UNL     1      31.139 -23.365 -14.825  0.00  0.00    +0.010 S 
ATOM     20  O   UNL     1      30.618 -22.203 -14.117  0.00  0.00    -0.169 OA
ATOM     21  O   UNL     1      30.233 -24.216 -15.582  0.00  0.00    -0.169 OA
ATOM     22  C   UNL     1      31.963 -24.379 -13.619  0.00  0.00    +0.182 C 
ENDBRANCH  16  19
ENDBRANCH  11  13
ENDBRANCH   8  10
ENDBRANCH   3   8
BRANCH   7  23
ATOM     23  C   UNL     1      34.305 -16.589 -24.322  0.00  0.00    +0.064 C 
BRANCH  23  24
ATOM     24  C   UNL     1      33.433 -15.396 -23.928  0.00  0.00    -0.052 C 
BRANCH  24  25
ATOM     25  N   UNL     1      33.042 -14.715 -25.169  0.00  0.00    +0.382 N 
ATOM     26  H   UNL     1      32.401 -13.953 -24.951  0.00  0.00    -0.089 HD
ATOM     27  H   UNL     1      32.582 -15.380 -25.791  0.00  0.00    -0.089 HD
ATOM     28  H   UNL     1      33.873 -14.340 -25.628  0.00  0.00    -0.089 HD
ENDBRANCH  24  25
BRANCH  24  29
ATOM     29  C   UNL     1      34.159 -14.378 -23.021  0.00  0.00    +0.005 C 
BRANCH  29  31
ATOM     30 CL   UNL     1      31.729  -9.765 -22.990  0.00  0.00    -0.082 Cl
ATOM     31  C   UNL     1      33.248 -13.403 -22.315  0.00  0.00    -0.023 C 
ATOM     32  C   UNL     1      32.944 -12.178 -22.910  0.00  0.00    +0.007 C 
ATOM     33  C   UNL     1      32.712 -13.726 -21.070  0.00  0.00    -0.004 C 
ATOM     34  C   UNL     1      32.103 -11.276 -22.258  0.00  0.00    +0.057 C 
ATOM     35  C   UNL     1      31.871 -12.823 -20.417  0.00  0.00    +0.001 C 
ATOM     36  C   UNL     1      31.567 -11.598 -21.012  0.00  0.00    +0.011 C 
ENDBRANCH  29  31
ENDBRANCH  24  29
ENDBRANCH  23  24
ENDBRANCH   7  23
TORSDOF 9
ENDMDL
MODEL 7
REMARK VINA RESULT:     -11.3      6.292     10.544
REMARK  Name = 42608447
REMARK  9 active torsions:
REMARK  status: ('A' for Active; 'I' for Inactive)
REMARK    1  A    between atoms: C_3  and  C_8
REMARK    2  A    between atoms: C_7  and  C_23
REMARK    3  A    between atoms: C_8  and  N_10
REMARK    4  A    between atoms: C_11  and  C_13
REMARK    5  A    between atoms: C_16  and  S_19
REMARK    6  A    between atoms: C_23  and  C_24
REMARK    7  A    between atoms: C_24  and  N_25
REMARK    8  A    between atoms: C_24  and  C_29
REMARK    9  A    between atoms: C_29  and  C_31
REMARK                            x       y       z     vdW  Elec       q    Type
REMARK                         _______ _______ _______ _____ _____    ______ ____
ROOT
ATOM      1  O   UNL     1      36.504 -18.787 -19.712  0.00  0.00    -0.275 OA
ATOM      2  N   UNL     1      35.033 -18.783 -21.498  0.00  0.00    -0.280 N 
ATOM      3  C   UNL     1      35.267 -17.395 -21.904  0.00  0.00    +0.095 C 
ATOM      4  C   UNL     1      34.667 -17.322 -23.311  0.00  0.00    +0.023 C 
ATOM      5  C   UNL     1      33.523 -18.328 -23.260  0.00  0.00    +0.023 C 
ATOM      6  C   UNL     1      34.089 -19.445 -22.395  0.00  0.00    +0.093 C 
ATOM      7  C   UNL     1      35.713 -19.379 -20.448  0.00  0.00    +0.224 C 
ENDROOT
BRANCH   3   8
ATOM      8  C   UNL     1      34.603 -16.414 -20.942  0.00  0.00    +0.109 C 
BRANCH   8  10
ATOM      9  O   UNL     1      32.796 -14.392 -19.998  0.00  0.00    -0.270 OA
ATOM     10  N   UNL     1      34.262 -15.193 -21.608  0.00  0.00    -0.299 N 
ATOM     11  C   UNL     1      33.373 -14.263 -21.075  0.00  0.00    +0.246 C 
ATOM     12  H   UNL     1      34.677 -15.002 -22.480  0.00  0.00    +0.150 HD
BRANCH  11  13
ATOM     13  C   UNL     1      33.105 -13.057 -21.901  0.00  0.00    +0.055 C 
ATOM     14  C   UNL     1      32.356 -12.004 -21.378  0.00  0.00    +0.023 C 
ATOM     15  C   UNL     1      33.604 -12.978 -23.201  0.00  0.00    +0.005 C 
ATOM     16  C   UNL     1      32.105 -10.873 -22.154  0.00  0.00    +0.106 C 
ATOM     17  C   UNL     1      33.353 -11.847 -23.977  0.00  0.00    +0.001 C 
ATOM     18  C   UNL     1      32.604 -10.794 -23.454  0.00  0.00    +0.018 C 
BRANCH  16  19
ATOM     19  S   UNL     1      31.166  -9.554 -21.498  0.00  0.00    +0.010 S 
ATOM     20  O   UNL     1      31.918  -8.316 -21.656  0.00  0.00    -0.169 OA
ATOM     21  O   UNL     1      29.817  -9.654 -22.036  0.00  0.00    -0.169 OA
ATOM     22  C   UNL     1      31.086  -9.892 -19.754  0.00  0.00    +0.182 C 
ENDBRANCH  16  19
ENDBRANCH  11  13
ENDBRANCH   8  10
ENDBRANCH   3   8
BRANCH   7  23
ATOM     23  C   UNL     1      35.425 -20.844 -20.235  0.00  0.00    +0.064 C 
BRANCH  23  24
ATOM     24  C   UNL     1      34.956 -21.126 -18.807  0.00  0.00    -0.052 C 
BRANCH  24  25
ATOM     25  N   UNL     1      36.158 -21.327 -17.986  0.00  0.00    +0.382 N 
ATOM     26  H   UNL     1      36.533 -20.421 -17.707  0.00  0.00    -0.089 HD
ATOM     27  H   UNL     1      36.859 -21.833 -18.528  0.00  0.00    -0.089 HD
ATOM     28  H   UNL     1      35.916 -21.866 -17.155  0.00  0.00    -0.089 HD
ENDBRANCH  24  25
BRANCH  24  29
ATOM     29  C   UNL     1      34.069 -22.386 -18.690  0.00  0.00    +0.005 C 
BRANCH  29  31
ATOM     30 CL   UNL     1      29.517 -22.365 -16.148  0.00  0.00    -0.082 Cl
ATOM     31  C   UNL     1      33.318 -22.507 -17.387  0.00  0.00    -0.023 C 
ATOM     32  C   UNL     1      31.927 -22.394 -17.372  0.00  0.00    +0.007 C 
ATOM     33  C   UNL     1      34.012 -22.730 -16.199  0.00  0.00    -0.004 C 
ATOM     34  C   UNL     1      31.232 -22.505 -16.167  0.00  0.00    +0.057 C 
ATOM     35  C   UNL     1      33.317 -22.841 -14.995  0.00  0.00    +0.001 C 
ATOM     36  C   UNL     1      31.926 -22.728 -14.979  0.00  0.00    +0.011 C 
ENDBRANCH  29  31
ENDBRANCH  24  29
ENDBRANCH  23  24
ENDBRANCH   7  23
TORSDOF 9
ENDMDL
MODEL 8
REMARK VINA RESULT:     -11.1      5.158      8.020
REMARK  Name = 42608447
REMARK  9 active torsions:
REMARK  status: ('A' for Active; 'I' for Inactive)
REMARK    1  A    between atoms: C_3  and  C_8
REMARK    2  A    between atoms: C_7  and  C_23
REMARK    3  A    between atoms: C_8  and  N_10
REMARK    4  A    between atoms: C_11  and  C_13
REMARK    5  A    between atoms: C_16  and  S_19
REMARK    6  A    between atoms: C_23  and  C_24
REMARK    7  A    between atoms: C_24  and  N_25
REMARK    8  A    between atoms: C_24  and  C_29
REMARK    9  A    between atoms: C_29  and  C_31
REMARK                            x       y       z     vdW  Elec       q    Type
REMARK                         _______ _______ _______ _____ _____    ______ ____
ROOT
ATOM      1  O   UNL     1      34.287 -15.553 -20.927  0.00  0.00    -0.275 OA
ATOM      2  N   UNL     1      34.210 -17.125 -22.623  0.00  0.00    -0.280 N 
ATOM      3  C   UNL     1      33.909 -18.277 -21.770  0.00  0.00    +0.095 C 
ATOM      4  C   UNL     1      33.439 -19.348 -22.758  0.00  0.00    +0.023 C 
ATOM      5  C   UNL     1      34.224 -19.029 -24.025  0.00  0.00    +0.023 C 
ATOM      6  C   UNL     1      34.257 -17.508 -24.032  0.00  0.00    +0.093 C 
ATOM      7  C   UNL     1      34.333 -15.838 -22.125  0.00  0.00    +0.224 C 
ENDROOT
BRANCH   3   8
ATOM      8  C   UNL     1      35.137 -18.721 -20.980  0.00  0.00    +0.109 C 
BRANCH   8  10
ATOM      9  O   UNL     1      36.281 -21.247 -20.236  0.00  0.00    -0.270 OA
ATOM     10  N   UNL     1      34.763 -19.533 -19.862  0.00  0.00    -0.299 N 
ATOM     11  C   UNL     1      35.374 -20.751 -19.573  0.00  0.00    +0.246 C 
ATOM     12  H   UNL     1      34.042 -19.216 -19.271  0.00  0.00    +0.150 HD
BRANCH  11  13
ATOM     13  C   UNL     1      34.853 -21.486 -18.392  0.00  0.00    +0.055 C 
ATOM     14  C   UNL     1      35.700 -21.780 -17.323  0.00  0.00    +0.023 C 
ATOM     15  C   UNL     1      33.516 -21.882 -18.350  0.00  0.00    +0.005 C 
ATOM     16  C   UNL     1      35.211 -22.470 -16.214  0.00  0.00    +0.106 C 
ATOM     17  C   UNL     1      33.027 -22.573 -17.241  0.00  0.00    +0.001 C 
ATOM     18  C   UNL     1      33.875 -22.867 -16.173  0.00  0.00    +0.018 C 
BRANCH  16  19
ATOM     19  S   UNL     1      36.272 -22.839 -14.877  0.00  0.00    +0.010 S 
ATOM     20  O   UNL     1      37.618 -22.386 -15.204  0.00  0.00    -0.169 OA
ATOM     21  O   UNL     1      35.630 -22.374 -13.655  0.00  0.00    -0.169 OA
ATOM     22  C   UNL     1      36.322 -24.615 -14.827  0.00  0.00    +0.182 C 
ENDBRANCH  16  19
ENDBRANCH  11  13
ENDBRANCH   8  10
ENDBRANCH   3   8
BRANCH   7  23
ATOM     23  C   UNL     1      34.540 -14.758 -23.157  0.00  0.00    +0.064 C 
BRANCH  23  24
ATOM     24  C   UNL     1      33.251 -13.979 -23.426  0.00  0.00    -0.052 C 
BRANCH  24  25
ATOM     25  N   UNL     1      32.729 -14.437 -24.720  0.00  0.00    +0.382 N 
ATOM     26  H   UNL     1      31.770 -14.112 -24.834  0.00  0.00    -0.089 HD
ATOM     27  H   UNL     1      32.751 -15.456 -24.754  0.00  0.00    -0.089 HD
ATOM     28  H   UNL     1      33.307 -14.060 -25.473  0.00  0.00    -0.089 HD
ENDBRANCH  24  25
BRANCH  24  29
ATOM     29  C   UNL     1      33.462 -12.450 -23.497  0.00  0.00    +0.005 C 
BRANCH  29  31
ATOM     30 CL   UNL     1      30.857  -8.021 -22.611  0.00  0.00    -0.082 Cl
ATOM     31  C   UNL     1      32.546 -11.647 -22.607  0.00  0.00    -0.023 C 
ATOM     32  C   UNL     1      32.168 -10.356 -22.978  0.00  0.00    +0.007 C 
ATOM     33  C   UNL     1      32.078 -12.194 -21.413  0.00  0.00    -0.004 C 
ATOM     34  C   UNL     1      31.323  -9.613 -22.154  0.00  0.00    +0.057 C 
ATOM     35  C   UNL     1      31.232 -11.451 -20.589  0.00  0.00    +0.001 C 
ATOM     36  C   UNL     1      30.855 -10.160 -20.960  0.00  0.00    +0.011 C 
ENDBRANCH  29  31
ENDBRANCH  24  29
ENDBRANCH  23  24
ENDBRANCH   7  23
TORSDOF 9
ENDMDL
MODEL 9
REMARK VINA RESULT:     -11.0      1.769      2.851
REMARK  Name = 42608447
REMARK  9 active torsions:
REMARK  status: ('A' for Active; 'I' for Inactive)
REMARK    1  A    between atoms: C_3  and  C_8
REMARK    2  A    between atoms: C_7  and  C_23
REMARK    3  A    between atoms: C_8  and  N_10
REMARK    4  A    between atoms: C_11  and  C_13
REMARK    5  A    between atoms: C_16  and  S_19
REMARK    6  A    between atoms: C_23  and  C_24
REMARK    7  A    between atoms: C_24  and  N_25
REMARK    8  A    between atoms: C_24  and  C_29
REMARK    9  A    between atoms: C_29  and  C_31
REMARK                            x       y       z     vdW  Elec       q    Type
REMARK                         _______ _______ _______ _____ _____    ______ ____
ROOT
ATOM      1  O   UNL     1      35.067 -23.005 -15.936  0.00  0.00    -0.275 OA
ATOM      2  N   UNL     1      36.535 -23.753 -14.311  0.00  0.00    -0.280 N 
ATOM      3  C   UNL     1      35.580 -24.612 -13.607  0.00  0.00    +0.095 C 
ATOM      4  C   UNL     1      36.467 -25.494 -12.725  0.00  0.00    +0.023 C 
ATOM      5  C   UNL     1      37.656 -24.595 -12.408  0.00  0.00    +0.023 C 
ATOM      6  C   UNL     1      37.862 -23.831 -13.707  0.00  0.00    +0.093 C 
ATOM      7  C   UNL     1      36.201 -23.047 -15.455  0.00  0.00    +0.224 C 
ENDROOT
BRANCH   3   8
ATOM      8  C   UNL     1      34.589 -23.789 -12.788  0.00  0.00    +0.109 C 
BRANCH   8  10
ATOM      9  O   UNL     1      32.737 -22.162 -14.260  0.00  0.00    -0.270 OA
ATOM     10  N   UNL     1      33.239 -24.124 -13.127  0.00  0.00    -0.299 N 
ATOM     11  C   UNL     1      32.407 -23.271 -13.849  0.00  0.00    +0.246 C 
ATOM     12  H   UNL     1      32.884 -24.996 -12.839  0.00  0.00    +0.150 HD
BRANCH  11  13
ATOM     13  C   UNL     1      31.024 -23.755 -14.098  0.00  0.00    +0.055 C 
ATOM     14  C   UNL     1      30.207 -23.092 -15.014  0.00  0.00    +0.023 C 
ATOM     15  C   UNL     1      30.543 -24.873 -13.418  0.00  0.00    +0.005 C 
ATOM     16  C   UNL     1      28.909 -23.546 -15.248  0.00  0.00    +0.106 C 
ATOM     17  C   UNL     1      29.245 -25.328 -13.652  0.00  0.00    +0.001 C 
ATOM     18  C   UNL     1      28.428 -24.664 -14.567  0.00  0.00    +0.018 C 
BRANCH  16  19
ATOM     19  S   UNL     1      27.886 -22.715 -16.394  0.00  0.00    +0.010 S 
ATOM     20  O   UNL     1      28.644 -21.629 -17.001  0.00  0.00    -0.169 OA
ATOM     21  O   UNL     1      27.256 -23.718 -17.240  0.00  0.00    -0.169 OA
ATOM     22  C   UNL     1      26.619 -21.967 -15.395  0.00  0.00    +0.182 C 
ENDBRANCH  16  19
ENDBRANCH  11  13
ENDBRANCH   8  10
ENDBRANCH   3   8
BRANCH   7  23
ATOM     23  C   UNL     1      37.333 -22.297 -16.110  0.00  0.00    +0.064 C 
BRANCH  23  24
ATOM     24  C   UNL     1      36.827 -21.332 -17.184  0.00  0.00    -0.052 C 
BRANCH  24  25
ATOM     25  N   UNL     1      36.432 -20.093 -16.503  0.00  0.00    +0.382 N 
ATOM     26  H   UNL     1      37.045 -19.934 -15.704  0.00  0.00    -0.089 HD
ATOM     27  H   UNL     1      35.467 -20.174 -16.181  0.00  0.00    -0.089 HD
ATOM     28  H   UNL     1      36.508 -19.309 -17.152  0.00  0.00    -0.089 HD
ENDBRANCH  24  25
BRANCH  24  29
ATOM     29  C   UNL     1      35.609 -21.869 -17.967  0.00  0.00    +0.005 C 
BRANCH  29  31
ATOM     30 CL   UNL     1      36.612 -18.293 -21.626  0.00  0.00    -0.082 Cl
ATOM     31  C   UNL     1      35.096 -20.946 -19.044  0.00  0.00    -0.023 C 
ATOM     32  C   UNL     1      35.987 -20.141 -19.755  0.00  0.00    +0.007 C 
ATOM     33  C   UNL     1      33.732 -20.895 -19.328  0.00  0.00    -0.004 C 
ATOM     34  C   UNL     1      35.513 -19.286 -20.750  0.00  0.00    +0.057 C 
ATOM     35  C   UNL     1      33.258 -20.040 -20.324  0.00  0.00    +0.001 C 
ATOM     36  C   UNL     1      34.149 -19.235 -21.034  0.00  0.00    +0.011 C 
ENDBRANCH  29  31
ENDBRANCH  24  29
ENDBRANCH  23  24
ENDBRANCH   7  23
TORSDOF 9
ENDMDL
