MODEL 1
REMARK VINA RESULT:     -12.5      0.000      0.000
REMARK  Name = 445481
REMARK  5 active torsions:
REMARK  status: ('A' for Active; 'I' for Inactive)
REMARK    1  A    between atoms: N_2  and  C_21
REMARK    2  A    between atoms: C_3  and  N_7
REMARK    3  A    between atoms: N_7  and  S_9
REMARK    4  A    between atoms: S_9  and  C_14
REMARK    5  A    between atoms: C_21  and  C_24
REMARK                            x       y       z     vdW  Elec       q    Type
REMARK                         _______ _______ _______ _____ _____    ______ ____
ROOT
ATOM      1  O   UNL     1      36.477 -19.103 -19.862  0.00  0.00    -0.273 OA
ATOM      2  N   UNL     1      34.978 -18.481 -21.566  0.00  0.00    -0.273 N 
ATOM      3  C   UNL     1      34.491 -20.413 -20.358  0.00  0.00    +0.153 C 
ATOM      4  C   UNL     1      33.231 -19.920 -21.061  0.00  0.00    +0.048 C 
ATOM      5  C   UNL     1      33.764 -19.005 -22.146  0.00  0.00    +0.096 C 
ATOM      6  C   UNL     1      35.459 -19.267 -20.518  0.00  0.00    +0.242 C 
ENDROOT
BRANCH   3   7
ATOM      7  N   UNL     1      34.243 -20.647 -18.931  0.00  0.00    -0.171 NA
ATOM      8  H   UNL     1      35.152 -20.750 -18.479  0.00  0.00    +0.149 HD
BRANCH   7   9
ATOM      9  S   UNL     1      33.298 -22.007 -18.487  0.00  0.00    +0.066 S 
ATOM     10  O   UNL     1      33.664 -23.135 -19.321  0.00  0.00    -0.152 OA
ATOM     11  O   UNL     1      31.915 -21.597 -18.339  0.00  0.00    -0.152 OA
BRANCH   9  14
ATOM     12  S   UNL     1      35.383 -22.059 -16.445  0.00  0.00    -0.066 S 
ATOM     13  N   UNL     1      33.547 -23.799 -13.490  0.00  0.00    -0.243 NA
ATOM     14  C   UNL     1      33.783 -22.465 -16.824  0.00  0.00    +0.153 C 
ATOM     15  C   UNL     1      33.111 -23.073 -15.819  0.00  0.00    +0.046 C 
ATOM     16  C   UNL     1      33.933 -23.226 -14.662  0.00  0.00    +0.089 C 
ATOM     17  C   UNL     1      35.215 -22.711 -14.864  0.00  0.00    +0.048 C 
ATOM     18  C   UNL     1      36.165 -22.772 -13.834  0.00  0.00    +0.010 C 
ATOM     19  C   UNL     1      35.776 -23.356 -12.635  0.00  0.00    +0.021 C 
ATOM     20  C   UNL     1      34.486 -23.840 -12.523  0.00  0.00    +0.099 C 
ENDBRANCH   9  14
ENDBRANCH   7   9
ENDBRANCH   3   7
BRANCH   2  21
ATOM     21  C   UNL     1      35.653 -17.332 -22.129  0.00  0.00    +0.135 C 
BRANCH  21  24
ATOM     22  N   UNL     1      34.491 -15.388 -23.141  0.00  0.00    -0.313 N 
ATOM     23  N   UNL     1      32.362 -12.378 -22.967  0.00  0.00    -0.241 NA
ATOM     24  C   UNL     1      34.783 -16.109 -22.031  0.00  0.00    +0.046 C 
ATOM     25  C   UNL     1      34.189 -15.548 -20.947  0.00  0.00    +0.013 C 
ATOM     26  C   UNL     1      33.481 -14.404 -21.411  0.00  0.00    +0.017 C 
ATOM     27  C   UNL     1      33.687 -14.329 -22.789  0.00  0.00    +0.068 C 
ATOM     28  C   UNL     1      32.685 -13.428 -20.797  0.00  0.00    +0.022 C 
ATOM     29  C   UNL     1      33.130 -13.320 -23.564  0.00  0.00    +0.113 C 
ATOM     30  C   UNL     1      32.162 -12.449 -21.632  0.00  0.00    +0.099 C 
ATOM     31  H   UNL     1      34.804 -15.590 -24.052  0.00  0.00    +0.152 HD
ENDBRANCH  21  24
ENDBRANCH   2  21
TORSDOF 5
ENDMDL
MODEL 2
REMARK VINA RESULT:     -12.5      2.607     10.102
REMARK  Name = 445481
REMARK  5 active torsions:
REMARK  status: ('A' for Active; 'I' for Inactive)
REMARK    1  A    between atoms: N_2  and  C_21
REMARK    2  A    between atoms: C_3  and  N_7
REMARK    3  A    between atoms: N_7  and  S_9
REMARK    4  A    between atoms: S_9  and  C_14
REMARK    5  A    between atoms: C_21  and  C_24
REMARK                            x       y       z     vdW  Elec       q    Type
REMARK                         _______ _______ _______ _____ _____    ______ ____
ROOT
ATOM      1  O   UNL     1      35.639 -20.890 -19.808  0.00  0.00    -0.273 OA
ATOM      2  N   UNL     1      33.489 -21.579 -19.146  0.00  0.00    -0.273 N 
ATOM      3  C   UNL     1      33.667 -19.548 -20.276  0.00  0.00    +0.153 C 
ATOM      4  C   UNL     1      32.227 -20.045 -20.344  0.00  0.00    +0.048 C 
ATOM      5  C   UNL     1      32.145 -21.054 -19.215  0.00  0.00    +0.096 C 
ATOM      6  C   UNL     1      34.428 -20.737 -19.743  0.00  0.00    +0.242 C 
ENDROOT
BRANCH   3   7
ATOM      7  N   UNL     1      34.171 -19.204 -21.610  0.00  0.00    -0.171 NA
ATOM      8  H   UNL     1      34.590 -20.048 -22.002  0.00  0.00    +0.149 HD
BRANCH   7   9
ATOM      9  S   UNL     1      35.336 -17.952 -21.735  0.00  0.00    +0.066 S 
ATOM     10  O   UNL     1      36.461 -18.424 -22.519  0.00  0.00    -0.152 OA
ATOM     11  O   UNL     1      35.527 -17.348 -20.431  0.00  0.00    -0.152 OA
BRANCH   9  14
ATOM     12  S   UNL     1      34.262 -15.239 -21.810  0.00  0.00    -0.066 S 
ATOM     13  N   UNL     1      33.243 -14.898 -25.548  0.00  0.00    -0.243 NA
ATOM     14  C   UNL     1      34.595 -16.638 -22.704  0.00  0.00    +0.153 C 
ATOM     15  C   UNL     1      34.255 -16.558 -24.010  0.00  0.00    +0.046 C 
ATOM     16  C   UNL     1      33.685 -15.286 -24.321  0.00  0.00    +0.089 C 
ATOM     17  C   UNL     1      33.627 -14.455 -23.201  0.00  0.00    +0.048 C 
ATOM     18  C   UNL     1      33.096 -13.162 -23.314  0.00  0.00    +0.010 C 
ATOM     19  C   UNL     1      32.643 -12.760 -24.564  0.00  0.00    +0.021 C 
ATOM     20  C   UNL     1      32.740 -13.649 -25.619  0.00  0.00    +0.099 C 
ENDBRANCH   9  14
ENDBRANCH   7   9
ENDBRANCH   3   7
BRANCH   2  21
ATOM     21  C   UNL     1      33.793 -22.788 -18.414  0.00  0.00    +0.135 C 
BRANCH  21  24
ATOM     22  N   UNL     1      33.652 -23.156 -15.965  0.00  0.00    -0.313 N 
ATOM     23  N   UNL     1      31.823 -23.277 -12.761  0.00  0.00    -0.241 NA
ATOM     24  C   UNL     1      33.025 -22.830 -17.121  0.00  0.00    +0.046 C 
ATOM     25  C   UNL     1      31.712 -22.583 -16.882  0.00  0.00    +0.013 C 
ATOM     26  C   UNL     1      31.507 -22.765 -15.485  0.00  0.00    +0.017 C 
ATOM     27  C   UNL     1      32.740 -23.124 -14.936  0.00  0.00    +0.068 C 
ATOM     28  C   UNL     1      30.398 -22.661 -14.635  0.00  0.00    +0.022 C 
ATOM     29  C   UNL     1      32.896 -23.379 -13.580  0.00  0.00    +0.113 C 
ATOM     30  C   UNL     1      30.628 -22.930 -13.292  0.00  0.00    +0.099 C 
ATOM     31  H   UNL     1      34.606 -23.380 -15.876  0.00  0.00    +0.152 HD
ENDBRANCH  21  24
ENDBRANCH   2  21
TORSDOF 5
ENDMDL
MODEL 3
REMARK VINA RESULT:     -12.5      0.818      1.140
REMARK  Name = 445481
REMARK  5 active torsions:
REMARK  status: ('A' for Active; 'I' for Inactive)
REMARK    1  A    between atoms: N_2  and  C_21
REMARK    2  A    between atoms: C_3  and  N_7
REMARK    3  A    between atoms: N_7  and  S_9
REMARK    4  A    between atoms: S_9  and  C_14
REMARK    5  A    between atoms: C_21  and  C_24
REMARK                            x       y       z     vdW  Elec       q    Type
REMARK                         _______ _______ _______ _____ _____    ______ ____
ROOT
ATOM      1  O   UNL     1      36.483 -19.105 -19.928  0.00  0.00    -0.273 OA
ATOM      2  N   UNL     1      34.964 -18.469 -21.608  0.00  0.00    -0.273 N 
ATOM      3  C   UNL     1      34.477 -20.396 -20.391  0.00  0.00    +0.153 C 
ATOM      4  C   UNL     1      33.211 -19.891 -21.075  0.00  0.00    +0.048 C 
ATOM      5  C   UNL     1      33.736 -18.982 -22.169  0.00  0.00    +0.096 C 
ATOM      6  C   UNL     1      35.453 -19.259 -20.567  0.00  0.00    +0.242 C 
ENDROOT
BRANCH   3   7
ATOM      7  N   UNL     1      34.249 -20.626 -18.960  0.00  0.00    -0.171 NA
ATOM      8  H   UNL     1      35.164 -20.726 -18.520  0.00  0.00    +0.149 HD
BRANCH   7   9
ATOM      9  S   UNL     1      33.312 -21.987 -18.500  0.00  0.00    +0.066 S 
ATOM     10  O   UNL     1      33.678 -23.120 -19.326  0.00  0.00    -0.152 OA
ATOM     11  O   UNL     1      31.928 -21.581 -18.348  0.00  0.00    -0.152 OA
BRANCH   9  14
ATOM     12  S   UNL     1      32.539 -23.023 -15.883  0.00  0.00    -0.066 S 
ATOM     13  N   UNL     1      35.920 -22.913 -13.962  0.00  0.00    -0.243 NA
ATOM     14  C   UNL     1      33.808 -22.428 -16.835  0.00  0.00    +0.153 C 
ATOM     15  C   UNL     1      35.001 -22.375 -16.201  0.00  0.00    +0.046 C 
ATOM     16  C   UNL     1      34.896 -22.843 -14.856  0.00  0.00    +0.089 C 
ATOM     17  C   UNL     1      33.593 -23.233 -14.542  0.00  0.00    +0.048 C 
ATOM     18  C   UNL     1      33.297 -23.722 -13.261  0.00  0.00    +0.010 C 
ATOM     19  C   UNL     1      34.338 -23.796 -12.345  0.00  0.00    +0.021 C 
ATOM     20  C   UNL     1      35.598 -23.387 -12.742  0.00  0.00    +0.099 C 
ENDBRANCH   9  14
ENDBRANCH   7   9
ENDBRANCH   3   7
BRANCH   2  21
ATOM     21  C   UNL     1      35.641 -17.328 -22.183  0.00  0.00    +0.135 C 
BRANCH  21  24
ATOM     22  N   UNL     1      34.548 -15.322 -23.150  0.00  0.00    -0.313 N 
ATOM     23  N   UNL     1      32.467 -12.282 -22.920  0.00  0.00    -0.241 NA
ATOM     24  C   UNL     1      34.789 -16.094 -22.063  0.00  0.00    +0.046 C 
ATOM     25  C   UNL     1      34.169 -15.568 -20.976  0.00  0.00    +0.013 C 
ATOM     26  C   UNL     1      33.497 -14.392 -21.414  0.00  0.00    +0.017 C 
ATOM     27  C   UNL     1      33.751 -14.264 -22.781  0.00  0.00    +0.068 C 
ATOM     28  C   UNL     1      32.698 -13.427 -20.786  0.00  0.00    +0.022 C 
ATOM     29  C   UNL     1      33.238 -13.213 -23.530  0.00  0.00    +0.113 C 
ATOM     30  C   UNL     1      32.220 -12.406 -21.596  0.00  0.00    +0.099 C 
ATOM     31  H   UNL     1      34.888 -15.492 -24.058  0.00  0.00    +0.152 HD
ENDBRANCH  21  24
ENDBRANCH   2  21
TORSDOF 5
ENDMDL
MODEL 4
REMARK VINA RESULT:     -12.1      2.332     10.064
REMARK  Name = 445481
REMARK  5 active torsions:
REMARK  status: ('A' for Active; 'I' for Inactive)
REMARK    1  A    between atoms: N_2  and  C_21
REMARK    2  A    between atoms: C_3  and  N_7
REMARK    3  A    between atoms: N_7  and  S_9
REMARK    4  A    between atoms: S_9  and  C_14
REMARK    5  A    between atoms: C_21  and  C_24
REMARK                            x       y       z     vdW  Elec       q    Type
REMARK                         _______ _______ _______ _____ _____    ______ ____
ROOT
ATOM      1  O   UNL     1      31.863 -20.232 -19.599  0.00  0.00    -0.273 OA
ATOM      2  N   UNL     1      33.534 -21.631 -18.713  0.00  0.00    -0.273 N 
ATOM      3  C   UNL     1      34.115 -20.268 -20.512  0.00  0.00    +0.153 C 
ATOM      4  C   UNL     1      35.378 -20.729 -19.793  0.00  0.00    +0.048 C 
ATOM      5  C   UNL     1      34.915 -21.937 -19.001  0.00  0.00    +0.096 C 
ATOM      6  C   UNL     1      33.005 -20.666 -19.571  0.00  0.00    +0.242 C 
ENDROOT
BRANCH   3   7
ATOM      7  N   UNL     1      34.108 -18.812 -20.688  0.00  0.00    -0.171 NA
ATOM      8  H   UNL     1      33.165 -18.546 -20.973  0.00  0.00    +0.149 HD
BRANCH   7   9
ATOM      9  S   UNL     1      35.195 -18.130 -21.825  0.00  0.00    +0.066 S 
ATOM     10  O   UNL     1      35.157 -18.908 -23.048  0.00  0.00    -0.152 OA
ATOM     11  O   UNL     1      36.449 -17.829 -21.162  0.00  0.00    -0.152 OA
BRANCH   9  14
ATOM     12  S   UNL     1      34.107 -16.382 -23.894  0.00  0.00    -0.066 S 
ATOM     13  N   UNL     1      33.509 -13.090 -21.908  0.00  0.00    -0.243 NA
ATOM     14  C   UNL     1      34.553 -16.515 -22.265  0.00  0.00    +0.153 C 
ATOM     15  C   UNL     1      34.359 -15.389 -21.541  0.00  0.00    +0.046 C 
ATOM     16  C   UNL     1      33.815 -14.343 -22.345  0.00  0.00    +0.089 C 
ATOM     17  C   UNL     1      33.624 -14.748 -23.667  0.00  0.00    +0.048 C 
ATOM     18  C   UNL     1      33.096 -13.851 -24.607  0.00  0.00    +0.010 C 
ATOM     19  C   UNL     1      32.782 -12.571 -24.166  0.00  0.00    +0.021 C 
ATOM     20  C   UNL     1      33.004 -12.255 -22.839  0.00  0.00    +0.099 C 
ENDBRANCH   9  14
ENDBRANCH   7   9
ENDBRANCH   3   7
BRANCH   2  21
ATOM     21  C   UNL     1      32.787 -22.365 -17.716  0.00  0.00    +0.135 C 
BRANCH  21  24
ATOM     22  N   UNL     1      34.928 -22.223 -16.472  0.00  0.00    -0.313 N 
ATOM     23  N   UNL     1      37.022 -22.708 -13.471  0.00  0.00    -0.241 NA
ATOM     24  C   UNL     1      33.619 -22.573 -16.480  0.00  0.00    +0.046 C 
ATOM     25  C   UNL     1      33.271 -23.091 -15.274  0.00  0.00    +0.013 C 
ATOM     26  C   UNL     1      34.438 -23.060 -14.461  0.00  0.00    +0.017 C 
ATOM     27  C   UNL     1      35.461 -22.511 -15.237  0.00  0.00    +0.068 C 
ATOM     28  C   UNL     1      34.727 -23.444 -13.144  0.00  0.00    +0.022 C 
ATOM     29  C   UNL     1      36.747 -22.336 -14.744  0.00  0.00    +0.113 C 
ATOM     30  C   UNL     1      36.033 -23.240 -12.719  0.00  0.00    +0.099 C 
ATOM     31  H   UNL     1      35.418 -21.826 -17.227  0.00  0.00    +0.152 HD
ENDBRANCH  21  24
ENDBRANCH   2  21
TORSDOF 5
ENDMDL
MODEL 5
REMARK VINA RESULT:     -11.8      2.357     10.370
REMARK  Name = 445481
REMARK  5 active torsions:
REMARK  status: ('A' for Active; 'I' for Inactive)
REMARK    1  A    between atoms: N_2  and  C_21
REMARK    2  A    between atoms: C_3  and  N_7
REMARK    3  A    between atoms: N_7  and  S_9
REMARK    4  A    between atoms: S_9  and  C_14
REMARK    5  A    between atoms: C_21  and  C_24
REMARK                            x       y       z     vdW  Elec       q    Type
REMARK                         _______ _______ _______ _____ _____    ______ ____
ROOT
ATOM      1  O   UNL     1      31.691 -20.213 -19.500  0.00  0.00    -0.273 OA
ATOM      2  N   UNL     1      33.480 -21.519 -18.706  0.00  0.00    -0.273 N 
ATOM      3  C   UNL     1      33.834 -20.274 -20.643  0.00  0.00    +0.153 C 
ATOM      4  C   UNL     1      35.177 -20.662 -20.033  0.00  0.00    +0.048 C 
ATOM      5  C   UNL     1      34.830 -21.821 -19.118  0.00  0.00    +0.096 C 
ATOM      6  C   UNL     1      32.840 -20.625 -19.564  0.00  0.00    +0.242 C 
ENDROOT
BRANCH   3   7
ATOM      7  N   UNL     1      33.774 -18.833 -20.914  0.00  0.00    -0.171 NA
ATOM      8  H   UNL     1      32.948 -18.668 -21.489  0.00  0.00    +0.149 HD
BRANCH   7   9
ATOM      9  S   UNL     1      35.104 -18.104 -21.712  0.00  0.00    +0.066 S 
ATOM     10  O   UNL     1      35.649 -19.036 -22.680  0.00  0.00    -0.152 OA
ATOM     11  O   UNL     1      35.952 -17.458 -20.729  0.00  0.00    -0.152 OA
BRANCH   9  14
ATOM     12  S   UNL     1      34.210 -15.327 -21.771  0.00  0.00    -0.066 S 
ATOM     13  N   UNL     1      33.239 -14.891 -25.513  0.00  0.00    -0.243 NA
ATOM     14  C   UNL     1      34.457 -16.738 -22.674  0.00  0.00    +0.153 C 
ATOM     15  C   UNL     1      34.131 -16.625 -23.982  0.00  0.00    +0.046 C 
ATOM     16  C   UNL     1      33.648 -15.317 -24.286  0.00  0.00    +0.089 C 
ATOM     17  C   UNL     1      33.636 -14.492 -23.159  0.00  0.00    +0.048 C 
ATOM     18  C   UNL     1      33.191 -13.166 -23.265  0.00  0.00    +0.010 C 
ATOM     19  C   UNL     1      32.774 -12.726 -24.515  0.00  0.00    +0.021 C 
ATOM     20  C   UNL     1      32.819 -13.611 -25.576  0.00  0.00    +0.099 C 
ENDBRANCH   9  14
ENDBRANCH   7   9
ENDBRANCH   3   7
BRANCH   2  21
ATOM     21  C   UNL     1      32.860 -22.196 -17.588  0.00  0.00    +0.135 C 
BRANCH  21  24
ATOM     22  N   UNL     1      33.697 -23.714 -15.813  0.00  0.00    -0.313 N 
ATOM     23  N   UNL     1      36.207 -24.798 -13.333  0.00  0.00    -0.241 NA
ATOM     24  C   UNL     1      33.898 -22.617 -16.584  0.00  0.00    +0.046 C 
ATOM     25  C   UNL     1      35.096 -22.054 -16.285  0.00  0.00    +0.013 C 
ATOM     26  C   UNL     1      35.681 -22.852 -15.260  0.00  0.00    +0.017 C 
ATOM     27  C   UNL     1      34.782 -23.884 -14.986  0.00  0.00    +0.068 C 
ATOM     28  C   UNL     1      36.883 -22.798 -14.542  0.00  0.00    +0.022 C 
ATOM     29  C   UNL     1      35.044 -24.853 -14.026  0.00  0.00    +0.113 C 
ATOM     30  C   UNL     1      37.077 -23.798 -13.598  0.00  0.00    +0.099 C 
ATOM     31  H   UNL     1      32.902 -24.294 -15.841  0.00  0.00    +0.152 HD
ENDBRANCH  21  24
ENDBRANCH   2  21
TORSDOF 5
ENDMDL
MODEL 6
REMARK VINA RESULT:     -11.4      1.449      2.198
REMARK  Name = 445481
REMARK  5 active torsions:
REMARK  status: ('A' for Active; 'I' for Inactive)
REMARK    1  A    between atoms: N_2  and  C_21
REMARK    2  A    between atoms: C_3  and  N_7
REMARK    3  A    between atoms: N_7  and  S_9
REMARK    4  A    between atoms: S_9  and  C_14
REMARK    5  A    between atoms: C_21  and  C_24
REMARK                            x       y       z     vdW  Elec       q    Type
REMARK                         _______ _______ _______ _____ _____    ______ ____
ROOT
ATOM      1  O   UNL     1      36.089 -19.376 -19.831  0.00  0.00    -0.273 OA
ATOM      2  N   UNL     1      34.760 -18.487 -21.557  0.00  0.00    -0.273 N 
ATOM      3  C   UNL     1      34.011 -20.433 -20.517  0.00  0.00    +0.153 C 
ATOM      4  C   UNL     1      32.849 -19.764 -21.244  0.00  0.00    +0.048 C 
ATOM      5  C   UNL     1      33.534 -18.840 -22.233  0.00  0.00    +0.096 C 
ATOM      6  C   UNL     1      35.097 -19.387 -20.546  0.00  0.00    +0.242 C 
ENDROOT
BRANCH   3   7
ATOM      7  N   UNL     1      33.660 -20.734 -19.125  0.00  0.00    -0.171 NA
ATOM      8  H   UNL     1      34.059 -19.995 -18.546  0.00  0.00    +0.149 HD
BRANCH   7   9
ATOM      9  S   UNL     1      34.175 -22.231 -18.467  0.00  0.00    +0.066 S 
ATOM     10  O   UNL     1      35.536 -22.097 -17.985  0.00  0.00    -0.152 OA
ATOM     11  O   UNL     1      33.796 -23.302 -19.369  0.00  0.00    -0.152 OA
BRANCH   9  14
ATOM     12  S   UNL     1      31.542 -22.149 -17.209  0.00  0.00    -0.066 S 
ATOM     13  N   UNL     1      32.327 -23.515 -13.652  0.00  0.00    -0.243 NA
ATOM     14  C   UNL     1      33.179 -22.536 -17.008  0.00  0.00    +0.153 C 
ATOM     15  C   UNL     1      33.491 -23.014 -15.782  0.00  0.00    +0.046 C 
ATOM     16  C   UNL     1      32.339 -23.078 -14.941  0.00  0.00    +0.089 C 
ATOM     17  C   UNL     1      31.191 -22.630 -15.597  0.00  0.00    +0.048 C 
ATOM     18  C   UNL     1      29.959 -22.620 -14.927  0.00  0.00    +0.010 C 
ATOM     19  C   UNL     1      29.940 -23.065 -13.611  0.00  0.00    +0.021 C 
ATOM     20  C   UNL     1      31.125 -23.490 -13.040  0.00  0.00    +0.099 C 
ENDBRANCH   9  14
ENDBRANCH   7   9
ENDBRANCH   3   7
BRANCH   2  21
ATOM     21  C   UNL     1      35.579 -17.381 -22.002  0.00  0.00    +0.135 C 
BRANCH  21  24
ATOM     22  N   UNL     1      34.526 -15.481 -23.200  0.00  0.00    -0.313 N 
ATOM     23  N   UNL     1      32.569 -12.354 -23.323  0.00  0.00    -0.241 NA
ATOM     24  C   UNL     1      34.779 -16.107 -22.025  0.00  0.00    +0.046 C 
ATOM     25  C   UNL     1      34.219 -15.413 -21.001  0.00  0.00    +0.013 C 
ATOM     26  C   UNL     1      33.575 -14.281 -21.576  0.00  0.00    +0.017 C 
ATOM     27  C   UNL     1      33.783 -14.350 -22.954  0.00  0.00    +0.068 C 
ATOM     28  C   UNL     1      32.836 -13.207 -21.061  0.00  0.00    +0.022 C 
ATOM     29  C   UNL     1      33.282 -13.390 -23.824  0.00  0.00    +0.113 C 
ATOM     30  C   UNL     1      32.367 -12.286 -21.988  0.00  0.00    +0.099 C 
ATOM     31  H   UNL     1      34.826 -15.786 -24.086  0.00  0.00    +0.152 HD
ENDBRANCH  21  24
ENDBRANCH   2  21
TORSDOF 5
ENDMDL
MODEL 7
REMARK VINA RESULT:     -10.9      2.062      2.580
REMARK  Name = 445481
REMARK  5 active torsions:
REMARK  status: ('A' for Active; 'I' for Inactive)
REMARK    1  A    between atoms: N_2  and  C_21
REMARK    2  A    between atoms: C_3  and  N_7
REMARK    3  A    between atoms: N_7  and  S_9
REMARK    4  A    between atoms: S_9  and  C_14
REMARK    5  A    between atoms: C_21  and  C_24
REMARK                            x       y       z     vdW  Elec       q    Type
REMARK                         _______ _______ _______ _____ _____    ______ ____
ROOT
ATOM      1  O   UNL     1      32.490 -19.384 -21.866  0.00  0.00    -0.273 OA
ATOM      2  N   UNL     1      34.825 -19.093 -21.826  0.00  0.00    -0.273 N 
ATOM      3  C   UNL     1      33.819 -19.977 -19.918  0.00  0.00    +0.153 C 
ATOM      4  C   UNL     1      35.311 -20.289 -19.900  0.00  0.00    +0.048 C 
ATOM      5  C   UNL     1      35.896 -19.290 -20.879  0.00  0.00    +0.096 C 
ATOM      6  C   UNL     1      33.581 -19.469 -21.319  0.00  0.00    +0.242 C 
ENDROOT
BRANCH   3   7
ATOM      7  N   UNL     1      33.022 -21.188 -19.696  0.00  0.00    -0.171 NA
ATOM      8  H   UNL     1      32.155 -20.901 -19.242  0.00  0.00    +0.149 HD
BRANCH   7   9
ATOM      9  S   UNL     1      33.704 -22.440 -18.744  0.00  0.00    +0.066 S 
ATOM     10  O   UNL     1      35.012 -22.025 -18.275  0.00  0.00    -0.152 OA
ATOM     11  O   UNL     1      33.515 -23.709 -19.422  0.00  0.00    -0.152 OA
BRANCH   9  14
ATOM     12  S   UNL     1      33.560 -23.077 -15.900  0.00  0.00    -0.066 S 
ATOM     13  N   UNL     1      29.779 -22.538 -15.163  0.00  0.00    -0.243 NA
ATOM     14  C   UNL     1      32.694 -22.593 -17.272  0.00  0.00    +0.153 C 
ATOM     15  C   UNL     1      31.373 -22.395 -17.055  0.00  0.00    +0.046 C 
ATOM     16  C   UNL     1      31.027 -22.648 -15.693  0.00  0.00    +0.089 C 
ATOM     17  C   UNL     1      32.136 -23.034 -14.938  0.00  0.00    +0.048 C 
ATOM     18  C   UNL     1      31.989 -23.325 -13.574  0.00  0.00    +0.010 C 
ATOM     19  C   UNL     1      30.717 -23.213 -13.027  0.00  0.00    +0.021 C 
ATOM     20  C   UNL     1      29.676 -22.825 -13.849  0.00  0.00    +0.099 C 
ENDBRANCH   9  14
ENDBRANCH   7   9
ENDBRANCH   3   7
BRANCH   2  21
ATOM     21  C   UNL     1      35.050 -18.453 -23.103  0.00  0.00    +0.135 C 
BRANCH  21  24
ATOM     22  N   UNL     1      34.017 -16.463 -24.165  0.00  0.00    -0.313 N 
ATOM     23  N   UNL     1      32.844 -12.964 -24.141  0.00  0.00    -0.241 NA
ATOM     24  C   UNL     1      34.580 -17.024 -23.068  0.00  0.00    +0.046 C 
ATOM     25  C   UNL     1      34.621 -16.120 -22.056  0.00  0.00    +0.013 C 
ATOM     26  C   UNL     1      34.045 -14.918 -22.555  0.00  0.00    +0.017 C 
ATOM     27  C   UNL     1      33.676 -15.162 -23.878  0.00  0.00    +0.068 C 
ATOM     28  C   UNL     1      33.802 -13.649 -22.013  0.00  0.00    +0.022 C 
ATOM     29  C   UNL     1      33.078 -14.189 -24.668  0.00  0.00    +0.113 C 
ATOM     30  C   UNL     1      33.202 -12.726 -22.859  0.00  0.00    +0.099 C 
ATOM     31  H   UNL     1      33.876 -16.914 -25.029  0.00  0.00    +0.152 HD
ENDBRANCH  21  24
ENDBRANCH   2  21
TORSDOF 5
ENDMDL
MODEL 8
REMARK VINA RESULT:     -10.8      5.542     11.771
REMARK  Name = 445481
REMARK  5 active torsions:
REMARK  status: ('A' for Active; 'I' for Inactive)
REMARK    1  A    between atoms: N_2  and  C_21
REMARK    2  A    between atoms: C_3  and  N_7
REMARK    3  A    between atoms: N_7  and  S_9
REMARK    4  A    between atoms: S_9  and  C_14
REMARK    5  A    between atoms: C_21  and  C_24
REMARK                            x       y       z     vdW  Elec       q    Type
REMARK                         _______ _______ _______ _____ _____    ______ ____
ROOT
ATOM      1  O   UNL     1      33.071 -13.613 -24.330  0.00  0.00    -0.273 OA
ATOM      2  N   UNL     1      33.889 -14.934 -22.563  0.00  0.00    -0.273 N 
ATOM      3  C   UNL     1      32.956 -12.869 -22.020  0.00  0.00    +0.153 C 
ATOM      4  C   UNL     1      32.994 -13.755 -20.778  0.00  0.00    +0.048 C 
ATOM      5  C   UNL     1      34.018 -14.816 -21.130  0.00  0.00    +0.096 C 
ATOM      6  C   UNL     1      33.281 -13.821 -23.144  0.00  0.00    +0.242 C 
ENDROOT
BRANCH   3   7
ATOM      7  N   UNL     1      31.617 -12.307 -22.227  0.00  0.00    -0.171 NA
ATOM      8  H   UNL     1      31.571 -11.985 -23.194  0.00  0.00    +0.149 HD
BRANCH   7   9
ATOM      9  S   UNL     1      31.125 -11.001 -21.232  0.00  0.00    +0.066 S 
ATOM     10  O   UNL     1      31.735 -11.142 -19.924  0.00  0.00    -0.152 OA
ATOM     11  O   UNL     1      29.696 -10.802 -21.380  0.00  0.00    -0.152 OA
BRANCH   9  14
ATOM     12  S   UNL     1      31.476  -8.109 -21.049  0.00  0.00    -0.066 S 
ATOM     13  N   UNL     1      33.670  -7.382 -24.178  0.00  0.00    -0.243 NA
ATOM     14  C   UNL     1      31.833  -9.510 -21.931  0.00  0.00    +0.153 C 
ATOM     15  C   UNL     1      32.596  -9.297 -23.028  0.00  0.00    +0.046 C 
ATOM     16  C   UNL     1      32.919  -7.915 -23.175  0.00  0.00    +0.089 C 
ATOM     17  C   UNL     1      32.367  -7.140 -22.154  0.00  0.00    +0.048 C 
ATOM     18  C   UNL     1      32.579  -5.754 -22.132  0.00  0.00    +0.010 C 
ATOM     19  C   UNL     1      33.345  -5.205 -23.153  0.00  0.00    +0.021 C 
ATOM     20  C   UNL     1      33.853  -6.047 -24.124  0.00  0.00    +0.099 C 
ENDBRANCH   9  14
ENDBRANCH   7   9
ENDBRANCH   3   7
BRANCH   2  21
ATOM     21  C   UNL     1      34.458 -16.050 -23.286  0.00  0.00    +0.135 C 
BRANCH  21  24
ATOM     22  N   UNL     1      33.726 -18.036 -21.992  0.00  0.00    -0.313 N 
ATOM     23  N   UNL     1      34.328 -20.873 -19.709  0.00  0.00    -0.241 NA
ATOM     24  C   UNL     1      34.729 -17.199 -22.355  0.00  0.00    +0.046 C 
ATOM     25  C   UNL     1      35.888 -17.583 -21.762  0.00  0.00    +0.013 C 
ATOM     26  C   UNL     1      35.589 -18.734 -20.979  0.00  0.00    +0.017 C 
ATOM     27  C   UNL     1      34.227 -18.994 -21.142  0.00  0.00    +0.068 C 
ATOM     28  C   UNL     1      36.339 -19.578 -20.149  0.00  0.00    +0.022 C 
ATOM     29  C   UNL     1      33.599 -20.060 -20.510  0.00  0.00    +0.113 C 
ATOM     30  C   UNL     1      35.646 -20.622 -19.549  0.00  0.00    +0.099 C 
ATOM     31  H   UNL     1      32.790 -17.967 -22.288  0.00  0.00    +0.152 HD
ENDBRANCH  21  24
ENDBRANCH   2  21
TORSDOF 5
ENDMDL
MODEL 9
REMARK VINA RESULT:     -10.7      3.212      5.592
REMARK  Name = 445481
REMARK  5 active torsions:
REMARK  status: ('A' for Active; 'I' for Inactive)
REMARK    1  A    between atoms: N_2  and  C_21
REMARK    2  A    between atoms: C_3  and  N_7
REMARK    3  A    between atoms: N_7  and  S_9
REMARK    4  A    between atoms: S_9  and  C_14
REMARK    5  A    between atoms: C_21  and  C_24
REMARK                            x       y       z     vdW  Elec       q    Type
REMARK                         _______ _______ _______ _____ _____    ______ ____
ROOT
ATOM      1  O   UNL     1      33.380 -13.892 -20.641  0.00  0.00    -0.273 OA
ATOM      2  N   UNL     1      32.759 -13.743 -22.906  0.00  0.00    -0.273 N 
ATOM      3  C   UNL     1      34.501 -15.193 -22.361  0.00  0.00    +0.153 C 
ATOM      4  C   UNL     1      33.939 -15.562 -23.729  0.00  0.00    +0.048 C 
ATOM      5  C   UNL     1      33.197 -14.311 -24.159  0.00  0.00    +0.096 C 
ATOM      6  C   UNL     1      33.491 -14.214 -21.815  0.00  0.00    +0.242 C 
ENDROOT
BRANCH   3   7
ATOM      7  N   UNL     1      34.568 -16.366 -21.483  0.00  0.00    -0.171 NA
ATOM      8  H   UNL     1      35.326 -16.204 -20.819  0.00  0.00    +0.149 HD
BRANCH   7   9
ATOM      9  S   UNL     1      34.840 -17.899 -22.201  0.00  0.00    +0.066 S 
ATOM     10  O   UNL     1      36.264 -18.086 -22.402  0.00  0.00    -0.152 OA
ATOM     11  O   UNL     1      33.895 -18.090 -23.285  0.00  0.00    -0.152 OA
BRANCH   9  14
ATOM     12  S   UNL     1      35.666 -19.817 -20.162  0.00  0.00    -0.066 S 
ATOM     13  N   UNL     1      32.247 -21.299 -19.045  0.00  0.00    -0.243 NA
ATOM     14  C   UNL     1      34.359 -19.137 -20.999  0.00  0.00    +0.153 C 
ATOM     15  C   UNL     1      33.152 -19.628 -20.637  0.00  0.00    +0.046 C 
ATOM     16  C   UNL     1      33.279 -20.620 -19.618  0.00  0.00    +0.089 C 
ATOM     17  C   UNL     1      34.611 -20.827 -19.257  0.00  0.00    +0.048 C 
ATOM     18  C   UNL     1      34.932 -21.768 -18.267  0.00  0.00    +0.010 C 
ATOM     19  C   UNL     1      33.883 -22.464 -17.679  0.00  0.00    +0.021 C 
ATOM     20  C   UNL     1      32.593 -22.195 -18.098  0.00  0.00    +0.099 C 
ENDBRANCH   9  14
ENDBRANCH   7   9
ENDBRANCH   3   7
BRANCH   2  21
ATOM     21  C   UNL     1      31.752 -12.706 -22.854  0.00  0.00    +0.135 C 
BRANCH  21  24
ATOM     22  N   UNL     1      31.764 -10.249 -22.516  0.00  0.00    -0.313 N 
ATOM     23  N   UNL     1      33.262  -6.893 -22.861  0.00  0.00    -0.241 NA
ATOM     24  C   UNL     1      32.383 -11.350 -23.007  0.00  0.00    +0.046 C 
ATOM     25  C   UNL     1      33.555 -10.997 -23.596  0.00  0.00    +0.013 C 
ATOM     26  C   UNL     1      33.674  -9.585 -23.463  0.00  0.00    +0.017 C 
ATOM     27  C   UNL     1      32.538  -9.143 -22.782  0.00  0.00    +0.068 C 
ATOM     28  C   UNL     1      34.633  -8.641 -23.853  0.00  0.00    +0.022 C 
ATOM     29  C   UNL     1      32.333  -7.803 -22.483  0.00  0.00    +0.113 C 
ATOM     30  C   UNL     1      34.362  -7.320 -23.520  0.00  0.00    +0.099 C 
ATOM     31  H   UNL     1      30.900 -10.242 -22.046  0.00  0.00    +0.152 HD
ENDBRANCH  21  24
ENDBRANCH   2  21
TORSDOF 5
ENDMDL
