MODEL 1
REMARK VINA RESULT:     -13.1      0.000      0.000
REMARK  Name = 11978813
REMARK  7 active torsions:
REMARK  status: ('A' for Active; 'I' for Inactive)
REMARK    1  A    between atoms: C_1  and  N_2
REMARK    2  A    between atoms: C_1  and  C_18
REMARK    3  A    between atoms: N_3  and  C_10
REMARK    4  A    between atoms: C_18  and  C_19
REMARK    5  A    between atoms: C_19  and  C_20
REMARK    6  A    between atoms: C_20  and  O_21
REMARK    7  A    between atoms: O_21  and  C_24
REMARK                            x       y       z     vdW  Elec       q    Type
REMARK                         _______ _______ _______ _____ _____    ______ ____
ROOT
ATOM      1  C   UNL     1      32.664 -13.600 -22.889  0.00  0.00    -0.077 C 
ENDROOT
BRANCH   1   2
ATOM      2  N   UNL     1      32.109 -12.248 -22.849  0.00  0.00    +0.389 N 
ATOM      3  N   UNL     1      31.855  -9.559 -21.919  0.00  0.00    -0.312 N 
ATOM      4  C   UNL     1      31.522 -11.971 -21.533  0.00  0.00    -0.055 C 
ATOM      5  C   UNL     1      33.147 -11.256 -23.153  0.00  0.00    -0.055 C 
ATOM      6  C   UNL     1      30.887 -10.579 -21.497  0.00  0.00    +0.068 C 
ATOM      7  C   UNL     1      32.567  -9.840 -23.171  0.00  0.00    +0.068 C 
ATOM      8  H   UNL     1      31.376 -12.185 -23.556  0.00  0.00    -0.080 HD
BRANCH   3  10
ATOM      9  S   UNL     1      30.487  -4.886 -23.292  0.00  0.00    -0.086 S 
ATOM     10  C   UNL     1      31.625  -8.234 -21.534  0.00  0.00    +0.048 C 
ATOM     11  C   UNL     1      31.202  -7.229 -22.463  0.00  0.00    +0.020 C 
ATOM     12  C   UNL     1      31.814  -7.860 -20.185  0.00  0.00    +0.015 C 
ATOM     13  C   UNL     1      30.991  -5.923 -22.010  0.00  0.00    +0.031 C 
ATOM     14  C   UNL     1      30.940  -7.338 -23.870  0.00  0.00    +0.009 C 
ATOM     15  C   UNL     1      31.599  -6.556 -19.758  0.00  0.00    +0.002 C 
ATOM     16  C   UNL     1      31.185  -5.572 -20.659  0.00  0.00    +0.007 C 
ATOM     17  C   UNL     1      30.547  -6.149 -24.435  0.00  0.00    +0.035 C 
ENDBRANCH   3  10
ENDBRANCH   1   2
BRANCH   1  18
ATOM     18  C   UNL     1      33.720 -13.774 -21.798  0.00  0.00    -0.019 C 
BRANCH  18  19
ATOM     19  C   UNL     1      34.148 -15.235 -21.671  0.00  0.00    +0.045 C 
BRANCH  19  20
ATOM     20  C   UNL     1      34.860 -15.722 -22.926  0.00  0.00    +0.205 C 
BRANCH  20  21
ATOM     21  O   UNL     1      34.501 -17.072 -23.189  0.00  0.00    -0.475 OA
BRANCH  21  24
ATOM     22  O   UNL     1      32.322 -22.072 -18.621  0.00  0.00    -0.270 OA
ATOM     23  N   UNL     1      33.010 -20.450 -20.104  0.00  0.00    -0.280 N 
ATOM     24  C   UNL     1      34.779 -17.989 -22.208  0.00  0.00    +0.140 C 
ATOM     25  C   UNL     1      33.748 -18.744 -21.664  0.00  0.00    +0.052 C 
ATOM     26  C   UNL     1      34.042 -19.677 -20.665  0.00  0.00    +0.054 C 
ATOM     27  C   UNL     1      36.090 -18.150 -21.772  0.00  0.00    +0.037 C 
ATOM     28  C   UNL     1      35.355 -19.851 -20.215  0.00  0.00    +0.014 C 
ATOM     29  C   UNL     1      36.381 -19.083 -20.774  0.00  0.00    +0.004 C 
ATOM     30  C   UNL     1      35.619 -20.837 -19.170  0.00  0.00    +0.006 C 
ATOM     31  C   UNL     1      33.219 -21.392 -19.115  0.00  0.00    +0.250 C 
ATOM     32  C   UNL     1      34.621 -21.562 -18.649  0.00  0.00    +0.058 C 
ATOM     33  H   UNL     1      32.091 -20.314 -20.432  0.00  0.00    +0.155 HD
ENDBRANCH  21  24
ENDBRANCH  20  21
ENDBRANCH  19  20
ENDBRANCH  18  19
ENDBRANCH   1  18
TORSDOF 7
ENDMDL
MODEL 2
REMARK VINA RESULT:     -13.1      0.818      1.799
REMARK  Name = 11978813
REMARK  7 active torsions:
REMARK  status: ('A' for Active; 'I' for Inactive)
REMARK    1  A    between atoms: C_1  and  N_2
REMARK    2  A    between atoms: C_1  and  C_18
REMARK    3  A    between atoms: N_3  and  C_10
REMARK    4  A    between atoms: C_18  and  C_19
REMARK    5  A    between atoms: C_19  and  C_20
REMARK    6  A    between atoms: C_20  and  O_21
REMARK    7  A    between atoms: O_21  and  C_24
REMARK                            x       y       z     vdW  Elec       q    Type
REMARK                         _______ _______ _______ _____ _____    ______ ____
ROOT
ATOM      1  C   UNL     1      32.346 -13.637 -20.953  0.00  0.00    -0.077 C 
ENDROOT
BRANCH   1   2
ATOM      2  N   UNL     1      31.803 -12.461 -21.630  0.00  0.00    +0.389 N 
ATOM      3  N   UNL     1      31.594  -9.685 -22.271  0.00  0.00    -0.312 N 
ATOM      4  C   UNL     1      31.253 -11.513 -20.653  0.00  0.00    -0.055 C 
ATOM      5  C   UNL     1      32.840 -11.804 -22.434  0.00  0.00    -0.055 C 
ATOM      6  C   UNL     1      30.629 -10.303 -21.353  0.00  0.00    +0.068 C 
ATOM      7  C   UNL     1      32.271 -10.603 -23.193  0.00  0.00    +0.068 C 
ATOM      8  H   UNL     1      31.052 -12.769 -22.249  0.00  0.00    -0.080 HD
BRANCH   3  10
ATOM      9  S   UNL     1      31.637  -4.808 -20.926  0.00  0.00    -0.086 S 
ATOM     10  C   UNL     1      31.385  -8.353 -22.647  0.00  0.00    +0.048 C 
ATOM     11  C   UNL     1      31.576  -7.263 -21.737  0.00  0.00    +0.020 C 
ATOM     12  C   UNL     1      30.971  -8.060 -23.965  0.00  0.00    +0.015 C 
ATOM     13  C   UNL     1      31.348  -5.955 -22.180  0.00  0.00    +0.031 C 
ATOM     14  C   UNL     1      31.986  -7.280 -20.363  0.00  0.00    +0.009 C 
ATOM     15  C   UNL     1      30.751  -6.754 -24.381  0.00  0.00    +0.002 C 
ATOM     16  C   UNL     1      30.935  -5.686 -23.500  0.00  0.00    +0.007 C 
ATOM     17  C   UNL     1      32.059  -6.025 -19.810  0.00  0.00    +0.035 C 
ENDBRANCH   3  10
ENDBRANCH   1   2
BRANCH   1  18
ATOM     18  C   UNL     1      33.818 -13.827 -21.315  0.00  0.00    -0.019 C 
BRANCH  18  19
ATOM     19  C   UNL     1      34.163 -15.307 -21.471  0.00  0.00    +0.045 C 
BRANCH  19  20
ATOM     20  C   UNL     1      34.752 -15.605 -22.843  0.00  0.00    +0.205 C 
BRANCH  20  21
ATOM     21  O   UNL     1      34.514 -16.964 -23.185  0.00  0.00    -0.475 OA
BRANCH  21  24
ATOM     22  O   UNL     1      32.339 -22.039 -18.699  0.00  0.00    -0.270 OA
ATOM     23  N   UNL     1      33.026 -20.393 -20.155  0.00  0.00    -0.280 N 
ATOM     24  C   UNL     1      34.794 -17.901 -22.224  0.00  0.00    +0.140 C 
ATOM     25  C   UNL     1      33.763 -18.661 -21.686  0.00  0.00    +0.052 C 
ATOM     26  C   UNL     1      34.058 -19.615 -20.709  0.00  0.00    +0.054 C 
ATOM     27  C   UNL     1      36.107 -18.078 -21.800  0.00  0.00    +0.037 C 
ATOM     28  C   UNL     1      35.373 -19.805 -20.271  0.00  0.00    +0.014 C 
ATOM     29  C   UNL     1      36.400 -19.032 -20.822  0.00  0.00    +0.004 C 
ATOM     30  C   UNL     1      35.639 -20.812 -19.247  0.00  0.00    +0.006 C 
ATOM     31  C   UNL     1      33.236 -21.355 -19.186  0.00  0.00    +0.250 C 
ATOM     32  C   UNL     1      34.641 -21.542 -18.734  0.00  0.00    +0.058 C 
ATOM     33  H   UNL     1      32.105 -20.245 -20.474  0.00  0.00    +0.155 HD
ENDBRANCH  21  24
ENDBRANCH  20  21
ENDBRANCH  19  20
ENDBRANCH  18  19
ENDBRANCH   1  18
TORSDOF 7
ENDMDL
MODEL 3
REMARK VINA RESULT:     -13.0      5.326      8.613
REMARK  Name = 11978813
REMARK  7 active torsions:
REMARK  status: ('A' for Active; 'I' for Inactive)
REMARK    1  A    between atoms: C_1  and  N_2
REMARK    2  A    between atoms: C_1  and  C_18
REMARK    3  A    between atoms: N_3  and  C_10
REMARK    4  A    between atoms: C_18  and  C_19
REMARK    5  A    between atoms: C_19  and  C_20
REMARK    6  A    between atoms: C_20  and  O_21
REMARK    7  A    between atoms: O_21  and  C_24
REMARK                            x       y       z     vdW  Elec       q    Type
REMARK                         _______ _______ _______ _____ _____    ______ ____
ROOT
ATOM      1  C   UNL     1      35.435 -21.274 -18.953  0.00  0.00    -0.077 C 
ENDROOT
BRANCH   1   2
ATOM      2  N   UNL     1      35.307 -20.441 -20.148  0.00  0.00    +0.389 N 
ATOM      3  N   UNL     1      34.680 -18.078 -21.625  0.00  0.00    -0.312 N 
ATOM      4  C   UNL     1      33.909 -20.039 -20.348  0.00  0.00    -0.055 C 
ATOM      5  C   UNL     1      36.158 -19.251 -20.041  0.00  0.00    -0.055 C 
ATOM      6  C   UNL     1      33.752 -19.215 -21.628  0.00  0.00    +0.068 C 
ATOM      7  C   UNL     1      36.076 -18.399 -21.310  0.00  0.00    +0.068 C 
ATOM      8  H   UNL     1      35.609 -20.991 -20.953  0.00  0.00    -0.080 HD
BRANCH   3  10
ATOM      9  S   UNL     1      33.573 -13.155 -21.981  0.00  0.00    -0.086 S 
ATOM     10  C   UNL     1      34.389 -16.989 -22.454  0.00  0.00    +0.048 C 
ATOM     11  C   UNL     1      34.132 -15.679 -21.935  0.00  0.00    +0.020 C 
ATOM     12  C   UNL     1      34.343 -17.173 -23.854  0.00  0.00    +0.015 C 
ATOM     13  C   UNL     1      33.847 -14.635 -22.821  0.00  0.00    +0.031 C 
ATOM     14  C   UNL     1      34.116 -15.223 -20.574  0.00  0.00    +0.009 C 
ATOM     15  C   UNL     1      34.058 -16.122 -24.714  0.00  0.00    +0.002 C 
ATOM     16  C   UNL     1      33.806 -14.842 -24.214  0.00  0.00    +0.007 C 
ATOM     17  C   UNL     1      33.827 -13.884 -20.462  0.00  0.00    +0.035 C 
ENDBRANCH   3  10
ENDBRANCH   1   2
BRANCH   1  18
ATOM     18  C   UNL     1      36.367 -20.610 -17.940  0.00  0.00    -0.019 C 
BRANCH  18  19
ATOM     19  C   UNL     1      36.816 -21.602 -16.869  0.00  0.00    +0.045 C 
BRANCH  19  20
ATOM     20  C   UNL     1      35.716 -21.864 -15.850  0.00  0.00    +0.205 C 
BRANCH  20  21
ATOM     21  O   UNL     1      35.005 -23.044 -16.201  0.00  0.00    -0.475 OA
BRANCH  21  24
ATOM     22  O   UNL     1      28.002 -22.010 -16.919  0.00  0.00    -0.270 OA
ATOM     23  N   UNL     1      30.271 -22.335 -16.702  0.00  0.00    -0.280 N 
ATOM     24  C   UNL     1      33.729 -23.165 -15.714  0.00  0.00    +0.140 C 
ATOM     25  C   UNL     1      32.660 -22.686 -16.462  0.00  0.00    +0.052 C 
ATOM     26  C   UNL     1      31.364 -22.815 -15.957  0.00  0.00    +0.054 C 
ATOM     27  C   UNL     1      33.521 -23.767 -14.477  0.00  0.00    +0.037 C 
ATOM     28  C   UNL     1      31.138 -23.417 -14.715  0.00  0.00    +0.014 C 
ATOM     29  C   UNL     1      32.224 -23.895 -13.975  0.00  0.00    +0.004 C 
ATOM     30  C   UNL     1      29.767 -23.533 -14.224  0.00  0.00    +0.006 C 
ATOM     31  C   UNL     1      28.962 -22.426 -16.273  0.00  0.00    +0.250 C 
ATOM     32  C   UNL     1      28.742 -23.070 -14.949  0.00  0.00    +0.058 C 
ATOM     33  H   UNL     1      30.449 -21.913 -17.574  0.00  0.00    +0.155 HD
ENDBRANCH  21  24
ENDBRANCH  20  21
ENDBRANCH  19  20
ENDBRANCH  18  19
ENDBRANCH   1  18
TORSDOF 7
ENDMDL
MODEL 4
REMARK VINA RESULT:     -12.8      5.847     13.190
REMARK  Name = 11978813
REMARK  7 active torsions:
REMARK  status: ('A' for Active; 'I' for Inactive)
REMARK    1  A    between atoms: C_1  and  N_2
REMARK    2  A    between atoms: C_1  and  C_18
REMARK    3  A    between atoms: N_3  and  C_10
REMARK    4  A    between atoms: C_18  and  C_19
REMARK    5  A    between atoms: C_19  and  C_20
REMARK    6  A    between atoms: C_20  and  O_21
REMARK    7  A    between atoms: O_21  and  C_24
REMARK                            x       y       z     vdW  Elec       q    Type
REMARK                         _______ _______ _______ _____ _____    ______ ____
ROOT
ATOM      1  C   UNL     1      34.935 -20.957 -19.864  0.00  0.00    -0.077 C 
ENDROOT
BRANCH   1   2
ATOM      2  N   UNL     1      34.839 -21.168 -18.420  0.00  0.00    +0.389 N 
ATOM      3  N   UNL     1      35.155 -22.593 -15.965  0.00  0.00    -0.312 N 
ATOM      4  C   UNL     1      33.996 -22.332 -18.124  0.00  0.00    -0.055 C 
ATOM      5  C   UNL     1      36.172 -21.355 -17.836  0.00  0.00    -0.055 C 
ATOM      6  C   UNL     1      33.840 -22.528 -16.614  0.00  0.00    +0.068 C 
ATOM      7  C   UNL     1      36.090 -21.520 -16.317  0.00  0.00    +0.068 C 
ATOM      8  H   UNL     1      34.412 -20.338 -18.006  0.00  0.00    -0.080 HD
BRANCH   3  10
ATOM      9  S   UNL     1      37.993 -25.107 -12.616  0.00  0.00    -0.086 S 
ATOM     10  C   UNL     1      35.239 -23.202 -14.708  0.00  0.00    +0.048 C 
ATOM     11  C   UNL     1      36.440 -23.828 -14.239  0.00  0.00    +0.020 C 
ATOM     12  C   UNL     1      34.109 -23.208 -13.862  0.00  0.00    +0.015 C 
ATOM     13  C   UNL     1      36.453 -24.418 -12.971  0.00  0.00    +0.031 C 
ATOM     14  C   UNL     1      37.713 -23.962 -14.887  0.00  0.00    +0.009 C 
ATOM     15  C   UNL     1      34.146 -23.801 -12.607  0.00  0.00    +0.002 C 
ATOM     16  C   UNL     1      35.313 -24.412 -12.144  0.00  0.00    +0.007 C 
ATOM     17  C   UNL     1      38.636 -24.631 -14.120  0.00  0.00    +0.035 C 
ENDBRANCH   3  10
ENDBRANCH   1   2
BRANCH   1  18
ATOM     18  C   UNL     1      33.933 -19.895 -20.314  0.00  0.00    -0.019 C 
BRANCH  18  19
ATOM     19  C   UNL     1      34.384 -19.224 -21.610  0.00  0.00    +0.045 C 
BRANCH  19  20
ATOM     20  C   UNL     1      35.554 -18.277 -21.376  0.00  0.00    +0.205 C 
BRANCH  20  21
ATOM     21  O   UNL     1      35.144 -17.203 -20.540  0.00  0.00    -0.475 OA
BRANCH  21  24
ATOM     22  O   UNL     1      33.040 -13.885 -26.471  0.00  0.00    -0.270 OA
ATOM     23  N   UNL     1      33.729 -14.972 -24.562  0.00  0.00    -0.280 N 
ATOM     24  C   UNL     1      34.555 -16.130 -21.156  0.00  0.00    +0.140 C 
ATOM     25  C   UNL     1      34.449 -16.108 -22.541  0.00  0.00    +0.052 C 
ATOM     26  C   UNL     1      33.845 -15.010 -23.160  0.00  0.00    +0.054 C 
ATOM     27  C   UNL     1      34.071 -15.078 -20.386  0.00  0.00    +0.037 C 
ATOM     28  C   UNL     1      33.354 -13.943 -22.400  0.00  0.00    +0.014 C 
ATOM     29  C   UNL     1      33.468 -13.981 -21.007  0.00  0.00    +0.004 C 
ATOM     30  C   UNL     1      32.730 -12.814 -23.086  0.00  0.00    +0.006 C 
ATOM     31  C   UNL     1      33.146 -13.924 -25.247  0.00  0.00    +0.250 C 
ATOM     32  C   UNL     1      32.630 -12.799 -24.421  0.00  0.00    +0.058 C 
ATOM     33  H   UNL     1      34.082 -15.731 -25.081  0.00  0.00    +0.155 HD
ENDBRANCH  21  24
ENDBRANCH  20  21
ENDBRANCH  19  20
ENDBRANCH  18  19
ENDBRANCH   1  18
TORSDOF 7
ENDMDL
MODEL 5
REMARK VINA RESULT:     -12.8      4.991      8.572
REMARK  Name = 11978813
REMARK  7 active torsions:
REMARK  status: ('A' for Active; 'I' for Inactive)
REMARK    1  A    between atoms: C_1  and  N_2
REMARK    2  A    between atoms: C_1  and  C_18
REMARK    3  A    between atoms: N_3  and  C_10
REMARK    4  A    between atoms: C_18  and  C_19
REMARK    5  A    between atoms: C_19  and  C_20
REMARK    6  A    between atoms: C_20  and  O_21
REMARK    7  A    between atoms: O_21  and  C_24
REMARK                            x       y       z     vdW  Elec       q    Type
REMARK                         _______ _______ _______ _____ _____    ______ ____
ROOT
ATOM      1  C   UNL     1      35.555 -20.863 -19.429  0.00  0.00    -0.077 C 
ENDROOT
BRANCH   1   2
ATOM      2  N   UNL     1      35.379 -20.008 -20.601  0.00  0.00    +0.389 N 
ATOM      3  N   UNL     1      34.596 -17.656 -22.021  0.00  0.00    -0.312 N 
ATOM      4  C   UNL     1      33.958 -19.705 -20.810  0.00  0.00    -0.055 C 
ATOM      5  C   UNL     1      36.138 -18.761 -20.449  0.00  0.00    -0.055 C 
ATOM      6  C   UNL     1      33.756 -18.858 -22.068  0.00  0.00    +0.068 C 
ATOM      7  C   UNL     1      36.008 -17.881 -21.695  0.00  0.00    +0.068 C 
ATOM      8  H   UNL     1      35.732 -20.510 -21.416  0.00  0.00    -0.080 HD
BRANCH   3  10
ATOM      9  S   UNL     1      33.391 -12.750 -22.276  0.00  0.00    -0.086 S 
ATOM     10  C   UNL     1      34.234 -16.568 -22.823  0.00  0.00    +0.048 C 
ATOM     11  C   UNL     1      33.991 -15.264 -22.280  0.00  0.00    +0.020 C 
ATOM     12  C   UNL     1      34.100 -16.747 -24.217  0.00  0.00    +0.015 C 
ATOM     13  C   UNL     1      33.632 -14.222 -23.141  0.00  0.00    +0.031 C 
ATOM     14  C   UNL     1      34.057 -14.815 -20.919  0.00  0.00    +0.009 C 
ATOM     15  C   UNL     1      33.742 -15.697 -25.051  0.00  0.00    +0.002 C 
ATOM     16  C   UNL     1      33.504 -14.423 -24.529  0.00  0.00    +0.007 C 
ATOM     17  C   UNL     1      33.755 -13.481 -20.781  0.00  0.00    +0.035 C 
ENDBRANCH   3  10
ENDBRANCH   1   2
BRANCH   1  18
ATOM     18  C   UNL     1      34.548 -22.012 -19.453  0.00  0.00    -0.019 C 
BRANCH  18  19
ATOM     19  C   UNL     1      33.366 -21.730 -18.527  0.00  0.00    +0.045 C 
BRANCH  19  20
ATOM     20  C   UNL     1      33.213 -22.812 -17.466  0.00  0.00    +0.205 C 
BRANCH  20  21
ATOM     21  O   UNL     1      33.519 -22.277 -16.185  0.00  0.00    -0.475 OA
BRANCH  21  24
ATOM     22  O   UNL     1      36.741 -26.338 -11.311  0.00  0.00    -0.270 OA
ATOM     23  N   UNL     1      35.682 -25.028 -12.881  0.00  0.00    -0.280 N 
ATOM     24  C   UNL     1      34.665 -22.730 -15.584  0.00  0.00    +0.140 C 
ATOM     25  C   UNL     1      34.578 -23.645 -14.542  0.00  0.00    +0.052 C 
ATOM     26  C   UNL     1      35.752 -24.101 -13.937  0.00  0.00    +0.054 C 
ATOM     27  C   UNL     1      35.900 -22.266 -16.025  0.00  0.00    +0.037 C 
ATOM     28  C   UNL     1      37.002 -23.644 -14.368  0.00  0.00    +0.014 C 
ATOM     29  C   UNL     1      37.073 -22.723 -15.418  0.00  0.00    +0.004 C 
ATOM     30  C   UNL     1      38.205 -24.146 -13.709  0.00  0.00    +0.006 C 
ATOM     31  C   UNL     1      36.795 -25.526 -12.233  0.00  0.00    +0.250 C 
ATOM     32  C   UNL     1      38.115 -25.028 -12.706  0.00  0.00    +0.058 C 
ATOM     33  H   UNL     1      34.793 -25.338 -12.590  0.00  0.00    +0.155 HD
ENDBRANCH  21  24
ENDBRANCH  20  21
ENDBRANCH  19  20
ENDBRANCH  18  19
ENDBRANCH   1  18
TORSDOF 7
ENDMDL
MODEL 6
REMARK VINA RESULT:     -12.8      5.650     13.195
REMARK  Name = 11978813
REMARK  7 active torsions:
REMARK  status: ('A' for Active; 'I' for Inactive)
REMARK    1  A    between atoms: C_1  and  N_2
REMARK    2  A    between atoms: C_1  and  C_18
REMARK    3  A    between atoms: N_3  and  C_10
REMARK    4  A    between atoms: C_18  and  C_19
REMARK    5  A    between atoms: C_19  and  C_20
REMARK    6  A    between atoms: C_20  and  O_21
REMARK    7  A    between atoms: O_21  and  C_24
REMARK                            x       y       z     vdW  Elec       q    Type
REMARK                         _______ _______ _______ _____ _____    ______ ____
ROOT
ATOM      1  C   UNL     1      34.928 -20.914 -19.847  0.00  0.00    -0.077 C 
ENDROOT
BRANCH   1   2
ATOM      2  N   UNL     1      34.845 -21.141 -18.405  0.00  0.00    +0.389 N 
ATOM      3  N   UNL     1      35.222 -22.578 -15.965  0.00  0.00    -0.312 N 
ATOM      4  C   UNL     1      34.044 -22.336 -18.117  0.00  0.00    -0.055 C 
ATOM      5  C   UNL     1      36.187 -21.288 -17.829  0.00  0.00    -0.055 C 
ATOM      6  C   UNL     1      33.902 -22.552 -16.608  0.00  0.00    +0.068 C 
ATOM      7  C   UNL     1      36.118 -21.469 -16.311  0.00  0.00    +0.068 C 
ATOM      8  H   UNL     1      34.392 -20.331 -17.982  0.00  0.00    -0.080 HD
BRANCH   3  10
ATOM      9  S   UNL     1      38.130 -25.113 -12.693  0.00  0.00    -0.086 S 
ATOM     10  C   UNL     1      35.332 -23.195 -14.714  0.00  0.00    +0.048 C 
ATOM     11  C   UNL     1      36.543 -23.823 -14.275  0.00  0.00    +0.020 C 
ATOM     12  C   UNL     1      34.220 -23.206 -13.844  0.00  0.00    +0.015 C 
ATOM     13  C   UNL     1      36.583 -24.422 -13.012  0.00  0.00    +0.031 C 
ATOM     14  C   UNL     1      37.801 -23.954 -14.951  0.00  0.00    +0.009 C 
ATOM     15  C   UNL     1      34.284 -23.807 -12.594  0.00  0.00    +0.002 C 
ATOM     16  C   UNL     1      35.461 -24.422 -12.160  0.00  0.00    +0.007 C 
ATOM     17  C   UNL     1      38.741 -24.628 -14.208  0.00  0.00    +0.035 C 
ENDBRANCH   3  10
ENDBRANCH   1   2
BRANCH   1  18
ATOM     18  C   UNL     1      33.878 -19.893 -20.285  0.00  0.00    -0.019 C 
BRANCH  18  19
ATOM     19  C   UNL     1      34.303 -19.181 -21.568  0.00  0.00    +0.045 C 
BRANCH  19  20
ATOM     20  C   UNL     1      35.499 -18.268 -21.334  0.00  0.00    +0.205 C 
BRANCH  20  21
ATOM     21  O   UNL     1      35.100 -17.136 -20.572  0.00  0.00    -0.475 OA
BRANCH  21  24
ATOM     22  O   UNL     1      31.244 -11.158 -20.707  0.00  0.00    -0.270 OA
ATOM     23  N   UNL     1      32.487 -13.095 -20.646  0.00  0.00    -0.280 N 
ATOM     24  C   UNL     1      34.566 -16.081 -21.266  0.00  0.00    +0.140 C 
ATOM     25  C   UNL     1      33.801 -15.135 -20.595  0.00  0.00    +0.052 C 
ATOM     26  C   UNL     1      33.263 -14.062 -21.310  0.00  0.00    +0.054 C 
ATOM     27  C   UNL     1      34.799 -15.971 -22.633  0.00  0.00    +0.037 C 
ATOM     28  C   UNL     1      33.487 -13.938 -22.686  0.00  0.00    +0.014 C 
ATOM     29  C   UNL     1      34.259 -14.897 -23.347  0.00  0.00    +0.004 C 
ATOM     30  C   UNL     1      32.907 -12.801 -23.397  0.00  0.00    +0.006 C 
ATOM     31  C   UNL     1      31.922 -12.008 -21.282  0.00  0.00    +0.250 C 
ATOM     32  C   UNL     1      32.171 -11.892 -22.744  0.00  0.00    +0.058 C 
ATOM     33  H   UNL     1      32.339 -13.200 -19.677  0.00  0.00    +0.155 HD
ENDBRANCH  21  24
ENDBRANCH  20  21
ENDBRANCH  19  20
ENDBRANCH  18  19
ENDBRANCH   1  18
TORSDOF 7
ENDMDL
MODEL 7
REMARK VINA RESULT:     -12.8      4.945     12.387
REMARK  Name = 11978813
REMARK  7 active torsions:
REMARK  status: ('A' for Active; 'I' for Inactive)
REMARK    1  A    between atoms: C_1  and  N_2
REMARK    2  A    between atoms: C_1  and  C_18
REMARK    3  A    between atoms: N_3  and  C_10
REMARK    4  A    between atoms: C_18  and  C_19
REMARK    5  A    between atoms: C_19  and  C_20
REMARK    6  A    between atoms: C_20  and  O_21
REMARK    7  A    between atoms: O_21  and  C_24
REMARK                            x       y       z     vdW  Elec       q    Type
REMARK                         _______ _______ _______ _____ _____    ______ ____
ROOT
ATOM      1  C   UNL     1      35.678 -20.539 -19.851  0.00  0.00    -0.077 C 
ENDROOT
BRANCH   1   2
ATOM      2  N   UNL     1      35.187 -21.537 -18.902  0.00  0.00    +0.389 N 
ATOM      3  N   UNL     1      33.736 -22.485 -16.631  0.00  0.00    -0.312 N 
ATOM      4  C   UNL     1      35.649 -21.227 -17.544  0.00  0.00    -0.055 C 
ATOM      5  C   UNL     1      33.721 -21.597 -18.929  0.00  0.00    -0.055 C 
ATOM      6  C   UNL     1      35.189 -22.296 -16.550  0.00  0.00    +0.068 C 
ATOM      7  C   UNL     1      33.196 -22.678 -17.981  0.00  0.00    +0.068 C 
ATOM      8  H   UNL     1      35.559 -22.447 -19.177  0.00  0.00    -0.080 HD
BRANCH   3  10
ATOM      9  S   UNL     1      29.351 -23.595 -14.367  0.00  0.00    -0.086 S 
ATOM     10  C   UNL     1      33.084 -23.060 -15.535  0.00  0.00    +0.048 C 
ATOM     11  C   UNL     1      31.656 -23.086 -15.420  0.00  0.00    +0.020 C 
ATOM     12  C   UNL     1      33.848 -23.639 -14.498  0.00  0.00    +0.015 C 
ATOM     13  C   UNL     1      31.071 -23.677 -14.296  0.00  0.00    +0.031 C 
ATOM     14  C   UNL     1      30.659 -22.577 -16.317  0.00  0.00    +0.009 C 
ATOM     15  C   UNL     1      33.245 -24.220 -13.391  0.00  0.00    +0.002 C 
ATOM     16  C   UNL     1      31.853 -24.248 -13.273  0.00  0.00    +0.007 C 
ATOM     17  C   UNL     1      29.378 -22.787 -15.867  0.00  0.00    +0.035 C 
ENDBRANCH   3  10
ENDBRANCH   1   2
BRANCH   1  18
ATOM     18  C   UNL     1      34.507 -19.819 -20.519  0.00  0.00    -0.019 C 
BRANCH  18  19
ATOM     19  C   UNL     1      34.971 -19.019 -21.735  0.00  0.00    +0.045 C 
BRANCH  19  20
ATOM     20  C   UNL     1      35.794 -17.804 -21.327  0.00  0.00    +0.205 C 
BRANCH  20  21
ATOM     21  O   UNL     1      34.990 -16.912 -20.566  0.00  0.00    -0.475 OA
BRANCH  21  24
ATOM     22  O   UNL     1      31.123 -10.940 -20.552  0.00  0.00    -0.270 OA
ATOM     23  N   UNL     1      32.370 -12.876 -20.539  0.00  0.00    -0.280 N 
ATOM     24  C   UNL     1      34.443 -15.848 -21.236  0.00  0.00    +0.140 C 
ATOM     25  C   UNL     1      33.688 -14.913 -20.539  0.00  0.00    +0.052 C 
ATOM     26  C   UNL     1      33.136 -13.832 -21.230  0.00  0.00    +0.054 C 
ATOM     27  C   UNL     1      34.652 -15.719 -22.605  0.00  0.00    +0.037 C 
ATOM     28  C   UNL     1      33.336 -13.688 -22.607  0.00  0.00    +0.014 C 
ATOM     29  C   UNL     1      34.099 -14.637 -23.295  0.00  0.00    +0.004 C 
ATOM     30  C   UNL     1      32.742 -12.543 -23.292  0.00  0.00    +0.006 C 
ATOM     31  C   UNL     1      31.792 -11.780 -21.150  0.00  0.00    +0.250 C 
ATOM     32  C   UNL     1      32.016 -11.645 -22.615  0.00  0.00    +0.058 C 
ATOM     33  H   UNL     1      32.239 -12.994 -19.570  0.00  0.00    +0.155 HD
ENDBRANCH  21  24
ENDBRANCH  20  21
ENDBRANCH  19  20
ENDBRANCH  18  19
ENDBRANCH   1  18
TORSDOF 7
ENDMDL
MODEL 8
REMARK VINA RESULT:     -12.6      5.272     12.358
REMARK  Name = 11978813
REMARK  7 active torsions:
REMARK  status: ('A' for Active; 'I' for Inactive)
REMARK    1  A    between atoms: C_1  and  N_2
REMARK    2  A    between atoms: C_1  and  C_18
REMARK    3  A    between atoms: N_3  and  C_10
REMARK    4  A    between atoms: C_18  and  C_19
REMARK    5  A    between atoms: C_19  and  C_20
REMARK    6  A    between atoms: C_20  and  O_21
REMARK    7  A    between atoms: O_21  and  C_24
REMARK                            x       y       z     vdW  Elec       q    Type
REMARK                         _______ _______ _______ _____ _____    ______ ____
ROOT
ATOM      1  C   UNL     1      35.542 -20.650 -20.194  0.00  0.00    -0.077 C 
ENDROOT
BRANCH   1   2
ATOM      2  N   UNL     1      35.123 -21.600 -19.165  0.00  0.00    +0.389 N 
ATOM      3  N   UNL     1      33.803 -22.447 -16.777  0.00  0.00    -0.312 N 
ATOM      4  C   UNL     1      35.636 -21.197 -17.851  0.00  0.00    -0.055 C 
ATOM      5  C   UNL     1      33.659 -21.701 -19.121  0.00  0.00    -0.055 C 
ATOM      6  C   UNL     1      35.252 -22.215 -16.775  0.00  0.00    +0.068 C 
ATOM      7  C   UNL     1      33.209 -22.735 -18.087  0.00  0.00    +0.068 C 
ATOM      8  H   UNL     1      35.508 -22.515 -19.402  0.00  0.00    -0.080 HD
BRANCH   3  10
ATOM      9  S   UNL     1      29.559 -23.473 -14.222  0.00  0.00    -0.086 S 
ATOM     10  C   UNL     1      33.218 -22.971 -15.619  0.00  0.00    +0.048 C 
ATOM     11  C   UNL     1      31.799 -23.001 -15.425  0.00  0.00    +0.020 C 
ATOM     12  C   UNL     1      34.043 -23.493 -14.599  0.00  0.00    +0.015 C 
ATOM     13  C   UNL     1      31.282 -23.540 -14.242  0.00  0.00    +0.031 C 
ATOM     14  C   UNL     1      30.749 -22.543 -16.289  0.00  0.00    +0.009 C 
ATOM     15  C   UNL     1      33.507 -24.022 -13.433  0.00  0.00    +0.002 C 
ATOM     16  C   UNL     1      32.124 -24.054 -13.237  0.00  0.00    +0.007 C 
ATOM     17  C   UNL     1      29.496 -22.740 -15.759  0.00  0.00    +0.035 C 
ENDBRANCH   3  10
ENDBRANCH   1   2
BRANCH   1  18
ATOM     18  C   UNL     1      34.371 -19.755 -20.599  0.00  0.00    -0.019 C 
BRANCH  18  19
ATOM     19  C   UNL     1      34.742 -18.862 -21.782  0.00  0.00    +0.045 C 
BRANCH  19  20
ATOM     20  C   UNL     1      35.655 -17.719 -21.358  0.00  0.00    +0.205 C 
BRANCH  20  21
ATOM     21  O   UNL     1      34.930 -16.794 -20.559  0.00  0.00    -0.475 OA
BRANCH  21  24
ATOM     22  O   UNL     1      32.893 -13.579 -26.570  0.00  0.00    -0.270 OA
ATOM     23  N   UNL     1      33.560 -14.633 -24.634  0.00  0.00    -0.280 N 
ATOM     24  C   UNL     1      34.386 -15.713 -21.204  0.00  0.00    +0.140 C 
ATOM     25  C   UNL     1      34.256 -15.734 -22.587  0.00  0.00    +0.052 C 
ATOM     26  C   UNL     1      33.699 -14.628 -23.235  0.00  0.00    +0.054 C 
ATOM     27  C   UNL     1      33.971 -14.611 -20.464  0.00  0.00    +0.037 C 
ATOM     28  C   UNL     1      33.277 -13.511 -22.505  0.00  0.00    +0.014 C 
ATOM     29  C   UNL     1      33.414 -13.506 -21.114  0.00  0.00    +0.004 C 
ATOM     30  C   UNL     1      32.700 -12.376 -23.221  0.00  0.00    +0.006 C 
ATOM     31  C   UNL     1      33.019 -13.581 -25.347  0.00  0.00    +0.250 C 
ATOM     32  C   UNL     1      32.576 -12.402 -24.554  0.00  0.00    +0.058 C 
ATOM     33  H   UNL     1      33.863 -15.427 -25.132  0.00  0.00    +0.155 HD
ENDBRANCH  21  24
ENDBRANCH  20  21
ENDBRANCH  19  20
ENDBRANCH  18  19
ENDBRANCH   1  18
TORSDOF 7
ENDMDL
MODEL 9
REMARK VINA RESULT:     -12.4      5.822     13.487
REMARK  Name = 11978813
REMARK  7 active torsions:
REMARK  status: ('A' for Active; 'I' for Inactive)
REMARK    1  A    between atoms: C_1  and  N_2
REMARK    2  A    between atoms: C_1  and  C_18
REMARK    3  A    between atoms: N_3  and  C_10
REMARK    4  A    between atoms: C_18  and  C_19
REMARK    5  A    between atoms: C_19  and  C_20
REMARK    6  A    between atoms: C_20  and  O_21
REMARK    7  A    between atoms: O_21  and  C_24
REMARK                            x       y       z     vdW  Elec       q    Type
REMARK                         _______ _______ _______ _____ _____    ______ ____
ROOT
ATOM      1  C   UNL     1      34.130 -21.205 -19.014  0.00  0.00    -0.077 C 
ENDROOT
BRANCH   1   2
ATOM      2  N   UNL     1      34.681 -21.459 -17.684  0.00  0.00    +0.389 N 
ATOM      3  N   UNL     1      36.196 -22.867 -15.714  0.00  0.00    -0.312 N 
ATOM      4  C   UNL     1      34.211 -22.750 -17.169  0.00  0.00    -0.055 C 
ATOM      5  C   UNL     1      36.148 -21.441 -17.722  0.00  0.00    -0.055 C 
ATOM      6  C   UNL     1      34.735 -23.001 -15.753  0.00  0.00    +0.068 C 
ATOM      7  C   UNL     1      36.738 -21.649 -16.325  0.00  0.00    +0.068 C 
ATOM      8  H   UNL     1      34.359 -20.718 -17.060  0.00  0.00    -0.080 HD
BRANCH   3  10
ATOM      9  S   UNL     1      36.264 -24.144 -10.820  0.00  0.00    -0.086 S 
ATOM     10  C   UNL     1      36.885 -23.480 -14.662  0.00  0.00    +0.048 C 
ATOM     11  C   UNL     1      36.351 -23.549 -13.334  0.00  0.00    +0.020 C 
ATOM     12  C   UNL     1      38.152 -24.056 -14.903  0.00  0.00    +0.015 C 
ATOM     13  C   UNL     1      37.094 -24.177 -12.330  0.00  0.00    +0.031 C 
ATOM     14  C   UNL     1      35.105 -23.053 -12.824  0.00  0.00    +0.009 C 
ATOM     15  C   UNL     1      38.871 -24.674 -13.890  0.00  0.00    +0.002 C 
ATOM     16  C   UNL     1      38.357 -24.745 -12.593  0.00  0.00    +0.007 C 
ATOM     17  C   UNL     1      34.936 -23.308 -11.484  0.00  0.00    +0.035 C 
ENDBRANCH   3  10
ENDBRANCH   1   2
BRANCH   1  18
ATOM     18  C   UNL     1      35.214 -20.661 -19.944  0.00  0.00    -0.019 C 
BRANCH  18  19
ATOM     19  C   UNL     1      34.674 -19.533 -20.822  0.00  0.00    +0.045 C 
BRANCH  19  20
ATOM     20  C   UNL     1      35.728 -18.462 -21.070  0.00  0.00    +0.205 C 
BRANCH  20  21
ATOM     21  O   UNL     1      35.194 -17.181 -20.763  0.00  0.00    -0.475 OA
BRANCH  21  24
ATOM     22  O   UNL     1      32.522 -11.111 -23.340  0.00  0.00    -0.270 OA
ATOM     23  N   UNL     1      33.387 -13.068 -22.489  0.00  0.00    -0.280 N 
ATOM     24  C   UNL     1      34.692 -16.453 -21.811  0.00  0.00    +0.140 C 
ATOM     25  C   UNL     1      34.298 -15.136 -21.605  0.00  0.00    +0.052 C 
ATOM     26  C   UNL     1      33.789 -14.402 -22.680  0.00  0.00    +0.054 C 
ATOM     27  C   UNL     1      34.583 -17.043 -23.066  0.00  0.00    +0.037 C 
ATOM     28  C   UNL     1      33.672 -14.981 -23.948  0.00  0.00    +0.014 C 
ATOM     29  C   UNL     1      34.073 -16.307 -24.139  0.00  0.00    +0.004 C 
ATOM     30  C   UNL     1      33.135 -14.180 -25.045  0.00  0.00    +0.006 C 
ATOM     31  C   UNL     1      32.874 -12.278 -23.499  0.00  0.00    +0.250 C 
ATOM     32  C   UNL     1      32.758 -12.911 -24.841  0.00  0.00    +0.058 C 
ATOM     33  H   UNL     1      33.475 -12.677 -21.589  0.00  0.00    +0.155 HD
ENDBRANCH  21  24
ENDBRANCH  20  21
ENDBRANCH  19  20
ENDBRANCH  18  19
ENDBRANCH   1  18
TORSDOF 7
ENDMDL
