MODEL 1
REMARK VINA RESULT:     -14.1      0.000      0.000
REMARK  Name = 24821094
REMARK  5 active torsions:
REMARK  status: ('A' for Active; 'I' for Inactive)
REMARK    1  A    between atoms: N_1  and  C_12
REMARK    2  A    between atoms: C_7  and  C_20
REMARK    3  A    between atoms: C_17  and  C_18
REMARK    4  A    between atoms: C_25  and  O_26
REMARK    5  A    between atoms: O_26  and  C_27
REMARK                            x       y       z     vdW  Elec       q    Type
REMARK                         _______ _______ _______ _____ _____    ______ ____
ROOT
ATOM      1  N   UNL     1      35.534 -22.495 -16.144  0.00  0.00    -0.198 N 
ATOM      2  N   UNL     1      35.956 -21.782 -17.204  0.00  0.00    -0.181 NA
ATOM      3  N   UNL     1      33.483 -23.360 -15.192  0.00  0.00    -0.231 NA
ATOM      4  N   UNL     1      31.543 -22.781 -16.552  0.00  0.00    -0.234 NA
ATOM      5  C   UNL     1      34.185 -22.691 -16.120  0.00  0.00    +0.137 C 
ATOM      6  C   UNL     1      33.688 -22.061 -17.248  0.00  0.00    +0.150 C 
ATOM      7  C   UNL     1      34.827 -21.521 -17.873  0.00  0.00    +0.090 C 
ATOM      8  C   UNL     1      32.313 -22.122 -17.450  0.00  0.00    +0.112 C 
ATOM      9  C   UNL     1      32.166 -23.351 -15.494  0.00  0.00    +0.252 C 
ATOM     10  N   UNL     1      31.713 -21.514 -18.568  0.00  0.00    -0.346 N 
ATOM     11  H   UNL     1      30.738 -21.569 -18.693  0.00  0.00    +0.143 HD
ATOM     12  H   UNL     1      32.267 -21.034 -19.225  0.00  0.00    +0.143 HD
ENDROOT
BRANCH   1  15
ATOM     13  O   UNL     1      37.750 -25.259 -11.283  0.00  0.00    -0.270 OA
ATOM     14  N   UNL     1      37.084 -24.707 -13.442  0.00  0.00    -0.274 N 
ATOM     15  C   UNL     1      36.544 -22.988 -15.125  0.00  0.00    +0.117 C 
ATOM     16  C   UNL     1      37.938 -23.190 -15.751  0.00  0.00    +0.025 C 
ATOM     17  C   UNL     1      36.079 -24.277 -14.425  0.00  0.00    +0.115 C 
ATOM     18  C   UNL     1      38.935 -23.715 -14.715  0.00  0.00    +0.023 C 
ATOM     19  C   UNL     1      38.407 -24.965 -14.015  0.00  0.00    +0.094 C 
ATOM     20  C   UNL     1      36.883 -24.888 -12.076  0.00  0.00    +0.249 C 
BRANCH  20  21
ATOM     21  C   UNL     1      35.537 -24.611 -11.536  0.00  0.00    +0.058 C 
ATOM     22  C   UNL     1      35.420 -23.807 -10.478  0.00  0.00    +0.005 C 
ENDBRANCH  20  21
ENDBRANCH   1  15
BRANCH   7  23
ATOM     23  C   UNL     1      34.878 -20.759 -19.095  0.00  0.00    +0.016 C 
ATOM     24  C   UNL     1      33.715 -20.557 -19.839  0.00  0.00    +0.004 C 
ATOM     25  C   UNL     1      36.088 -20.222 -19.533  0.00  0.00    +0.004 C 
ATOM     26  C   UNL     1      33.764 -19.819 -21.021  0.00  0.00    +0.038 C 
ATOM     27  C   UNL     1      36.137 -19.483 -20.716  0.00  0.00    +0.038 C 
ATOM     28  C   UNL     1      34.974 -19.282 -21.459  0.00  0.00    +0.145 C 
BRANCH  28  29
ATOM     29  O   UNL     1      35.022 -18.564 -22.615  0.00  0.00    -0.453 OA
BRANCH  29  30
ATOM     30  C   UNL     1      34.640 -17.235 -22.564  0.00  0.00    +0.145 C 
ATOM     31  C   UNL     1      34.617 -16.562 -21.342  0.00  0.00    +0.037 C 
ATOM     32  C   UNL     1      34.276 -16.567 -23.734  0.00  0.00    +0.037 C 
ATOM     33  C   UNL     1      34.231 -15.222 -21.290  0.00  0.00    +0.003 C 
ATOM     34  C   UNL     1      33.890 -15.228 -23.682  0.00  0.00    +0.003 C 
ATOM     35  C   UNL     1      33.867 -14.556 -22.460  0.00  0.00    +0.000 C 
ENDBRANCH  29  30
ENDBRANCH  28  29
ENDBRANCH   7  23
TORSDOF 5
ENDMDL
MODEL 2
REMARK VINA RESULT:     -13.6      1.068      2.247
REMARK  Name = 24821094
REMARK  5 active torsions:
REMARK  status: ('A' for Active; 'I' for Inactive)
REMARK    1  A    between atoms: N_1  and  C_12
REMARK    2  A    between atoms: C_7  and  C_20
REMARK    3  A    between atoms: C_17  and  C_18
REMARK    4  A    between atoms: C_25  and  O_26
REMARK    5  A    between atoms: O_26  and  C_27
REMARK                            x       y       z     vdW  Elec       q    Type
REMARK                         _______ _______ _______ _____ _____    ______ ____
ROOT
ATOM      1  N   UNL     1      34.311 -23.292 -15.218  0.00  0.00    -0.198 N 
ATOM      2  N   UNL     1      34.988 -22.720 -16.231  0.00  0.00    -0.181 NA
ATOM      3  N   UNL     1      32.033 -23.665 -14.489  0.00  0.00    -0.231 NA
ATOM      4  N   UNL     1      30.419 -22.723 -16.057  0.00  0.00    -0.234 NA
ATOM      5  C   UNL     1      32.957 -23.192 -15.340  0.00  0.00    +0.137 C 
ATOM      6  C   UNL     1      32.730 -22.505 -16.519  0.00  0.00    +0.150 C 
ATOM      7  C   UNL     1      34.019 -22.242 -17.020  0.00  0.00    +0.090 C 
ATOM      8  C   UNL     1      31.404 -22.273 -16.870  0.00  0.00    +0.112 C 
ATOM      9  C   UNL     1      30.789 -23.382 -14.933  0.00  0.00    +0.252 C 
ATOM     10  N   UNL     1      31.071 -21.584 -18.050  0.00  0.00    -0.346 N 
ATOM     11  H   UNL     1      30.126 -21.432 -18.280  0.00  0.00    +0.143 HD
ATOM     12  H   UNL     1      31.782 -21.256 -18.647  0.00  0.00    +0.143 HD
ENDROOT
BRANCH   1  15
ATOM     13  O   UNL     1      38.888 -25.783 -12.214  0.00  0.00    -0.270 OA
ATOM     14  N   UNL     1      37.281 -24.323 -13.046  0.00  0.00    -0.274 N 
ATOM     15  C   UNL     1      35.077 -23.960 -14.092  0.00  0.00    +0.117 C 
ATOM     16  C   UNL     1      34.504 -23.589 -12.710  0.00  0.00    +0.025 C 
ATOM     17  C   UNL     1      36.582 -23.646 -14.149  0.00  0.00    +0.115 C 
ATOM     18  C   UNL     1      35.307 -24.248 -11.585  0.00  0.00    +0.023 C 
ATOM     19  C   UNL     1      36.799 -23.947 -11.715  0.00  0.00    +0.094 C 
ATOM     20  C   UNL     1      38.320 -25.242 -13.163  0.00  0.00    +0.249 C 
BRANCH  20  21
ATOM     21  C   UNL     1      38.772 -25.599 -14.523  0.00  0.00    +0.058 C 
ATOM     22  C   UNL     1      39.906 -25.070 -14.985  0.00  0.00    +0.005 C 
ENDBRANCH  20  21
ENDBRANCH   1  15
BRANCH   7  23
ATOM     23  C   UNL     1      34.362 -21.546 -18.235  0.00  0.00    +0.016 C 
ATOM     24  C   UNL     1      33.360 -21.178 -19.133  0.00  0.00    +0.004 C 
ATOM     25  C   UNL     1      35.694 -21.239 -18.511  0.00  0.00    +0.004 C 
ATOM     26  C   UNL     1      33.692 -20.504 -20.309  0.00  0.00    +0.038 C 
ATOM     27  C   UNL     1      36.026 -20.564 -19.686  0.00  0.00    +0.038 C 
ATOM     28  C   UNL     1      35.024 -20.197 -20.585  0.00  0.00    +0.145 C 
BRANCH  28  29
ATOM     29  O   UNL     1      35.348 -19.542 -21.733  0.00  0.00    -0.453 OA
BRANCH  29  30
ATOM     30  C   UNL     1      34.953 -18.221 -21.855  0.00  0.00    +0.145 C 
ATOM     31  C   UNL     1      34.889 -17.406 -20.725  0.00  0.00    +0.037 C 
ATOM     32  C   UNL     1      34.618 -17.705 -23.107  0.00  0.00    +0.037 C 
ATOM     33  C   UNL     1      34.489 -16.074 -20.847  0.00  0.00    +0.003 C 
ATOM     34  C   UNL     1      34.219 -16.374 -23.229  0.00  0.00    +0.003 C 
ATOM     35  C   UNL     1      34.154 -15.559 -22.099  0.00  0.00    +0.000 C 
ENDBRANCH  29  30
ENDBRANCH  28  29
ENDBRANCH   7  23
TORSDOF 5
ENDMDL
MODEL 3
REMARK VINA RESULT:     -12.9      5.865     12.351
REMARK  Name = 24821094
REMARK  5 active torsions:
REMARK  status: ('A' for Active; 'I' for Inactive)
REMARK    1  A    between atoms: N_1  and  C_12
REMARK    2  A    between atoms: C_7  and  C_20
REMARK    3  A    between atoms: C_17  and  C_18
REMARK    4  A    between atoms: C_25  and  O_26
REMARK    5  A    between atoms: O_26  and  C_27
REMARK                            x       y       z     vdW  Elec       q    Type
REMARK                         _______ _______ _______ _____ _____    ______ ____
ROOT
ATOM      1  N   UNL     1      33.029 -12.841 -22.338  0.00  0.00    -0.198 N 
ATOM      2  N   UNL     1      33.493 -13.867 -21.602  0.00  0.00    -0.181 NA
ATOM      3  N   UNL     1      32.529 -12.292 -24.642  0.00  0.00    -0.231 NA
ATOM      4  N   UNL     1      32.997 -14.161 -26.137  0.00  0.00    -0.234 NA
ATOM      5  C   UNL     1      32.951 -13.116 -23.671  0.00  0.00    +0.137 C 
ATOM      6  C   UNL     1      33.396 -14.418 -23.818  0.00  0.00    +0.150 C 
ATOM      7  C   UNL     1      33.715 -14.825 -22.509  0.00  0.00    +0.090 C 
ATOM      8  C   UNL     1      33.411 -14.939 -25.108  0.00  0.00    +0.112 C 
ATOM      9  C   UNL     1      32.588 -12.904 -25.845  0.00  0.00    +0.252 C 
ATOM     10  N   UNL     1      33.845 -16.253 -25.360  0.00  0.00    -0.346 N 
ATOM     11  H   UNL     1      33.846 -16.602 -26.281  0.00  0.00    +0.143 HD
ATOM     12  H   UNL     1      34.145 -16.824 -24.616  0.00  0.00    +0.143 HD
ENDROOT
BRANCH   1  15
ATOM     13  O   UNL     1      31.724  -7.011 -21.638  0.00  0.00    -0.270 OA
ATOM     14  N   UNL     1      31.613  -9.319 -21.904  0.00  0.00    -0.274 N 
ATOM     15  C   UNL     1      32.656 -11.539 -21.654  0.00  0.00    +0.117 C 
ATOM     16  C   UNL     1      31.801 -11.779 -20.394  0.00  0.00    +0.025 C 
ATOM     17  C   UNL     1      31.943 -10.567 -22.609  0.00  0.00    +0.115 C 
ATOM     18  C   UNL     1      31.410 -10.454 -19.735  0.00  0.00    +0.023 C 
ATOM     19  C   UNL     1      30.751  -9.506 -20.735  0.00  0.00    +0.094 C 
ATOM     20  C   UNL     1      32.029  -8.036 -22.250  0.00  0.00    +0.249 C 
BRANCH  20  21
ATOM     21  C   UNL     1      32.903  -7.892 -23.431  0.00  0.00    +0.058 C 
ATOM     22  C   UNL     1      34.097  -7.314 -23.283  0.00  0.00    +0.005 C 
ENDBRANCH  20  21
ENDBRANCH   1  15
BRANCH   7  23
ATOM     23  C   UNL     1      34.227 -16.106 -22.090  0.00  0.00    +0.016 C 
ATOM     24  C   UNL     1      34.587 -16.309 -20.758  0.00  0.00    +0.004 C 
ATOM     25  C   UNL     1      34.360 -17.141 -23.014  0.00  0.00    +0.004 C 
ATOM     26  C   UNL     1      35.082 -17.548 -20.351  0.00  0.00    +0.038 C 
ATOM     27  C   UNL     1      34.854 -18.381 -22.607  0.00  0.00    +0.038 C 
ATOM     28  C   UNL     1      35.215 -18.584 -21.276  0.00  0.00    +0.145 C 
BRANCH  28  29
ATOM     29  O   UNL     1      35.701 -19.792 -20.880  0.00  0.00    -0.453 OA
BRANCH  29  30
ATOM     30  C   UNL     1      34.970 -20.505 -19.945  0.00  0.00    +0.145 C 
ATOM     31  C   UNL     1      35.623 -21.153 -18.896  0.00  0.00    +0.037 C 
ATOM     32  C   UNL     1      33.581 -20.577 -20.052  0.00  0.00    +0.037 C 
ATOM     33  C   UNL     1      34.886 -21.873 -17.954  0.00  0.00    +0.003 C 
ATOM     34  C   UNL     1      32.844 -21.295 -19.110  0.00  0.00    +0.003 C 
ATOM     35  C   UNL     1      33.497 -21.943 -18.062  0.00  0.00    +0.000 C 
ENDBRANCH  29  30
ENDBRANCH  28  29
ENDBRANCH   7  23
TORSDOF 5
ENDMDL
MODEL 4
REMARK VINA RESULT:     -12.4      8.020     14.664
REMARK  Name = 24821094
REMARK  5 active torsions:
REMARK  status: ('A' for Active; 'I' for Inactive)
REMARK    1  A    between atoms: N_1  and  C_12
REMARK    2  A    between atoms: C_7  and  C_20
REMARK    3  A    between atoms: C_17  and  C_18
REMARK    4  A    between atoms: C_25  and  O_26
REMARK    5  A    between atoms: O_26  and  C_27
REMARK                            x       y       z     vdW  Elec       q    Type
REMARK                         _______ _______ _______ _____ _____    ______ ____
ROOT
ATOM      1  N   UNL     1      32.542  -9.004 -23.045  0.00  0.00    -0.198 N 
ATOM      2  N   UNL     1      33.020 -10.079 -23.698  0.00  0.00    -0.181 NA
ATOM      3  N   UNL     1      31.394  -8.445 -20.989  0.00  0.00    -0.231 NA
ATOM      4  N   UNL     1      30.938 -10.427 -19.642  0.00  0.00    -0.234 NA
ATOM      5  C   UNL     1      31.955  -9.305 -21.852  0.00  0.00    +0.137 C 
ATOM      6  C   UNL     1      32.056 -10.679 -21.714  0.00  0.00    +0.150 C 
ATOM      7  C   UNL     1      32.720 -11.096 -22.881  0.00  0.00    +0.090 C 
ATOM      8  C   UNL     1      31.520 -11.238 -20.558  0.00  0.00    +0.112 C 
ATOM      9  C   UNL     1      30.911  -9.100 -19.910  0.00  0.00    +0.252 C 
ATOM     10  N   UNL     1      31.575 -12.624 -20.325  0.00  0.00    -0.346 N 
ATOM     11  H   UNL     1      31.191 -12.999 -19.499  0.00  0.00    +0.143 HD
ATOM     12  H   UNL     1      31.999 -13.219 -20.985  0.00  0.00    +0.143 HD
ENDROOT
BRANCH   1  15
ATOM     13  O   UNL     1      31.807  -3.096 -23.899  0.00  0.00    -0.270 OA
ATOM     14  N   UNL     1      32.608  -5.191 -23.288  0.00  0.00    -0.274 N 
ATOM     15  C   UNL     1      32.692  -7.627 -23.664  0.00  0.00    +0.117 C 
ATOM     16  C   UNL     1      34.059  -7.454 -24.353  0.00  0.00    +0.025 C 
ATOM     17  C   UNL     1      32.463  -6.503 -22.638  0.00  0.00    +0.115 C 
ATOM     18  C   UNL     1      34.204  -6.050 -24.946  0.00  0.00    +0.023 C 
ATOM     19  C   UNL     1      33.919  -4.972 -23.902  0.00  0.00    +0.094 C 
ATOM     20  C   UNL     1      31.645  -4.188 -23.352  0.00  0.00    +0.249 C 
BRANCH  20  21
ATOM     21  C   UNL     1      30.334  -4.451 -22.726  0.00  0.00    +0.058 C 
ATOM     22  C   UNL     1      30.119  -4.028 -21.479  0.00  0.00    +0.005 C 
ENDBRANCH  20  21
ENDBRANCH   1  15
BRANCH   7  23
ATOM     23  C   UNL     1      33.084 -12.442 -23.249  0.00  0.00    +0.016 C 
ATOM     24  C   UNL     1      33.826 -13.228 -22.369  0.00  0.00    +0.004 C 
ATOM     25  C   UNL     1      32.692 -12.957 -24.485  0.00  0.00    +0.004 C 
ATOM     26  C   UNL     1      34.177 -14.531 -22.725  0.00  0.00    +0.038 C 
ATOM     27  C   UNL     1      33.043 -14.260 -24.840  0.00  0.00    +0.038 C 
ATOM     28  C   UNL     1      33.785 -15.046 -23.960  0.00  0.00    +0.145 C 
BRANCH  28  29
ATOM     29  O   UNL     1      34.131 -16.316 -24.308  0.00  0.00    -0.453 OA
BRANCH  29  30
ATOM     30  C   UNL     1      34.397 -17.214 -23.289  0.00  0.00    +0.145 C 
ATOM     31  C   UNL     1      33.725 -18.435 -23.242  0.00  0.00    +0.037 C 
ATOM     32  C   UNL     1      35.337 -16.897 -22.308  0.00  0.00    +0.037 C 
ATOM     33  C   UNL     1      33.993 -19.340 -22.213  0.00  0.00    +0.003 C 
ATOM     34  C   UNL     1      35.606 -17.801 -21.280  0.00  0.00    +0.003 C 
ATOM     35  C   UNL     1      34.933 -19.022 -21.233  0.00  0.00    +0.000 C 
ENDBRANCH  29  30
ENDBRANCH  28  29
ENDBRANCH   7  23
TORSDOF 5
ENDMDL
MODEL 5
REMARK VINA RESULT:     -12.3      2.828      5.293
REMARK  Name = 24821094
REMARK  5 active torsions:
REMARK  status: ('A' for Active; 'I' for Inactive)
REMARK    1  A    between atoms: N_1  and  C_12
REMARK    2  A    between atoms: C_7  and  C_20
REMARK    3  A    between atoms: C_17  and  C_18
REMARK    4  A    between atoms: C_25  and  O_26
REMARK    5  A    between atoms: O_26  and  C_27
REMARK                            x       y       z     vdW  Elec       q    Type
REMARK                         _______ _______ _______ _____ _____    ______ ____
ROOT
ATOM      1  N   UNL     1      32.778 -22.748 -15.815  0.00  0.00    -0.198 N 
ATOM      2  N   UNL     1      32.726 -22.114 -17.001  0.00  0.00    -0.181 NA
ATOM      3  N   UNL     1      34.404 -23.513 -14.193  0.00  0.00    -0.231 NA
ATOM      4  N   UNL     1      36.684 -22.989 -14.886  0.00  0.00    -0.234 NA
ATOM      5  C   UNL     1      34.045 -22.919 -15.342  0.00  0.00    +0.137 C 
ATOM      6  C   UNL     1      34.884 -22.355 -16.287  0.00  0.00    +0.150 C 
ATOM      7  C   UNL     1      34.013 -21.877 -17.283  0.00  0.00    +0.090 C 
ATOM      8  C   UNL     1      36.250 -22.404 -16.027  0.00  0.00    +0.112 C 
ATOM      9  C   UNL     1      35.748 -23.500 -14.051  0.00  0.00    +0.252 C 
ATOM     10  N   UNL     1      37.183 -21.857 -16.927  0.00  0.00    -0.346 N 
ATOM     11  H   UNL     1      38.146 -21.901 -16.723  0.00  0.00    +0.143 HD
ATOM     12  H   UNL     1      36.875 -21.428 -17.757  0.00  0.00    +0.143 HD
ENDROOT
BRANCH   1  15
ATOM     13  O   UNL     1      26.898 -23.705 -14.987  0.00  0.00    -0.270 OA
ATOM     14  N   UNL     1      29.159 -23.928 -15.481  0.00  0.00    -0.274 N 
ATOM     15  C   UNL     1      31.490 -23.193 -15.149  0.00  0.00    +0.117 C 
ATOM     16  C   UNL     1      31.714 -24.394 -14.210  0.00  0.00    +0.025 C 
ATOM     17  C   UNL     1      30.388 -23.514 -16.174  0.00  0.00    +0.115 C 
ATOM     18  C   UNL     1      30.399 -24.847 -13.570  0.00  0.00    +0.023 C 
ATOM     19  C   UNL     1      29.326 -25.104 -14.625  0.00  0.00    +0.094 C 
ATOM     20  C   UNL     1      27.909 -23.323 -15.577  0.00  0.00    +0.249 C 
BRANCH  20  21
ATOM     21  C   UNL     1      27.785 -22.135 -16.445  0.00  0.00    +0.058 C 
ATOM     22  C   UNL     1      26.575 -21.777 -16.879  0.00  0.00    +0.005 C 
ENDBRANCH  20  21
ENDBRANCH   1  15
BRANCH   7  23
ATOM     23  C   UNL     1      34.365 -21.197 -18.504  0.00  0.00    +0.016 C 
ATOM     24  C   UNL     1      33.365 -20.754 -19.368  0.00  0.00    +0.004 C 
ATOM     25  C   UNL     1      35.706 -20.981 -18.819  0.00  0.00    +0.004 C 
ATOM     26  C   UNL     1      33.706 -20.095 -20.549  0.00  0.00    +0.038 C 
ATOM     27  C   UNL     1      36.048 -20.321 -20.000  0.00  0.00    +0.038 C 
ATOM     28  C   UNL     1      35.047 -19.878 -20.865  0.00  0.00    +0.145 C 
BRANCH  28  29
ATOM     29  O   UNL     1      35.380 -19.238 -22.019  0.00  0.00    -0.453 OA
BRANCH  29  30
ATOM     30  C   UNL     1      34.939 -17.936 -22.184  0.00  0.00    +0.145 C 
ATOM     31  C   UNL     1      34.547 -17.487 -23.445  0.00  0.00    +0.037 C 
ATOM     32  C   UNL     1      34.888 -17.073 -21.089  0.00  0.00    +0.037 C 
ATOM     33  C   UNL     1      34.103 -16.174 -23.611  0.00  0.00    +0.003 C 
ATOM     34  C   UNL     1      34.444 -15.761 -21.254  0.00  0.00    +0.003 C 
ATOM     35  C   UNL     1      34.053 -15.312 -22.516  0.00  0.00    +0.000 C 
ENDBRANCH  29  30
ENDBRANCH  28  29
ENDBRANCH   7  23
TORSDOF 5
ENDMDL
MODEL 6
REMARK VINA RESULT:     -12.0      8.575     15.242
REMARK  Name = 24821094
REMARK  5 active torsions:
REMARK  status: ('A' for Active; 'I' for Inactive)
REMARK    1  A    between atoms: N_1  and  C_12
REMARK    2  A    between atoms: C_7  and  C_20
REMARK    3  A    between atoms: C_17  and  C_18
REMARK    4  A    between atoms: C_25  and  O_26
REMARK    5  A    between atoms: O_26  and  C_27
REMARK                            x       y       z     vdW  Elec       q    Type
REMARK                         _______ _______ _______ _____ _____    ______ ____
ROOT
ATOM      1  N   UNL     1      31.986  -8.474 -22.679  0.00  0.00    -0.198 N 
ATOM      2  N   UNL     1      32.399  -9.429 -23.533  0.00  0.00    -0.181 NA
ATOM      3  N   UNL     1      31.227  -8.236 -20.393  0.00  0.00    -0.231 NA
ATOM      4  N   UNL     1      31.181 -10.380 -19.230  0.00  0.00    -0.234 NA
ATOM      5  C   UNL     1      31.665  -8.949 -21.442  0.00  0.00    +0.137 C 
ATOM      6  C   UNL     1      31.885 -10.314 -21.489  0.00  0.00    +0.150 C 
ATOM      7  C   UNL     1      32.335 -10.548 -22.801  0.00  0.00    +0.090 C 
ATOM      8  C   UNL     1      31.626 -11.036 -20.328  0.00  0.00    +0.112 C 
ATOM      9  C   UNL     1      31.011  -9.040 -19.329  0.00  0.00    +0.252 C 
ATOM     10  N   UNL     1      31.821 -12.428 -20.275  0.00  0.00    -0.346 N 
ATOM     11  H   UNL     1      31.632 -12.920 -19.443  0.00  0.00    +0.143 HD
ATOM     12  H   UNL     1      32.146 -12.911 -21.069  0.00  0.00    +0.143 HD
ENDROOT
BRANCH   1  15
ATOM     13  O   UNL     1      31.975  -3.750 -26.401  0.00  0.00    -0.270 OA
ATOM     14  N   UNL     1      31.367  -5.506 -25.004  0.00  0.00    -0.274 N 
ATOM     15  C   UNL     1      31.917  -7.033 -23.147  0.00  0.00    +0.117 C 
ATOM     16  C   UNL     1      31.061  -6.164 -22.205  0.00  0.00    +0.025 C 
ATOM     17  C   UNL     1      31.405  -6.918 -24.594  0.00  0.00    +0.115 C 
ATOM     18  C   UNL     1      30.978  -4.721 -22.709  0.00  0.00    +0.023 C 
ATOM     19  C   UNL     1      30.514  -4.664 -24.163  0.00  0.00    +0.094 C 
ATOM     20  C   UNL     1      32.038  -4.938 -26.083  0.00  0.00    +0.249 C 
BRANCH  20  21
ATOM     21  C   UNL     1      32.894  -5.820 -26.902  0.00  0.00    +0.058 C 
ATOM     22  C   UNL     1      33.226  -5.432 -28.135  0.00  0.00    +0.005 C 
ENDBRANCH  20  21
ENDBRANCH   1  15
BRANCH   7  23
ATOM     23  C   UNL     1      32.711 -11.810 -23.388  0.00  0.00    +0.016 C 
ATOM     24  C   UNL     1      32.283 -12.134 -24.675  0.00  0.00    +0.004 C 
ATOM     25  C   UNL     1      33.503 -12.705 -22.670  0.00  0.00    +0.004 C 
ATOM     26  C   UNL     1      32.646 -13.356 -25.243  0.00  0.00    +0.038 C 
ATOM     27  C   UNL     1      33.867 -13.926 -23.238  0.00  0.00    +0.038 C 
ATOM     28  C   UNL     1      33.438 -14.251 -24.525  0.00  0.00    +0.145 C 
BRANCH  28  29
ATOM     29  O   UNL     1      33.791 -15.444 -25.078  0.00  0.00    -0.453 OA
BRANCH  29  30
ATOM     30  C   UNL     1      33.997 -16.514 -24.224  0.00  0.00    +0.145 C 
ATOM     31  C   UNL     1      34.803 -16.361 -23.096  0.00  0.00    +0.037 C 
ATOM     32  C   UNL     1      33.399 -17.746 -24.492  0.00  0.00    +0.037 C 
ATOM     33  C   UNL     1      35.011 -17.439 -22.236  0.00  0.00    +0.003 C 
ATOM     34  C   UNL     1      33.606 -18.824 -23.632  0.00  0.00    +0.003 C 
ATOM     35  C   UNL     1      34.413 -18.670 -22.505  0.00  0.00    +0.000 C 
ENDBRANCH  29  30
ENDBRANCH  28  29
ENDBRANCH   7  23
TORSDOF 5
ENDMDL
MODEL 7
REMARK VINA RESULT:     -11.5      5.464      9.481
REMARK  Name = 24821094
REMARK  5 active torsions:
REMARK  status: ('A' for Active; 'I' for Inactive)
REMARK    1  A    between atoms: N_1  and  C_12
REMARK    2  A    between atoms: C_7  and  C_20
REMARK    3  A    between atoms: C_17  and  C_18
REMARK    4  A    between atoms: C_25  and  O_26
REMARK    5  A    between atoms: O_26  and  C_27
REMARK                            x       y       z     vdW  Elec       q    Type
REMARK                         _______ _______ _______ _____ _____    ______ ____
ROOT
ATOM      1  N   UNL     1      34.097 -16.103 -21.850  0.00  0.00    -0.198 N 
ATOM      2  N   UNL     1      33.725 -15.012 -21.157  0.00  0.00    -0.181 NA
ATOM      3  N   UNL     1      34.150 -16.922 -24.127  0.00  0.00    -0.231 NA
ATOM      4  N   UNL     1      33.257 -15.282 -25.697  0.00  0.00    -0.234 NA
ATOM      5  C   UNL     1      33.880 -15.999 -23.192  0.00  0.00    +0.137 C 
ATOM      6  C   UNL     1      33.326 -14.746 -23.392  0.00  0.00    +0.150 C 
ATOM      7  C   UNL     1      33.256 -14.189 -22.102  0.00  0.00    +0.090 C 
ATOM      8  C   UNL     1      33.011 -14.398 -24.701  0.00  0.00    +0.112 C 
ATOM      9  C   UNL     1      33.803 -16.473 -25.354  0.00  0.00    +0.252 C 
ATOM     10  N   UNL     1      32.445 -13.146 -25.007  0.00  0.00    -0.346 N 
ATOM     11  H   UNL     1      32.230 -12.919 -25.941  0.00  0.00    +0.143 HD
ATOM     12  H   UNL     1      32.266 -12.498 -24.288  0.00  0.00    +0.143 HD
ENDROOT
BRANCH   1  15
ATOM     13  O   UNL     1      34.452 -21.483 -19.184  0.00  0.00    -0.270 OA
ATOM     14  N   UNL     1      34.557 -19.715 -20.690  0.00  0.00    -0.274 N 
ATOM     15  C   UNL     1      34.691 -17.289 -21.114  0.00  0.00    +0.117 C 
ATOM     16  C   UNL     1      36.199 -17.440 -21.393  0.00  0.00    +0.025 C 
ATOM     17  C   UNL     1      33.953 -18.600 -21.435  0.00  0.00    +0.115 C 
ATOM     18  C   UNL     1      36.775 -18.658 -20.666  0.00  0.00    +0.023 C 
ATOM     19  C   UNL     1      35.977 -19.923 -20.979  0.00  0.00    +0.094 C 
ATOM     20  C   UNL     1      33.913 -20.552 -19.784  0.00  0.00    +0.249 C 
BRANCH  20  21
ATOM     21  C   UNL     1      32.482 -20.304 -19.516  0.00  0.00    +0.058 C 
ATOM     22  C   UNL     1      31.839 -21.102 -18.662  0.00  0.00    +0.005 C 
ENDBRANCH  20  21
ENDBRANCH   1  15
BRANCH   7  23
ATOM     23  C   UNL     1      32.755 -12.888 -21.736  0.00  0.00    +0.016 C 
ATOM     24  C   UNL     1      32.994 -11.791 -22.563  0.00  0.00    +0.004 C 
ATOM     25  C   UNL     1      32.029 -12.727 -20.556  0.00  0.00    +0.004 C 
ATOM     26  C   UNL     1      32.509 -10.532 -22.208  0.00  0.00    +0.038 C 
ATOM     27  C   UNL     1      31.542 -11.468 -20.202  0.00  0.00    +0.038 C 
ATOM     28  C   UNL     1      31.783 -10.371 -21.029  0.00  0.00    +0.145 C 
BRANCH  28  29
ATOM     29  O   UNL     1      31.311  -9.142 -20.681  0.00  0.00    -0.453 OA
BRANCH  29  30
ATOM     30  C   UNL     1      31.493  -8.105 -21.581  0.00  0.00    +0.145 C 
ATOM     31  C   UNL     1      32.491  -7.156 -21.359  0.00  0.00    +0.037 C 
ATOM     32  C   UNL     1      30.677  -8.008 -22.708  0.00  0.00    +0.037 C 
ATOM     33  C   UNL     1      32.674  -6.111 -22.265  0.00  0.00    +0.003 C 
ATOM     34  C   UNL     1      30.859  -6.963 -23.614  0.00  0.00    +0.003 C 
ATOM     35  C   UNL     1      31.857  -6.014 -23.391  0.00  0.00    +0.000 C 
ENDBRANCH  29  30
ENDBRANCH  28  29
ENDBRANCH   7  23
TORSDOF 5
ENDMDL
MODEL 8
REMARK VINA RESULT:     -11.5      2.596      4.808
REMARK  Name = 24821094
REMARK  5 active torsions:
REMARK  status: ('A' for Active; 'I' for Inactive)
REMARK    1  A    between atoms: N_1  and  C_12
REMARK    2  A    between atoms: C_7  and  C_20
REMARK    3  A    between atoms: C_17  and  C_18
REMARK    4  A    between atoms: C_25  and  O_26
REMARK    5  A    between atoms: O_26  and  C_27
REMARK                            x       y       z     vdW  Elec       q    Type
REMARK                         _______ _______ _______ _____ _____    ______ ____
ROOT
ATOM      1  N   UNL     1      32.088 -22.455 -17.126  0.00  0.00    -0.198 N 
ATOM      2  N   UNL     1      32.100 -21.717 -18.251  0.00  0.00    -0.181 NA
ATOM      3  N   UNL     1      33.619 -23.327 -15.467  0.00  0.00    -0.231 NA
ATOM      4  N   UNL     1      35.925 -22.693 -15.945  0.00  0.00    -0.234 NA
ATOM      5  C   UNL     1      33.323 -22.640 -16.580  0.00  0.00    +0.137 C 
ATOM      6  C   UNL     1      34.209 -21.974 -17.409  0.00  0.00    +0.150 C 
ATOM      7  C   UNL     1      33.395 -21.427 -18.418  0.00  0.00    +0.090 C 
ATOM      8  C   UNL     1      35.554 -22.016 -17.058  0.00  0.00    +0.112 C 
ATOM      9  C   UNL     1      34.948 -23.298 -15.228  0.00  0.00    +0.252 C 
ATOM     10  N   UNL     1      36.532 -21.368 -17.836  0.00  0.00    -0.346 N 
ATOM     11  H   UNL     1      37.479 -21.410 -17.569  0.00  0.00    +0.143 HD
ATOM     12  H   UNL     1      36.269 -20.873 -18.645  0.00  0.00    +0.143 HD
ENDROOT
BRANCH   1  15
ATOM     13  O   UNL     1      28.131 -24.987 -13.369  0.00  0.00    -0.270 OA
ATOM     14  N   UNL     1      29.418 -23.487 -14.594  0.00  0.00    -0.274 N 
ATOM     15  C   UNL     1      30.769 -22.987 -16.595  0.00  0.00    +0.117 C 
ATOM     16  C   UNL     1      29.565 -22.237 -17.198  0.00  0.00    +0.025 C 
ATOM     17  C   UNL     1      30.707 -22.952 -15.059  0.00  0.00    +0.115 C 
ATOM     18  C   UNL     1      28.246 -22.767 -16.630  0.00  0.00    +0.023 C 
ATOM     19  C   UNL     1      28.253 -22.759 -15.102  0.00  0.00    +0.094 C 
ATOM     20  C   UNL     1      29.228 -24.573 -13.744  0.00  0.00    +0.249 C 
BRANCH  20  21
ATOM     21  C   UNL     1      30.428 -25.284 -13.259  0.00  0.00    +0.058 C 
ATOM     22  C   UNL     1      31.501 -24.573 -12.907  0.00  0.00    +0.005 C 
ENDBRANCH  20  21
ENDBRANCH   1  15
BRANCH   7  23
ATOM     23  C   UNL     1      33.812 -20.631 -19.545  0.00  0.00    +0.016 C 
ATOM     24  C   UNL     1      32.857 -20.080 -20.399  0.00  0.00    +0.004 C 
ATOM     25  C   UNL     1      35.169 -20.409 -19.779  0.00  0.00    +0.004 C 
ATOM     26  C   UNL     1      33.260 -19.309 -21.490  0.00  0.00    +0.038 C 
ATOM     27  C   UNL     1      35.572 -19.638 -20.870  0.00  0.00    +0.038 C 
ATOM     28  C   UNL     1      34.617 -19.088 -21.724  0.00  0.00    +0.145 C 
BRANCH  28  29
ATOM     29  O   UNL     1      35.011 -18.338 -22.790  0.00  0.00    -0.453 OA
BRANCH  29  30
ATOM     30  C   UNL     1      34.585 -17.021 -22.843  0.00  0.00    +0.145 C 
ATOM     31  C   UNL     1      34.174 -16.470 -24.057  0.00  0.00    +0.037 C 
ATOM     32  C   UNL     1      34.569 -16.245 -21.684  0.00  0.00    +0.037 C 
ATOM     33  C   UNL     1      33.746 -15.143 -24.111  0.00  0.00    +0.003 C 
ATOM     34  C   UNL     1      34.141 -14.919 -21.737  0.00  0.00    +0.003 C 
ATOM     35  C   UNL     1      33.730 -14.368 -22.951  0.00  0.00    +0.000 C 
ENDBRANCH  29  30
ENDBRANCH  28  29
ENDBRANCH   7  23
TORSDOF 5
ENDMDL
MODEL 9
REMARK VINA RESULT:     -11.3     10.060     16.969
REMARK  Name = 24821094
REMARK  5 active torsions:
REMARK  status: ('A' for Active; 'I' for Inactive)
REMARK    1  A    between atoms: N_1  and  C_12
REMARK    2  A    between atoms: C_7  and  C_20
REMARK    3  A    between atoms: C_17  and  C_18
REMARK    4  A    between atoms: C_25  and  O_26
REMARK    5  A    between atoms: O_26  and  C_27
REMARK                            x       y       z     vdW  Elec       q    Type
REMARK                         _______ _______ _______ _____ _____    ______ ____
ROOT
ATOM      1  N   UNL     1      32.439  -5.944 -22.982  0.00  0.00    -0.198 N 
ATOM      2  N   UNL     1      32.559  -7.139 -23.588  0.00  0.00    -0.181 NA
ATOM      3  N   UNL     1      31.991  -5.014 -20.793  0.00  0.00    -0.231 NA
ATOM      4  N   UNL     1      31.641  -6.760 -19.125  0.00  0.00    -0.234 NA
ATOM      5  C   UNL     1      32.164  -6.032 -21.650  0.00  0.00    +0.137 C 
ATOM      6  C   UNL     1      32.100  -7.384 -21.362  0.00  0.00    +0.150 C 
ATOM      7  C   UNL     1      32.352  -8.013 -22.595  0.00  0.00    +0.090 C 
ATOM      8  C   UNL     1      31.827  -7.737 -20.044  0.00  0.00    +0.112 C 
ATOM      9  C   UNL     1      31.733  -5.477 -19.550  0.00  0.00    +0.252 C 
ATOM     10  N   UNL     1      31.744  -9.085 -19.653  0.00  0.00    -0.346 N 
ATOM     11  H   UNL     1      31.550  -9.314 -18.714  0.00  0.00    +0.143 HD
ATOM     12  H   UNL     1      31.879  -9.801 -20.315  0.00  0.00    +0.143 HD
ENDROOT
BRANCH   1  15
ATOM     13  O   UNL     1      34.437  -2.209 -27.253  0.00  0.00    -0.270 OA
ATOM     14  N   UNL     1      33.187  -3.708 -25.989  0.00  0.00    -0.274 N 
ATOM     15  C   UNL     1      32.610  -4.674 -23.794  0.00  0.00    +0.117 C 
ATOM     16  C   UNL     1      31.342  -3.798 -23.763  0.00  0.00    +0.025 C 
ATOM     17  C   UNL     1      33.023  -4.968 -25.247  0.00  0.00    +0.115 C 
ATOM     18  C   UNL     1      31.523  -2.537 -24.612  0.00  0.00    +0.023 C 
ATOM     19  C   UNL     1      31.980  -2.879 -26.029  0.00  0.00    +0.094 C 
ATOM     20  C   UNL     1      34.340  -3.269 -26.632  0.00  0.00    +0.249 C 
BRANCH  20  21
ATOM     21  C   UNL     1      35.537  -4.131 -26.562  0.00  0.00    +0.058 C 
ATOM     22  C   UNL     1      36.743  -3.561 -26.562  0.00  0.00    +0.005 C 
ENDBRANCH  20  21
ENDBRANCH   1  15
BRANCH   7  23
ATOM     23  C   UNL     1      32.403  -9.428 -22.864  0.00  0.00    +0.016 C 
ATOM     24  C   UNL     1      33.502  -9.972 -23.527  0.00  0.00    +0.004 C 
ATOM     25  C   UNL     1      31.354 -10.253 -22.459  0.00  0.00    +0.004 C 
ATOM     26  C   UNL     1      33.552 -11.342 -23.786  0.00  0.00    +0.038 C 
ATOM     27  C   UNL     1      31.404 -11.623 -22.717  0.00  0.00    +0.038 C 
ATOM     28  C   UNL     1      32.503 -12.167 -23.381  0.00  0.00    +0.145 C 
BRANCH  28  29
ATOM     29  O   UNL     1      32.550 -13.503 -23.637  0.00  0.00    -0.453 OA
BRANCH  29  30
ATOM     30  C   UNL     1      33.208 -14.311 -22.725  0.00  0.00    +0.145 C 
ATOM     31  C   UNL     1      33.972 -15.389 -23.172  0.00  0.00    +0.037 C 
ATOM     32  C   UNL     1      33.108 -14.047 -21.359  0.00  0.00    +0.037 C 
ATOM     33  C   UNL     1      34.635 -16.204 -22.253  0.00  0.00    +0.003 C 
ATOM     34  C   UNL     1      33.770 -14.860 -20.440  0.00  0.00    +0.003 C 
ATOM     35  C   UNL     1      34.533 -15.939 -20.887  0.00  0.00    +0.000 C 
ENDBRANCH  29  30
ENDBRANCH  28  29
ENDBRANCH   7  23
TORSDOF 5
ENDMDL
