MODEL 1
REMARK VINA RESULT:     -10.6      0.000      0.000
REMARK  Name = 24836811
REMARK  4 active torsions:
REMARK  status: ('A' for Active; 'I' for Inactive)
REMARK    1  A    between atoms: C_9  and  C_12
REMARK    2  A    between atoms: C_11  and  C_19
REMARK    3  A    between atoms: C_21  and  C_25
REMARK    4  A    between atoms: N_24  and  O_27
REMARK                            x       y       z     vdW  Elec       q    Type
REMARK                         _______ _______ _______ _____ _____    ______ ____
ROOT
ATOM      1  O   UNL     1      37.962 -21.967 -16.139  0.00  0.00    -0.269 OA
ATOM      2  N   UNL     1      34.864 -20.756 -19.612  0.00  0.00    -0.271 N 
ATOM      3  N   UNL     1      36.147 -22.174 -17.599  0.00  0.00    -0.267 N 
ATOM      4  N   UNL     1      32.856 -21.604 -19.237  0.00  0.00    -0.230 NA
ATOM      5  C   UNL     1      36.287 -20.552 -19.437  0.00  0.00    +0.118 C 
ATOM      6  C   UNL     1      36.922 -21.771 -18.779  0.00  0.00    +0.116 C 
ATOM      7  C   UNL     1      34.734 -22.525 -17.838  0.00  0.00    +0.155 C 
ATOM      8  C   UNL     1      34.122 -21.645 -18.875  0.00  0.00    +0.133 C 
ATOM      9  C   UNL     1      34.036 -20.116 -20.481  0.00  0.00    +0.072 C 
ATOM     10  C   UNL     1      32.796 -20.657 -20.231  0.00  0.00    +0.115 C 
ATOM     11  C   UNL     1      36.787 -22.255 -16.357  0.00  0.00    +0.255 C 
ENDROOT
BRANCH   9  12
ATOM     12  C   UNL     1      34.444 -19.114 -21.435  0.00  0.00    +0.015 C 
ATOM     13  C   UNL     1      34.296 -19.353 -22.802  0.00  0.00    +0.001 C 
ATOM     14  C   UNL     1      34.986 -17.907 -20.993  0.00  0.00    +0.001 C 
ATOM     15  C   UNL     1      34.691 -18.384 -23.725  0.00  0.00    +0.000 C 
ATOM     16  C   UNL     1      35.380 -16.939 -21.916  0.00  0.00    +0.000 C 
ATOM     17  C   UNL     1      35.233 -17.178 -23.283  0.00  0.00    +0.000 C 
ENDBRANCH   9  12
BRANCH  11  19
ATOM     18  S   UNL     1      36.829 -23.265 -13.801  0.00  0.00    -0.078 S 
ATOM     19  C   UNL     1      36.006 -22.728 -15.203  0.00  0.00    +0.083 C 
ATOM     20  C   UNL     1      34.638 -22.811 -15.064  0.00  0.00    +0.012 C 
ATOM     21  C   UNL     1      35.354 -23.612 -13.003  0.00  0.00    +0.085 C 
ATOM     22  C   UNL     1      34.260 -23.323 -13.789  0.00  0.00    +0.012 C 
BRANCH  21  25
ATOM     23  O   UNL     1      34.593 -25.030 -11.294  0.00  0.00    -0.268 OA
ATOM     24  N   UNL     1      36.333 -23.608 -10.784  0.00  0.00    -0.193 N 
ATOM     25  C   UNL     1      35.389 -24.133 -11.675  0.00  0.00    +0.274 C 
ATOM     26  H   UNL     1      36.963 -22.906 -11.067  0.00  0.00    +0.183 HD
BRANCH  24  27
ATOM     27  O   UNL     1      36.352 -24.115  -9.477  0.00  0.00    -0.295 OA
ATOM     28  H   UNL     1      37.262 -24.104  -9.139  0.00  0.00    +0.241 HD
ENDBRANCH  24  27
ENDBRANCH  21  25
ENDBRANCH  11  19
TORSDOF 4
ENDMDL
MODEL 2
REMARK VINA RESULT:     -10.1      8.301     11.512
REMARK  Name = 24836811
REMARK  4 active torsions:
REMARK  status: ('A' for Active; 'I' for Inactive)
REMARK    1  A    between atoms: C_9  and  C_12
REMARK    2  A    between atoms: C_11  and  C_19
REMARK    3  A    between atoms: C_21  and  C_25
REMARK    4  A    between atoms: N_24  and  O_27
REMARK                            x       y       z     vdW  Elec       q    Type
REMARK                         _______ _______ _______ _____ _____    ______ ____
ROOT
ATOM      1  O   UNL     1      34.560 -13.314 -24.304  0.00  0.00    -0.269 OA
ATOM      2  N   UNL     1      32.185 -10.177 -21.537  0.00  0.00    -0.271 N 
ATOM      3  N   UNL     1      33.001 -12.544 -22.739  0.00  0.00    -0.267 N 
ATOM      4  N   UNL     1      31.534 -11.105 -19.638  0.00  0.00    -0.230 NA
ATOM      5  C   UNL     1      32.716 -10.109 -22.883  0.00  0.00    +0.118 C 
ATOM      6  C   UNL     1      32.536 -11.445 -23.594  0.00  0.00    +0.116 C 
ATOM      7  C   UNL     1      32.330 -12.680 -21.432  0.00  0.00    +0.155 C 
ATOM      8  C   UNL     1      32.015 -11.348 -20.841  0.00  0.00    +0.133 C 
ATOM      9  C   UNL     1      31.799  -9.141 -20.746  0.00  0.00    +0.072 C 
ATOM     10  C   UNL     1      31.399  -9.739 -19.573  0.00  0.00    +0.115 C 
ATOM     11  C   UNL     1      33.989 -13.411 -23.219  0.00  0.00    +0.255 C 
ENDROOT
BRANCH   9  12
ATOM     12  C   UNL     1      31.817  -7.750 -21.127  0.00  0.00    +0.015 C 
ATOM     13  C   UNL     1      31.083  -7.321 -22.234  0.00  0.00    +0.001 C 
ATOM     14  C   UNL     1      32.568  -6.833 -20.391  0.00  0.00    +0.001 C 
ATOM     15  C   UNL     1      31.101  -5.977 -22.603  0.00  0.00    +0.000 C 
ATOM     16  C   UNL     1      32.585  -5.489 -20.760  0.00  0.00    +0.000 C 
ATOM     17  C   UNL     1      31.852  -5.060 -21.867  0.00  0.00    +0.000 C 
ENDBRANCH   9  12
BRANCH  11  19
ATOM     18  S   UNL     1      34.874 -16.011 -23.110  0.00  0.00    -0.078 S 
ATOM     19  C   UNL     1      34.390 -14.545 -22.371  0.00  0.00    +0.083 C 
ATOM     20  C   UNL     1      34.439 -14.618 -20.996  0.00  0.00    +0.012 C 
ATOM     21  C   UNL     1      35.151 -16.749 -21.590  0.00  0.00    +0.085 C 
ATOM     22  C   UNL     1      34.881 -15.895 -20.543  0.00  0.00    +0.012 C 
BRANCH  21  25
ATOM     23  O   UNL     1      36.432 -18.546 -22.393  0.00  0.00    -0.268 OA
ATOM     24  N   UNL     1      35.119 -18.935 -20.539  0.00  0.00    -0.193 N 
ATOM     25  C   UNL     1      35.613 -18.099 -21.547  0.00  0.00    +0.274 C 
ATOM     26  H   UNL     1      34.478 -18.600 -19.870  0.00  0.00    +0.183 HD
BRANCH  24  27
ATOM     27  O   UNL     1      35.567 -20.263 -20.512  0.00  0.00    -0.295 OA
ATOM     28  H   UNL     1      34.811 -20.862 -20.618  0.00  0.00    +0.241 HD
ENDBRANCH  24  27
ENDBRANCH  21  25
ENDBRANCH  11  19
TORSDOF 4
ENDMDL
MODEL 3
REMARK VINA RESULT:      -9.7      1.905      2.078
REMARK  Name = 24836811
REMARK  4 active torsions:
REMARK  status: ('A' for Active; 'I' for Inactive)
REMARK    1  A    between atoms: C_9  and  C_12
REMARK    2  A    between atoms: C_11  and  C_19
REMARK    3  A    between atoms: C_21  and  C_25
REMARK    4  A    between atoms: N_24  and  O_27
REMARK                            x       y       z     vdW  Elec       q    Type
REMARK                         _______ _______ _______ _____ _____    ______ ____
ROOT
ATOM      1  O   UNL     1      37.754 -22.031 -16.113  0.00  0.00    -0.269 OA
ATOM      2  N   UNL     1      34.817 -20.702 -19.683  0.00  0.00    -0.271 N 
ATOM      3  N   UNL     1      36.014 -22.192 -17.668  0.00  0.00    -0.267 N 
ATOM      4  N   UNL     1      32.801 -21.579 -19.441  0.00  0.00    -0.230 NA
ATOM      5  C   UNL     1      36.229 -20.496 -19.431  0.00  0.00    +0.118 C 
ATOM      6  C   UNL     1      36.842 -21.736 -18.792  0.00  0.00    +0.116 C 
ATOM      7  C   UNL     1      34.618 -22.543 -17.990  0.00  0.00    +0.155 C 
ATOM      8  C   UNL     1      34.049 -21.626 -19.020  0.00  0.00    +0.133 C 
ATOM      9  C   UNL     1      34.027 -20.034 -20.566  0.00  0.00    +0.072 C 
ATOM     10  C   UNL     1      32.781 -20.593 -20.399  0.00  0.00    +0.115 C 
ATOM     11  C   UNL     1      36.593 -22.319 -16.401  0.00  0.00    +0.255 C 
ENDROOT
BRANCH   9  12
ATOM     12  C   UNL     1      34.472 -18.991 -21.458  0.00  0.00    +0.015 C 
ATOM     13  C   UNL     1      34.433 -19.192 -22.838  0.00  0.00    +0.001 C 
ATOM     14  C   UNL     1      34.942 -17.783 -20.942  0.00  0.00    +0.001 C 
ATOM     15  C   UNL     1      34.864 -18.184 -23.701  0.00  0.00    +0.000 C 
ATOM     16  C   UNL     1      35.371 -16.776 -21.805  0.00  0.00    +0.000 C 
ATOM     17  C   UNL     1      35.333 -16.976 -23.185  0.00  0.00    +0.000 C 
ENDBRANCH   9  12
BRANCH  11  19
ATOM     18  S   UNL     1      34.062 -22.902 -15.503  0.00  0.00    -0.078 S 
ATOM     19  C   UNL     1      35.761 -22.843 -15.306  0.00  0.00    +0.083 C 
ATOM     20  C   UNL     1      36.157 -23.322 -14.077  0.00  0.00    +0.012 C 
ATOM     21  C   UNL     1      33.850 -23.569 -13.940  0.00  0.00    +0.085 C 
ATOM     22  C   UNL     1      35.049 -23.743 -13.285  0.00  0.00    +0.012 C 
BRANCH  21  25
ATOM     23  O   UNL     1      31.613 -23.008 -13.498  0.00  0.00    -0.268 OA
ATOM     24  N   UNL     1      32.275 -25.160 -13.007  0.00  0.00    -0.193 N 
ATOM     25  C   UNL     1      32.531 -23.870 -13.486  0.00  0.00    +0.274 C 
ATOM     26  H   UNL     1      32.983 -25.846 -12.991  0.00  0.00    +0.183 HD
BRANCH  24  27
ATOM     27  O   UNL     1      30.981 -25.444 -12.550  0.00  0.00    -0.295 OA
ATOM     28  H   UNL     1      31.013 -25.675 -11.608  0.00  0.00    +0.241 HD
ENDBRANCH  24  27
ENDBRANCH  21  25
ENDBRANCH  11  19
TORSDOF 4
ENDMDL
MODEL 4
REMARK VINA RESULT:      -9.6     10.598     14.473
REMARK  Name = 24836811
REMARK  4 active torsions:
REMARK  status: ('A' for Active; 'I' for Inactive)
REMARK    1  A    between atoms: C_9  and  C_12
REMARK    2  A    between atoms: C_11  and  C_19
REMARK    3  A    between atoms: C_21  and  C_25
REMARK    4  A    between atoms: N_24  and  O_27
REMARK                            x       y       z     vdW  Elec       q    Type
REMARK                         _______ _______ _______ _____ _____    ______ ____
ROOT
ATOM      1  O   UNL     1      31.412  -9.490 -19.005  0.00  0.00    -0.269 OA
ATOM      2  N   UNL     1      33.227 -12.568 -22.224  0.00  0.00    -0.271 N 
ATOM      3  N   UNL     1      31.826 -10.453 -21.096  0.00  0.00    -0.267 N 
ATOM      4  N   UNL     1      33.589 -11.583 -24.171  0.00  0.00    -0.230 NA
ATOM      5  C   UNL     1      32.730 -12.725 -20.873  0.00  0.00    +0.118 C 
ATOM      6  C   UNL     1      31.529 -11.816 -20.638  0.00  0.00    +0.116 C 
ATOM      7  C   UNL     1      32.180 -10.308 -22.520  0.00  0.00    +0.155 C 
ATOM      8  C   UNL     1      33.003 -11.456 -22.997  0.00  0.00    +0.133 C 
ATOM      9  C   UNL     1      33.991 -13.443 -22.932  0.00  0.00    +0.072 C 
ATOM     10  C   UNL     1      34.204 -12.811 -24.136  0.00  0.00    +0.115 C 
ATOM     11  C   UNL     1      31.705  -9.389 -20.195  0.00  0.00    +0.255 C 
ENDROOT
BRANCH   9  12
ATOM     12  C   UNL     1      34.428 -14.735 -22.464  0.00  0.00    +0.015 C 
ATOM     13  C   UNL     1      34.698 -15.753 -23.379  0.00  0.00    +0.001 C 
ATOM     14  C   UNL     1      34.583 -14.967 -21.097  0.00  0.00    +0.001 C 
ATOM     15  C   UNL     1      35.121 -17.003 -22.926  0.00  0.00    +0.000 C 
ATOM     16  C   UNL     1      35.006 -16.217 -20.645  0.00  0.00    +0.000 C 
ATOM     17  C   UNL     1      35.275 -17.235 -21.560  0.00  0.00    +0.000 C 
ENDBRANCH   9  12
BRANCH  11  19
ATOM     18  S   UNL     1      31.211  -7.536 -22.163  0.00  0.00    -0.078 S 
ATOM     19  C   UNL     1      31.941  -8.025 -20.694  0.00  0.00    +0.083 C 
ATOM     20  C   UNL     1      32.700  -7.022 -20.134  0.00  0.00    +0.012 C 
ATOM     21  C   UNL     1      31.911  -5.977 -22.054  0.00  0.00    +0.085 C 
ATOM     22  C   UNL     1      32.682  -5.834 -20.922  0.00  0.00    +0.012 C 
BRANCH  21  25
ATOM     23  O   UNL     1      32.494  -4.747 -23.967  0.00  0.00    -0.268 OA
ATOM     24  N   UNL     1      30.402  -4.376 -23.075  0.00  0.00    -0.193 N 
ATOM     25  C   UNL     1      31.644  -5.022 -23.081  0.00  0.00    +0.274 C 
ATOM     26  H   UNL     1      29.726  -4.579 -22.388  0.00  0.00    +0.183 HD
BRANCH  24  27
ATOM     27  O   UNL     1      30.153  -3.429 -24.079  0.00  0.00    -0.295 OA
ATOM     28  H   UNL     1      30.324  -3.826 -24.948  0.00  0.00    +0.241 HD
ENDBRANCH  24  27
ENDBRANCH  21  25
ENDBRANCH  11  19
TORSDOF 4
ENDMDL
MODEL 5
REMARK VINA RESULT:      -9.3     10.745     14.270
REMARK  Name = 24836811
REMARK  4 active torsions:
REMARK  status: ('A' for Active; 'I' for Inactive)
REMARK    1  A    between atoms: C_9  and  C_12
REMARK    2  A    between atoms: C_11  and  C_19
REMARK    3  A    between atoms: C_21  and  C_25
REMARK    4  A    between atoms: N_24  and  O_27
REMARK                            x       y       z     vdW  Elec       q    Type
REMARK                         _______ _______ _______ _____ _____    ______ ____
ROOT
ATOM      1  O   UNL     1      29.964 -10.749 -22.480  0.00  0.00    -0.269 OA
ATOM      2  N   UNL     1      33.031  -7.286 -23.798  0.00  0.00    -0.271 N 
ATOM      3  N   UNL     1      31.744  -9.241 -22.304  0.00  0.00    -0.267 N 
ATOM      4  N   UNL     1      35.019  -7.570 -22.872  0.00  0.00    -0.230 NA
ATOM      5  C   UNL     1      31.618  -7.502 -24.033  0.00  0.00    +0.118 C 
ATOM      6  C   UNL     1      30.959  -8.103 -22.797  0.00  0.00    +0.116 C 
ATOM      7  C   UNL     1      33.141  -8.953 -21.927  0.00  0.00    +0.155 C 
ATOM      8  C   UNL     1      33.759  -7.955 -22.847  0.00  0.00    +0.133 C 
ATOM      9  C   UNL     1      33.860  -6.437 -24.463  0.00  0.00    +0.072 C 
ATOM     10  C   UNL     1      35.088  -6.630 -23.872  0.00  0.00    +0.115 C 
ATOM     11  C   UNL     1      31.126 -10.490 -22.171  0.00  0.00    +0.255 C 
ENDROOT
BRANCH   9  12
ATOM     12  C   UNL     1      33.465  -5.551 -25.529  0.00  0.00    +0.015 C 
ATOM     13  C   UNL     1      32.948  -4.289 -25.230  0.00  0.00    +0.001 C 
ATOM     14  C   UNL     1      33.598  -5.952 -26.858  0.00  0.00    +0.001 C 
ATOM     15  C   UNL     1      32.565  -3.432 -26.261  0.00  0.00    +0.000 C 
ATOM     16  C   UNL     1      33.216  -5.094 -27.888  0.00  0.00    +0.000 C 
ATOM     17  C   UNL     1      32.698  -3.833 -27.590  0.00  0.00    +0.000 C 
ENDBRANCH   9  12
BRANCH  11  19
ATOM     18  S   UNL     1      32.911 -12.524 -22.650  0.00  0.00    -0.078 S 
ATOM     19  C   UNL     1      31.915 -11.599 -21.611  0.00  0.00    +0.083 C 
ATOM     20  C   UNL     1      31.980 -12.036 -20.306  0.00  0.00    +0.012 C 
ATOM     21  C   UNL     1      33.435 -13.514 -21.354  0.00  0.00    +0.085 C 
ATOM     22  C   UNL     1      32.862 -13.146 -20.157  0.00  0.00    +0.012 C 
BRANCH  21  25
ATOM     23  O   UNL     1      34.822 -15.290 -20.693  0.00  0.00    -0.268 OA
ATOM     24  N   UNL     1      34.777 -14.769 -22.938  0.00  0.00    -0.193 N 
ATOM     25  C   UNL     1      34.365 -14.565 -21.616  0.00  0.00    +0.274 C 
ATOM     26  H   UNL     1      34.429 -14.209 -23.670  0.00  0.00    +0.183 HD
BRANCH  24  27
ATOM     27  O   UNL     1      35.701 -15.794 -23.185  0.00  0.00    -0.295 OA
ATOM     28  H   UNL     1      36.066 -15.693 -24.078  0.00  0.00    +0.241 HD
ENDBRANCH  24  27
ENDBRANCH  21  25
ENDBRANCH  11  19
TORSDOF 4
ENDMDL
MODEL 6
REMARK VINA RESULT:      -9.2     10.992     14.666
REMARK  Name = 24836811
REMARK  4 active torsions:
REMARK  status: ('A' for Active; 'I' for Inactive)
REMARK    1  A    between atoms: C_9  and  C_12
REMARK    2  A    between atoms: C_11  and  C_19
REMARK    3  A    between atoms: C_21  and  C_25
REMARK    4  A    between atoms: N_24  and  O_27
REMARK                            x       y       z     vdW  Elec       q    Type
REMARK                         _______ _______ _______ _____ _____    ______ ____
ROOT
ATOM      1  O   UNL     1      30.671 -10.855 -22.238  0.00  0.00    -0.269 OA
ATOM      2  N   UNL     1      32.905  -6.850 -23.687  0.00  0.00    -0.271 N 
ATOM      3  N   UNL     1      32.408  -9.310 -22.499  0.00  0.00    -0.267 N 
ATOM      4  N   UNL     1      35.056  -7.211 -24.055  0.00  0.00    -0.230 NA
ATOM      5  C   UNL     1      31.559  -7.124 -23.229  0.00  0.00    +0.118 C 
ATOM      6  C   UNL     1      31.578  -8.162 -22.113  0.00  0.00    +0.116 C 
ATOM      7  C   UNL     1      33.819  -9.016 -22.811  0.00  0.00    +0.155 C 
ATOM      8  C   UNL     1      33.960  -7.713 -23.523  0.00  0.00    +0.133 C 
ATOM      9  C   UNL     1      33.345  -5.749 -24.354  0.00  0.00    +0.072 C 
ATOM     10  C   UNL     1      34.681  -5.994 -24.571  0.00  0.00    +0.115 C 
ATOM     11  C   UNL     1      31.845 -10.591 -22.496  0.00  0.00    +0.255 C 
ENDROOT
BRANCH   9  12
ATOM     12  C   UNL     1      32.534  -4.609 -24.705  0.00  0.00    +0.015 C 
ATOM     13  C   UNL     1      32.132  -3.709 -23.717  0.00  0.00    +0.001 C 
ATOM     14  C   UNL     1      32.152  -4.405 -26.030  0.00  0.00    +0.001 C 
ATOM     15  C   UNL     1      31.348  -2.607 -24.056  0.00  0.00    +0.000 C 
ATOM     16  C   UNL     1      31.368  -3.302 -26.369  0.00  0.00    +0.000 C 
ATOM     17  C   UNL     1      30.965  -2.403 -25.381  0.00  0.00    +0.000 C 
ENDBRANCH   9  12
BRANCH  11  19
ATOM     18  S   UNL     1      33.038 -12.904 -21.614  0.00  0.00    -0.078 S 
ATOM     19  C   UNL     1      32.714 -11.733 -22.819  0.00  0.00    +0.083 C 
ATOM     20  C   UNL     1      33.346 -12.025 -24.008  0.00  0.00    +0.012 C 
ATOM     21  C   UNL     1      34.027 -13.808 -22.682  0.00  0.00    +0.085 C 
ATOM     22  C   UNL     1      34.106 -13.228 -23.929  0.00  0.00    +0.012 C 
BRANCH  21  25
ATOM     23  O   UNL     1      34.640 -15.319 -20.992  0.00  0.00    -0.268 OA
ATOM     24  N   UNL     1      35.259 -15.844 -23.150  0.00  0.00    -0.193 N 
ATOM     25  C   UNL     1      34.638 -15.009 -22.213  0.00  0.00    +0.274 C 
ATOM     26  H   UNL     1      35.267 -15.615 -24.107  0.00  0.00    +0.183 HD
BRANCH  24  27
ATOM     27  O   UNL     1      35.870 -17.015 -22.679  0.00  0.00    -0.295 OA
ATOM     28  H   UNL     1      35.871 -17.684 -23.382  0.00  0.00    +0.241 HD
ENDBRANCH  24  27
ENDBRANCH  21  25
ENDBRANCH  11  19
TORSDOF 4
ENDMDL
MODEL 7
REMARK VINA RESULT:      -9.2      9.346     13.104
REMARK  Name = 24836811
REMARK  4 active torsions:
REMARK  status: ('A' for Active; 'I' for Inactive)
REMARK    1  A    between atoms: C_9  and  C_12
REMARK    2  A    between atoms: C_11  and  C_19
REMARK    3  A    between atoms: C_21  and  C_25
REMARK    4  A    between atoms: N_24  and  O_27
REMARK                            x       y       z     vdW  Elec       q    Type
REMARK                         _______ _______ _______ _____ _____    ______ ____
ROOT
ATOM      1  O   UNL     1      31.951 -11.164 -19.036  0.00  0.00    -0.269 OA
ATOM      2  N   UNL     1      33.341 -14.290 -22.417  0.00  0.00    -0.271 N 
ATOM      3  N   UNL     1      31.989 -12.247 -21.109  0.00  0.00    -0.267 N 
ATOM      4  N   UNL     1      33.128 -13.436 -24.446  0.00  0.00    -0.230 NA
ATOM      5  C   UNL     1      33.187 -14.386 -20.980  0.00  0.00    +0.118 C 
ATOM      6  C   UNL     1      31.971 -13.591 -20.520  0.00  0.00    +0.116 C 
ATOM      7  C   UNL     1      31.989 -12.183 -22.583  0.00  0.00    +0.155 C 
ATOM      8  C   UNL     1      32.814 -13.275 -23.176  0.00  0.00    +0.133 C 
ATOM      9  C   UNL     1      34.022 -15.136 -23.236  0.00  0.00    +0.072 C 
ATOM     10  C   UNL     1      33.877 -14.586 -24.489  0.00  0.00    +0.115 C 
ATOM     11  C   UNL     1      31.951 -11.131 -20.266  0.00  0.00    +0.255 C 
ENDROOT
BRANCH   9  12
ATOM     12  C   UNL     1      34.707 -16.332 -22.813  0.00  0.00    +0.015 C 
ATOM     13  C   UNL     1      35.304 -16.385 -21.552  0.00  0.00    +0.001 C 
ATOM     14  C   UNL     1      34.774 -17.437 -23.662  0.00  0.00    +0.001 C 
ATOM     15  C   UNL     1      35.967 -17.542 -21.143  0.00  0.00    +0.000 C 
ATOM     16  C   UNL     1      35.436 -18.594 -23.252  0.00  0.00    +0.000 C 
ATOM     17  C   UNL     1      36.033 -18.646 -21.992  0.00  0.00    +0.000 C 
ENDBRANCH   9  12
BRANCH  11  19
ATOM     18  S   UNL     1      32.006  -8.410 -19.882  0.00  0.00    -0.078 S 
ATOM     19  C   UNL     1      31.900  -9.795 -20.882  0.00  0.00    +0.083 C 
ATOM     20  C   UNL     1      31.774  -9.465 -22.213  0.00  0.00    +0.012 C 
ATOM     21  C   UNL     1      31.882  -7.362 -21.230  0.00  0.00    +0.085 C 
ATOM     22  C   UNL     1      31.764  -8.054 -22.415  0.00  0.00    +0.012 C 
BRANCH  21  25
ATOM     23  O   UNL     1      32.862  -5.395 -20.402  0.00  0.00    -0.268 OA
ATOM     24  N   UNL     1      30.848  -5.184 -21.503  0.00  0.00    -0.193 N 
ATOM     25  C   UNL     1      31.915  -5.951 -21.018  0.00  0.00    +0.274 C 
ATOM     26  H   UNL     1      30.099  -5.604 -21.986  0.00  0.00    +0.183 HD
BRANCH  24  27
ATOM     27  O   UNL     1      30.881  -3.801 -21.278  0.00  0.00    -0.295 OA
ATOM     28  H   UNL     1      31.779  -3.469 -21.432  0.00  0.00    +0.241 HD
ENDBRANCH  24  27
ENDBRANCH  21  25
ENDBRANCH  11  19
TORSDOF 4
ENDMDL
MODEL 8
REMARK VINA RESULT:      -9.1      5.473      8.798
REMARK  Name = 24836811
REMARK  4 active torsions:
REMARK  status: ('A' for Active; 'I' for Inactive)
REMARK    1  A    between atoms: C_9  and  C_12
REMARK    2  A    between atoms: C_11  and  C_19
REMARK    3  A    between atoms: C_21  and  C_25
REMARK    4  A    between atoms: N_24  and  O_27
REMARK                            x       y       z     vdW  Elec       q    Type
REMARK                         _______ _______ _______ _____ _____    ______ ____
ROOT
ATOM      1  O   UNL     1      32.735 -23.076 -17.606  0.00  0.00    -0.269 OA
ATOM      2  N   UNL     1      35.604 -24.289 -13.942  0.00  0.00    -0.271 N 
ATOM      3  N   UNL     1      33.553 -23.135 -15.416  0.00  0.00    -0.267 N 
ATOM      4  N   UNL     1      34.490 -24.368 -12.033  0.00  0.00    -0.230 NA
ATOM      5  C   UNL     1      35.848 -24.005 -15.341  0.00  0.00    +0.118 C 
ATOM      6  C   UNL     1      34.941 -22.879 -15.822  0.00  0.00    +0.116 C 
ATOM      7  C   UNL     1      33.314 -23.267 -13.967  0.00  0.00    +0.155 C 
ATOM      8  C   UNL     1      34.438 -23.976 -13.290  0.00  0.00    +0.133 C 
ATOM      9  C   UNL     1      36.438 -24.911 -13.066  0.00  0.00    +0.072 C 
ATOM     10  C   UNL     1      35.727 -24.949 -11.889  0.00  0.00    +0.115 C 
ATOM     11  C   UNL     1      32.554 -23.184 -16.395  0.00  0.00    +0.255 C 
ENDROOT
BRANCH   9  12
ATOM     12  C   UNL     1      37.766 -25.383 -13.372  0.00  0.00    +0.015 C 
ATOM     13  C   UNL     1      37.937 -26.590 -14.051  0.00  0.00    +0.001 C 
ATOM     14  C   UNL     1      38.879 -24.635 -12.990  0.00  0.00    +0.001 C 
ATOM     15  C   UNL     1      39.221 -27.047 -14.347  0.00  0.00    +0.000 C 
ATOM     16  C   UNL     1      40.163 -25.091 -13.286  0.00  0.00    +0.000 C 
ATOM     17  C   UNL     1      40.334 -26.299 -13.965  0.00  0.00    +0.000 C 
ENDBRANCH   9  12
BRANCH  11  19
ATOM     18  S   UNL     1      29.983 -22.213 -16.397  0.00  0.00    -0.078 S 
ATOM     19  C   UNL     1      31.162 -23.373 -15.957  0.00  0.00    +0.083 C 
ATOM     20  C   UNL     1      30.627 -24.396 -15.206  0.00  0.00    +0.012 C 
ATOM     21  C   UNL     1      28.750 -23.077 -15.581  0.00  0.00    +0.085 C 
ATOM     22  C   UNL     1      29.228 -24.225 -14.988  0.00  0.00    +0.012 C 
BRANCH  21  25
ATOM     23  O   UNL     1      26.726 -22.496 -14.543  0.00  0.00    -0.268 OA
ATOM     24  N   UNL     1      26.883 -22.143 -16.815  0.00  0.00    -0.193 N 
ATOM     25  C   UNL     1      27.419 -22.564 -15.592  0.00  0.00    +0.274 C 
ATOM     26  H   UNL     1      27.412 -22.191 -17.645  0.00  0.00    +0.183 HD
BRANCH  24  27
ATOM     27  O   UNL     1      25.569 -21.653 -16.820  0.00  0.00    -0.295 OA
ATOM     28  H   UNL     1      25.264 -21.554 -17.736  0.00  0.00    +0.241 HD
ENDBRANCH  24  27
ENDBRANCH  21  25
ENDBRANCH  11  19
TORSDOF 4
ENDMDL
MODEL 9
REMARK VINA RESULT:      -9.0      7.544     11.120
REMARK  Name = 24836811
REMARK  4 active torsions:
REMARK  status: ('A' for Active; 'I' for Inactive)
REMARK    1  A    between atoms: C_9  and  C_12
REMARK    2  A    between atoms: C_11  and  C_19
REMARK    3  A    between atoms: C_21  and  C_25
REMARK    4  A    between atoms: N_24  and  O_27
REMARK                            x       y       z     vdW  Elec       q    Type
REMARK                         _______ _______ _______ _____ _____    ______ ____
ROOT
ATOM      1  O   UNL     1      34.353 -13.763 -25.558  0.00  0.00    -0.269 OA
ATOM      2  N   UNL     1      32.341 -11.370 -21.904  0.00  0.00    -0.271 N 
ATOM      3  N   UNL     1      32.949 -13.372 -23.729  0.00  0.00    -0.267 N 
ATOM      4  N   UNL     1      31.776 -12.733 -20.257  0.00  0.00    -0.230 NA
ATOM      5  C   UNL     1      32.780 -10.974 -23.226  0.00  0.00    +0.118 C 
ATOM      6  C   UNL     1      32.483 -12.076 -24.237  0.00  0.00    +0.116 C 
ATOM      7  C   UNL     1      32.364 -13.818 -22.451  0.00  0.00    +0.155 C 
ATOM      8  C   UNL     1      32.160 -12.674 -21.516  0.00  0.00    +0.133 C 
ATOM      9  C   UNL     1      32.064 -10.560 -20.847  0.00  0.00    +0.072 C 
ATOM     10  C   UNL     1      31.717 -11.427 -19.836  0.00  0.00    +0.115 C 
ATOM     11  C   UNL     1      33.855 -14.118 -24.491  0.00  0.00    +0.255 C 
ENDROOT
BRANCH   9  12
ATOM     12  C   UNL     1      32.128  -9.119 -20.862  0.00  0.00    +0.015 C 
ATOM     13  C   UNL     1      32.864  -8.444 -19.887  0.00  0.00    +0.001 C 
ATOM     14  C   UNL     1      31.456  -8.400 -21.850  0.00  0.00    +0.001 C 
ATOM     15  C   UNL     1      32.925  -7.051 -19.902  0.00  0.00    +0.000 C 
ATOM     16  C   UNL     1      31.519  -7.007 -21.865  0.00  0.00    +0.000 C 
ATOM     17  C   UNL     1      32.253  -6.332 -20.890  0.00  0.00    +0.000 C 
ENDBRANCH   9  12
BRANCH  11  19
ATOM     18  S   UNL     1      35.062 -15.564 -22.490  0.00  0.00    -0.078 S 
ATOM     19  C   UNL     1      34.254 -15.444 -23.995  0.00  0.00    +0.083 C 
ATOM     20  C   UNL     1      34.070 -16.676 -24.584  0.00  0.00    +0.012 C 
ATOM     21  C   UNL     1      35.168 -17.268 -22.623  0.00  0.00    +0.085 C 
ATOM     22  C   UNL     1      34.600 -17.733 -23.788  0.00  0.00    +0.012 C 
BRANCH  21  25
ATOM     23  O   UNL     1      35.148 -18.419 -20.576  0.00  0.00    -0.268 OA
ATOM     24  N   UNL     1      37.168 -18.260 -21.674  0.00  0.00    -0.193 N 
ATOM     25  C   UNL     1      35.795 -18.008 -21.575  0.00  0.00    +0.274 C 
ATOM     26  H   UNL     1      37.688 -17.945 -22.449  0.00  0.00    +0.183 HD
BRANCH  24  27
ATOM     27  O   UNL     1      37.779 -18.975 -20.634  0.00  0.00    -0.295 OA
ATOM     28  H   UNL     1      37.429 -18.670 -19.783  0.00  0.00    +0.241 HD
ENDBRANCH  24  27
ENDBRANCH  21  25
ENDBRANCH  11  19
TORSDOF 4
ENDMDL
