MODEL 1
REMARK VINA RESULT:     -11.9      0.000      0.000
REMARK  Name = 16719221
REMARK  6 active torsions:
REMARK  status: ('A' for Active; 'I' for Inactive)
REMARK    1  A    between atoms: C_3  and  C_20
REMARK    2  A    between atoms: C_11  and  O_13
REMARK    3  A    between atoms: O_13  and  C_16
REMARK    4  A    between atoms: C_20  and  C_24
REMARK    5  A    between atoms: N_22  and  S_30
REMARK    6  A    between atoms: S_30  and  N_33
REMARK                            x       y       z     vdW  Elec       q    Type
REMARK                         _______ _______ _______ _____ _____    ______ ____
ROOT
ATOM      1  O   UNL     1      36.942 -20.192 -19.512  0.00  0.00    -0.421 OA
ATOM      2  O   UNL     1      37.996 -18.670 -20.824  0.00  0.00    -0.245 OA
ATOM      3  C   UNL     1      35.699 -19.070 -21.312  0.00  0.00    +0.054 A 
ATOM      4  C   UNL     1      34.583 -19.772 -21.022  0.00  0.00    -0.016 A 
ATOM      5  C   UNL     1      34.598 -20.725 -19.893  0.00  0.00    +0.031 A 
ATOM      6  C   UNL     1      35.779 -20.903 -19.178  0.00  0.00    +0.151 A 
ATOM      7  C   UNL     1      36.965 -19.275 -20.550  0.00  0.00    +0.342 A 
ATOM      8  C   UNL     1      33.296 -19.658 -21.801  0.00  0.00    +0.031 C 
ATOM      9  C   UNL     1      33.482 -21.469 -19.479  0.00  0.00    +0.006 C 
ATOM     10  C   UNL     1      35.880 -21.784 -18.098  0.00  0.00    +0.076 C 
ATOM     11  C   UNL     1      34.762 -22.514 -17.709  0.00  0.00    +0.162 C 
ATOM     12  C   UNL     1      33.564 -22.356 -18.398  0.00  0.00    +0.039 C 
ENDROOT
BRANCH  11  13
ATOM     13  O   UNL     1      34.839 -23.377 -16.660  0.00  0.00    -0.392 OA
BRANCH  13  16
ATOM     14  N   UNL     1      34.054 -23.477 -14.475  0.00  0.00    -0.185 NA
ATOM     15  N   UNL     1      32.537 -23.433 -16.347  0.00  0.00    -0.162 NA
ATOM     16  C   UNL     1      33.763 -23.432 -15.789  0.00  0.00    +0.196 C 
ATOM     17  C   UNL     1      32.984 -23.530 -13.656  0.00  0.00    +0.167 C 
ATOM     18  C   UNL     1      31.513 -23.488 -15.471  0.00  0.00    +0.110 C 
ATOM     19  C   UNL     1      31.677 -23.538 -14.102  0.00  0.00    +0.022 C 
ENDBRANCH  13  16
ENDBRANCH  11  13
BRANCH   3  20
ATOM     20  C   UNL     1      35.802 -18.023 -22.392  0.00  0.00    +0.061 C 
BRANCH  20  24
ATOM     21  F   UNL     1      35.368 -15.839 -24.154  0.00  0.00    -0.202 F 
ATOM     22  N   UNL     1      34.404 -13.366 -23.285  0.00  0.00    -0.187 N 
ATOM     23  N   UNL     1      34.323 -14.208 -21.084  0.00  0.00    -0.226 NA
ATOM     24  C   UNL     1      35.286 -16.689 -21.937  0.00  0.00    +0.014 C 
ATOM     25  C   UNL     1      35.095 -15.661 -22.854  0.00  0.00    +0.169 C 
ATOM     26  C   UNL     1      34.995 -16.478 -20.594  0.00  0.00    +0.019 C 
ATOM     27  C   UNL     1      34.617 -14.451 -22.382  0.00  0.00    +0.175 C 
ATOM     28  C   UNL     1      34.520 -15.230 -20.222  0.00  0.00    +0.100 C 
ATOM     29  H   UNL     1      35.055 -13.157 -23.994  0.00  0.00    +0.176 HD
BRANCH  22  30
ATOM     30  S   UNL     1      32.960 -12.431 -23.088  0.00  0.00    +0.111 S 
ATOM     31  O   UNL     1      33.052 -11.272 -23.957  0.00  0.00    -0.138 OA
ATOM     32  O   UNL     1      31.802 -13.302 -23.170  0.00  0.00    -0.138 OA
BRANCH  30  33
ATOM     33  N   UNL     1      33.112 -11.901 -21.456  0.00  0.00    -0.165 NA
ATOM     34  C   UNL     1      31.867 -11.641 -20.700  0.00  0.00    +0.112 C 
ATOM     35  H   UNL     1      33.649 -11.033 -21.467  0.00  0.00    +0.150 HD
ENDBRANCH  30  33
ENDBRANCH  22  30
ENDBRANCH  20  24
ENDBRANCH   3  20
TORSDOF 6
ENDMDL
MODEL 2
REMARK VINA RESULT:     -11.6      3.737      6.324
REMARK  Name = 16719221
REMARK  6 active torsions:
REMARK  status: ('A' for Active; 'I' for Inactive)
REMARK    1  A    between atoms: C_3  and  C_20
REMARK    2  A    between atoms: C_11  and  O_13
REMARK    3  A    between atoms: O_13  and  C_16
REMARK    4  A    between atoms: C_20  and  C_24
REMARK    5  A    between atoms: N_22  and  S_30
REMARK    6  A    between atoms: S_30  and  N_33
REMARK                            x       y       z     vdW  Elec       q    Type
REMARK                         _______ _______ _______ _____ _____    ______ ____
ROOT
ATOM      1  O   UNL     1      33.856 -14.557 -20.546  0.00  0.00    -0.421 OA
ATOM      2  O   UNL     1      32.539 -12.716 -20.381  0.00  0.00    -0.245 OA
ATOM      3  C   UNL     1      32.854 -13.593 -22.574  0.00  0.00    +0.054 A 
ATOM      4  C   UNL     1      33.457 -14.518 -23.350  0.00  0.00    -0.016 A 
ATOM      5  C   UNL     1      34.288 -15.564 -22.719  0.00  0.00    +0.031 A 
ATOM      6  C   UNL     1      34.461 -15.546 -21.338  0.00  0.00    +0.151 A 
ATOM      7  C   UNL     1      33.052 -13.572 -21.095  0.00  0.00    +0.342 A 
ATOM      8  C   UNL     1      33.350 -14.548 -24.854  0.00  0.00    +0.031 C 
ATOM      9  C   UNL     1      34.920 -16.598 -23.427  0.00  0.00    +0.006 C 
ATOM     10  C   UNL     1      35.230 -16.496 -20.662  0.00  0.00    +0.076 C 
ATOM     11  C   UNL     1      35.851 -17.509 -21.385  0.00  0.00    +0.162 C 
ATOM     12  C   UNL     1      35.695 -17.561 -22.767  0.00  0.00    +0.039 C 
ENDROOT
BRANCH  11  13
ATOM     13  O   UNL     1      36.604 -18.443 -20.747  0.00  0.00    -0.392 OA
BRANCH  13  16
ATOM     14  N   UNL     1      36.701 -20.385 -19.473  0.00  0.00    -0.185 NA
ATOM     15  N   UNL     1      34.635 -19.645 -20.468  0.00  0.00    -0.162 NA
ATOM     16  C   UNL     1      35.952 -19.539 -20.206  0.00  0.00    +0.196 C 
ATOM     17  C   UNL     1      36.034 -21.440 -18.961  0.00  0.00    +0.167 C 
ATOM     18  C   UNL     1      34.031 -20.723 -19.927  0.00  0.00    +0.110 C 
ATOM     19  C   UNL     1      34.686 -21.663 -19.157  0.00  0.00    +0.022 C 
ENDBRANCH  13  16
ENDBRANCH  11  13
BRANCH   3  20
ATOM     20  C   UNL     1      31.931 -12.514 -23.079  0.00  0.00    +0.061 C 
BRANCH  20  24
ATOM     21  F   UNL     1      30.625 -10.036 -22.613  0.00  0.00    -0.202 F 
ATOM     22  N   UNL     1      31.931  -7.577 -22.828  0.00  0.00    -0.187 N 
ATOM     23  N   UNL     1      33.913  -8.718 -23.404  0.00  0.00    -0.226 NA
ATOM     24  C   UNL     1      32.621 -11.187 -23.193  0.00  0.00    +0.014 C 
ATOM     25  C   UNL     1      31.921 -10.010 -22.950  0.00  0.00    +0.169 C 
ATOM     26  C   UNL     1      33.966 -11.131 -23.541  0.00  0.00    +0.019 C 
ATOM     27  C   UNL     1      32.606  -8.812 -23.069  0.00  0.00    +0.175 C 
ATOM     28  C   UNL     1      34.560  -9.882 -23.632  0.00  0.00    +0.100 C 
ATOM     29  H   UNL     1      31.021  -7.418 -23.169  0.00  0.00    +0.176 HD
BRANCH  22  30
ATOM     30  S   UNL     1      32.772  -6.369 -21.917  0.00  0.00    +0.111 S 
ATOM     31  O   UNL     1      33.831  -5.830 -22.751  0.00  0.00    -0.138 OA
ATOM     32  O   UNL     1      31.815  -5.470 -21.300  0.00  0.00    -0.138 OA
BRANCH  30  33
ATOM     33  N   UNL     1      33.493  -7.315 -20.671  0.00  0.00    -0.165 NA
ATOM     34  C   UNL     1      32.592  -7.951 -19.684  0.00  0.00    +0.112 C 
ATOM     35  H   UNL     1      34.129  -6.707 -20.155  0.00  0.00    +0.150 HD
ENDBRANCH  30  33
ENDBRANCH  22  30
ENDBRANCH  20  24
ENDBRANCH   3  20
TORSDOF 6
ENDMDL
MODEL 3
REMARK VINA RESULT:     -11.5      1.420      1.882
REMARK  Name = 16719221
REMARK  6 active torsions:
REMARK  status: ('A' for Active; 'I' for Inactive)
REMARK    1  A    between atoms: C_3  and  C_20
REMARK    2  A    between atoms: C_11  and  O_13
REMARK    3  A    between atoms: O_13  and  C_16
REMARK    4  A    between atoms: C_20  and  C_24
REMARK    5  A    between atoms: N_22  and  S_30
REMARK    6  A    between atoms: S_30  and  N_33
REMARK                            x       y       z     vdW  Elec       q    Type
REMARK                         _______ _______ _______ _____ _____    ______ ____
ROOT
ATOM      1  O   UNL     1      36.781 -20.349 -19.363  0.00  0.00    -0.421 OA
ATOM      2  O   UNL     1      37.952 -18.881 -20.637  0.00  0.00    -0.245 OA
ATOM      3  C   UNL     1      35.660 -19.181 -21.213  0.00  0.00    +0.054 A 
ATOM      4  C   UNL     1      34.504 -19.832 -20.965  0.00  0.00    -0.016 A 
ATOM      5  C   UNL     1      34.432 -20.779 -19.833  0.00  0.00    +0.031 A 
ATOM      6  C   UNL     1      35.576 -21.006 -19.072  0.00  0.00    +0.151 A 
ATOM      7  C   UNL     1      36.885 -19.438 -20.401  0.00  0.00    +0.342 A 
ATOM      8  C   UNL     1      33.254 -19.665 -21.794  0.00  0.00    +0.031 C 
ATOM      9  C   UNL     1      33.269 -21.470 -19.460  0.00  0.00    +0.006 C 
ATOM     10  C   UNL     1      35.595 -21.884 -17.986  0.00  0.00    +0.076 C 
ATOM     11  C   UNL     1      34.431 -22.563 -17.638  0.00  0.00    +0.162 C 
ATOM     12  C   UNL     1      33.269 -22.355 -18.374  0.00  0.00    +0.039 C 
ENDROOT
BRANCH  11  13
ATOM     13  O   UNL     1      34.429 -23.422 -16.585  0.00  0.00    -0.392 OA
BRANCH  13  16
ATOM     14  N   UNL     1      35.930 -24.707 -15.361  0.00  0.00    -0.185 NA
ATOM     15  N   UNL     1      36.201 -22.321 -15.562  0.00  0.00    -0.162 NA
ATOM     16  C   UNL     1      35.570 -23.486 -15.801  0.00  0.00    +0.196 C 
ATOM     17  C   UNL     1      37.045 -24.734 -14.602  0.00  0.00    +0.167 C 
ATOM     18  C   UNL     1      37.307 -22.420 -14.796  0.00  0.00    +0.110 C 
ATOM     19  C   UNL     1      37.782 -23.610 -14.283  0.00  0.00    +0.022 C 
ENDBRANCH  13  16
ENDBRANCH  11  13
BRANCH   3  20
ATOM     20  C   UNL     1      35.852 -18.145 -22.292  0.00  0.00    +0.061 C 
BRANCH  20  24
ATOM     21  F   UNL     1      35.435 -16.013 -24.120  0.00  0.00    -0.202 F 
ATOM     22  N   UNL     1      34.469 -13.514 -23.330  0.00  0.00    -0.187 N 
ATOM     23  N   UNL     1      34.369 -14.292 -21.107  0.00  0.00    -0.226 NA
ATOM     24  C   UNL     1      35.335 -16.798 -21.880  0.00  0.00    +0.014 C 
ATOM     25  C   UNL     1      35.153 -15.797 -22.828  0.00  0.00    +0.169 C 
ATOM     26  C   UNL     1      35.033 -16.548 -20.545  0.00  0.00    +0.019 C 
ATOM     27  C   UNL     1      34.673 -14.573 -22.394  0.00  0.00    +0.175 C 
ATOM     28  C   UNL     1      34.558 -15.289 -20.214  0.00  0.00    +0.100 C 
ATOM     29  H   UNL     1      35.126 -13.327 -24.040  0.00  0.00    +0.176 HD
BRANCH  22  30
ATOM     30  S   UNL     1      33.025 -12.572 -23.172  0.00  0.00    +0.111 S 
ATOM     31  O   UNL     1      33.121 -11.444 -24.080  0.00  0.00    -0.138 OA
ATOM     32  O   UNL     1      31.866 -13.444 -23.228  0.00  0.00    -0.138 OA
BRANCH  30  33
ATOM     33  N   UNL     1      33.171 -11.985 -21.559  0.00  0.00    -0.165 NA
ATOM     34  C   UNL     1      31.937 -11.892 -20.748  0.00  0.00    +0.112 C 
ATOM     35  H   UNL     1      33.572 -11.049 -21.611  0.00  0.00    +0.150 HD
ENDBRANCH  30  33
ENDBRANCH  22  30
ENDBRANCH  20  24
ENDBRANCH   3  20
TORSDOF 6
ENDMDL
MODEL 4
REMARK VINA RESULT:     -11.1      3.932      6.853
REMARK  Name = 16719221
REMARK  6 active torsions:
REMARK  status: ('A' for Active; 'I' for Inactive)
REMARK    1  A    between atoms: C_3  and  C_20
REMARK    2  A    between atoms: C_11  and  O_13
REMARK    3  A    between atoms: O_13  and  C_16
REMARK    4  A    between atoms: C_20  and  C_24
REMARK    5  A    between atoms: N_22  and  S_30
REMARK    6  A    between atoms: S_30  and  N_33
REMARK                            x       y       z     vdW  Elec       q    Type
REMARK                         _______ _______ _______ _____ _____    ______ ____
ROOT
ATOM      1  O   UNL     1      33.541 -14.335 -20.179  0.00  0.00    -0.421 OA
ATOM      2  O   UNL     1      32.138 -12.670 -19.538  0.00  0.00    -0.245 OA
ATOM      3  C   UNL     1      32.340 -13.033 -21.884  0.00  0.00    +0.054 A 
ATOM      4  C   UNL     1      32.936 -13.726 -22.878  0.00  0.00    -0.016 A 
ATOM      5  C   UNL     1      33.869 -14.821 -22.540  0.00  0.00    +0.031 A 
ATOM      6  C   UNL     1      34.141 -15.085 -21.201  0.00  0.00    +0.151 A 
ATOM      7  C   UNL     1      32.645 -13.314 -20.451  0.00  0.00    +0.342 A 
ATOM      8  C   UNL     1      32.720 -13.442 -24.343  0.00  0.00    +0.031 C 
ATOM      9  C   UNL     1      34.505 -15.632 -23.493  0.00  0.00    +0.006 C 
ATOM     10  C   UNL     1      35.010 -16.102 -20.796  0.00  0.00    +0.076 C 
ATOM     11  C   UNL     1      35.633 -16.889 -21.758  0.00  0.00    +0.162 C 
ATOM     12  C   UNL     1      35.379 -16.656 -23.106  0.00  0.00    +0.039 C 
ENDROOT
BRANCH  11  13
ATOM     13  O   UNL     1      36.483 -17.882 -21.384  0.00  0.00    -0.392 OA
BRANCH  13  16
ATOM     14  N   UNL     1      34.649 -19.260 -21.008  0.00  0.00    -0.185 NA
ATOM     15  N   UNL     1      36.769 -19.681 -19.941  0.00  0.00    -0.162 NA
ATOM     16  C   UNL     1      35.943 -18.989 -20.750  0.00  0.00    +0.196 C 
ATOM     17  C   UNL     1      34.156 -20.344 -20.374  0.00  0.00    +0.167 C 
ATOM     18  C   UNL     1      36.211 -20.752 -19.340  0.00  0.00    +0.110 C 
ATOM     19  C   UNL     1      34.898 -21.136 -19.520  0.00  0.00    +0.022 C 
ENDBRANCH  13  16
ENDBRANCH  11  13
BRANCH   3  20
ATOM     20  C   UNL     1      31.322 -11.939 -22.086  0.00  0.00    +0.061 C 
BRANCH  20  24
ATOM     21  F   UNL     1      32.594 -10.686 -24.294  0.00  0.00    -0.202 F 
ATOM     22  N   UNL     1      33.732  -8.140 -24.134  0.00  0.00    -0.187 N 
ATOM     23  N   UNL     1      33.082  -8.028 -21.871  0.00  0.00    -0.226 NA
ATOM     24  C   UNL     1      31.938 -10.574 -22.013  0.00  0.00    +0.014 C 
ATOM     25  C   UNL     1      32.545 -10.017 -23.134  0.00  0.00    +0.169 C 
ATOM     26  C   UNL     1      31.902  -9.858 -20.821  0.00  0.00    +0.019 C 
ATOM     27  C   UNL     1      33.099  -8.754 -23.011  0.00  0.00    +0.175 C 
ATOM     28  C   UNL     1      32.483  -8.600 -20.802  0.00  0.00    +0.100 C 
ATOM     29  H   UNL     1      34.326  -8.654 -24.729  0.00  0.00    +0.176 HD
BRANCH  22  30
ATOM     30  S   UNL     1      33.418  -6.460 -24.412  0.00  0.00    +0.111 S 
ATOM     31  O   UNL     1      34.221  -5.691 -23.479  0.00  0.00    -0.138 OA
ATOM     32  O   UNL     1      33.499  -6.179 -25.834  0.00  0.00    -0.138 OA
BRANCH  30  33
ATOM     33  N   UNL     1      31.766  -6.335 -23.939  0.00  0.00    -0.165 NA
ATOM     34  C   UNL     1      31.364  -5.145 -23.157  0.00  0.00    +0.112 C 
ATOM     35  H   UNL     1      31.547  -7.157 -23.376  0.00  0.00    +0.150 HD
ENDBRANCH  30  33
ENDBRANCH  22  30
ENDBRANCH  20  24
ENDBRANCH   3  20
TORSDOF 6
ENDMDL
MODEL 5
REMARK VINA RESULT:     -11.0      5.268      9.377
REMARK  Name = 16719221
REMARK  6 active torsions:
REMARK  status: ('A' for Active; 'I' for Inactive)
REMARK    1  A    between atoms: C_3  and  C_20
REMARK    2  A    between atoms: C_11  and  O_13
REMARK    3  A    between atoms: O_13  and  C_16
REMARK    4  A    between atoms: C_20  and  C_24
REMARK    5  A    between atoms: N_22  and  S_30
REMARK    6  A    between atoms: S_30  and  N_33
REMARK                            x       y       z     vdW  Elec       q    Type
REMARK                         _______ _______ _______ _____ _____    ______ ____
ROOT
ATOM      1  O   UNL     1      33.620 -11.876 -23.192  0.00  0.00    -0.421 OA
ATOM      2  O   UNL     1      32.942 -10.138 -24.486  0.00  0.00    -0.245 OA
ATOM      3  C   UNL     1      31.572 -10.650 -22.605  0.00  0.00    +0.054 A 
ATOM      4  C   UNL     1      31.351 -11.461 -21.549  0.00  0.00    -0.016 A 
ATOM      5  C   UNL     1      32.320 -12.534 -21.243  0.00  0.00    +0.031 A 
ATOM      6  C   UNL     1      33.421 -12.705 -22.078  0.00  0.00    +0.151 A 
ATOM      7  C   UNL     1      32.747 -10.846 -23.503  0.00  0.00    +0.342 A 
ATOM      8  C   UNL     1      30.145 -11.355 -20.649  0.00  0.00    +0.031 C 
ATOM      9  C   UNL     1      32.211 -13.401 -20.145  0.00  0.00    +0.006 C 
ATOM     10  C   UNL     1      34.385 -13.693 -21.861  0.00  0.00    +0.076 C 
ATOM     11  C   UNL     1      34.252 -14.544 -20.769  0.00  0.00    +0.162 C 
ATOM     12  C   UNL     1      33.167 -14.398 -19.911  0.00  0.00    +0.039 C 
ENDROOT
BRANCH  11  13
ATOM     13  O   UNL     1      35.178 -15.513 -20.540  0.00  0.00    -0.392 OA
BRANCH  13  16
ATOM     14  N   UNL     1      35.208 -17.831 -20.703  0.00  0.00    -0.185 NA
ATOM     15  N   UNL     1      35.035 -16.442 -22.665  0.00  0.00    -0.162 NA
ATOM     16  C   UNL     1      35.139 -16.645 -21.338  0.00  0.00    +0.196 C 
ATOM     17  C   UNL     1      35.167 -18.912 -21.510  0.00  0.00    +0.167 C 
ATOM     18  C   UNL     1      35.000 -17.565 -23.411  0.00  0.00    +0.110 C 
ATOM     19  C   UNL     1      35.062 -18.839 -22.884  0.00  0.00    +0.022 C 
ENDBRANCH  13  16
ENDBRANCH  11  13
BRANCH   3  20
ATOM     20  C   UNL     1      30.701  -9.481 -22.990  0.00  0.00    +0.061 C 
BRANCH  20  24
ATOM     21  F   UNL     1      30.396  -7.003 -24.344  0.00  0.00    -0.202 F 
ATOM     22  N   UNL     1      31.386  -4.597 -23.328  0.00  0.00    -0.187 N 
ATOM     23  N   UNL     1      32.213  -5.766 -21.455  0.00  0.00    -0.226 NA
ATOM     24  C   UNL     1      31.229  -8.182 -22.456  0.00  0.00    +0.014 C 
ATOM     25  C   UNL     1      31.044  -7.003 -23.171  0.00  0.00    +0.169 C 
ATOM     26  C   UNL     1      31.905  -8.154 -21.241  0.00  0.00    +0.019 C 
ATOM     27  C   UNL     1      31.551  -5.832 -22.632  0.00  0.00    +0.175 C 
ATOM     28  C   UNL     1      32.373  -6.931 -20.789  0.00  0.00    +0.100 C 
ATOM     29  H   UNL     1      31.512  -4.539 -24.303  0.00  0.00    +0.176 HD
BRANCH  22  30
ATOM     30  S   UNL     1      30.955  -3.203 -22.395  0.00  0.00    +0.111 S 
ATOM     31  O   UNL     1      30.062  -3.630 -21.334  0.00  0.00    -0.138 OA
ATOM     32  O   UNL     1      32.150  -2.447 -22.069  0.00  0.00    -0.138 OA
BRANCH  30  33
ATOM     33  N   UNL     1      30.044  -2.291 -23.537  0.00  0.00    -0.165 NA
ATOM     34  C   UNL     1      30.294  -2.543 -24.974  0.00  0.00    +0.112 C 
ATOM     35  H   UNL     1      30.237  -1.305 -23.363  0.00  0.00    +0.150 HD
ENDBRANCH  30  33
ENDBRANCH  22  30
ENDBRANCH  20  24
ENDBRANCH   3  20
TORSDOF 6
ENDMDL
MODEL 6
REMARK VINA RESULT:     -11.0      3.132      9.803
REMARK  Name = 16719221
REMARK  6 active torsions:
REMARK  status: ('A' for Active; 'I' for Inactive)
REMARK    1  A    between atoms: C_3  and  C_20
REMARK    2  A    between atoms: C_11  and  O_13
REMARK    3  A    between atoms: O_13  and  C_16
REMARK    4  A    between atoms: C_20  and  C_24
REMARK    5  A    between atoms: N_22  and  S_30
REMARK    6  A    between atoms: S_30  and  N_33
REMARK                            x       y       z     vdW  Elec       q    Type
REMARK                         _______ _______ _______ _____ _____    ______ ____
ROOT
ATOM      1  O   UNL     1      35.326 -16.044 -21.450  0.00  0.00    -0.421 OA
ATOM      2  O   UNL     1      36.173 -17.675 -20.118  0.00  0.00    -0.245 OA
ATOM      3  C   UNL     1      35.269 -18.383 -22.206  0.00  0.00    +0.054 A 
ATOM      4  C   UNL     1      34.640 -18.032 -23.348  0.00  0.00    -0.016 A 
ATOM      5  C   UNL     1      34.352 -16.606 -23.608  0.00  0.00    +0.031 A 
ATOM      6  C   UNL     1      34.704 -15.661 -22.648  0.00  0.00    +0.151 A 
ATOM      7  C   UNL     1      35.632 -17.367 -21.176  0.00  0.00    +0.342 A 
ATOM      8  C   UNL     1      34.186 -19.021 -24.393  0.00  0.00    +0.031 C 
ATOM      9  C   UNL     1      33.746 -16.129 -24.781  0.00  0.00    +0.006 C 
ATOM     10  C   UNL     1      34.468 -14.294 -22.815  0.00  0.00    +0.076 C 
ATOM     11  C   UNL     1      33.862 -13.846 -23.983  0.00  0.00    +0.162 C 
ATOM     12  C   UNL     1      33.502 -14.762 -24.967  0.00  0.00    +0.039 C 
ENDROOT
BRANCH  11  13
ATOM     13  O   UNL     1      33.623 -12.520 -24.165  0.00  0.00    -0.392 OA
BRANCH  13  16
ATOM     14  N   UNL     1      33.101 -10.526 -23.090  0.00  0.00    -0.185 NA
ATOM     15  N   UNL     1      32.067 -12.604 -22.442  0.00  0.00    -0.162 NA
ATOM     16  C   UNL     1      32.899 -11.854 -23.189  0.00  0.00    +0.196 C 
ATOM     17  C   UNL     1      32.381  -9.910 -22.130  0.00  0.00    +0.167 C 
ATOM     18  C   UNL     1      31.378 -11.924 -21.501  0.00  0.00    +0.110 C 
ATOM     19  C   UNL     1      31.495 -10.565 -21.298  0.00  0.00    +0.022 C 
ENDBRANCH  13  16
ENDBRANCH  11  13
BRANCH   3  20
ATOM     20  C   UNL     1      35.679 -19.788 -21.845  0.00  0.00    +0.061 C 
BRANCH  20  24
ATOM     21  F   UNL     1      36.513 -21.858 -20.089  0.00  0.00    -0.202 F 
ATOM     22  N   UNL     1      34.835 -22.954 -18.143  0.00  0.00    -0.187 N 
ATOM     23  N   UNL     1      33.122 -21.494 -18.845  0.00  0.00    -0.226 NA
ATOM     24  C   UNL     1      34.787 -20.386 -20.797  0.00  0.00    +0.014 C 
ATOM     25  C   UNL     1      35.260 -21.398 -19.969  0.00  0.00    +0.169 C 
ATOM     26  C   UNL     1      33.482 -19.927 -20.650  0.00  0.00    +0.019 C 
ATOM     27  C   UNL     1      34.396 -21.914 -19.018  0.00  0.00    +0.175 C 
ATOM     28  C   UNL     1      32.698 -20.509 -19.668  0.00  0.00    +0.100 C 
ATOM     29  H   UNL     1      35.374 -23.708 -18.477  0.00  0.00    +0.176 HD
BRANCH  22  30
ATOM     30  S   UNL     1      34.387 -22.840 -16.475  0.00  0.00    +0.111 S 
ATOM     31  O   UNL     1      35.254 -21.863 -15.841  0.00  0.00    -0.138 OA
ATOM     32  O   UNL     1      32.947 -22.702 -16.366  0.00  0.00    -0.138 OA
BRANCH  30  33
ATOM     33  N   UNL     1      34.816 -24.404 -15.895  0.00  0.00    -0.165 NA
ATOM     34  C   UNL     1      35.054 -24.556 -14.442  0.00  0.00    +0.112 C 
ATOM     35  H   UNL     1      35.673 -24.682 -16.374  0.00  0.00    +0.150 HD
ENDBRANCH  30  33
ENDBRANCH  22  30
ENDBRANCH  20  24
ENDBRANCH   3  20
TORSDOF 6
ENDMDL
MODEL 7
REMARK VINA RESULT:     -10.9      4.226     10.260
REMARK  Name = 16719221
REMARK  6 active torsions:
REMARK  status: ('A' for Active; 'I' for Inactive)
REMARK    1  A    between atoms: C_3  and  C_20
REMARK    2  A    between atoms: C_11  and  O_13
REMARK    3  A    between atoms: O_13  and  C_16
REMARK    4  A    between atoms: C_20  and  C_24
REMARK    5  A    between atoms: N_22  and  S_30
REMARK    6  A    between atoms: S_30  and  N_33
REMARK                            x       y       z     vdW  Elec       q    Type
REMARK                         _______ _______ _______ _____ _____    ______ ____
ROOT
ATOM      1  O   UNL     1      33.375 -19.865 -20.123  0.00  0.00    -0.421 OA
ATOM      2  O   UNL     1      32.267 -21.456 -18.944  0.00  0.00    -0.245 OA
ATOM      3  C   UNL     1      34.628 -21.728 -19.121  0.00  0.00    +0.054 A 
ATOM      4  C   UNL     1      35.788 -21.264 -19.631  0.00  0.00    -0.016 A 
ATOM      5  C   UNL     1      35.787 -20.008 -20.410  0.00  0.00    +0.031 A 
ATOM      6  C   UNL     1      34.579 -19.353 -20.630  0.00  0.00    +0.151 A 
ATOM      7  C   UNL     1      33.334 -21.028 -19.371  0.00  0.00    +0.342 A 
ATOM      8  C   UNL     1      37.113 -21.965 -19.470  0.00  0.00    +0.031 C 
ATOM      9  C   UNL     1      36.942 -19.415 -20.944  0.00  0.00    +0.006 C 
ATOM     10  C   UNL     1      34.490 -18.161 -21.355  0.00  0.00    +0.076 C 
ATOM     11  C   UNL     1      35.647 -17.595 -21.879  0.00  0.00    +0.162 C 
ATOM     12  C   UNL     1      36.872 -18.220 -21.672  0.00  0.00    +0.039 C 
ENDROOT
BRANCH  11  13
ATOM     13  O   UNL     1      35.581 -16.436 -22.587  0.00  0.00    -0.392 OA
BRANCH  13  16
ATOM     14  N   UNL     1      33.946 -14.852 -23.049  0.00  0.00    -0.185 NA
ATOM     15  N   UNL     1      34.769 -15.182 -20.809  0.00  0.00    -0.162 NA
ATOM     16  C   UNL     1      34.728 -15.446 -22.129  0.00  0.00    +0.196 C 
ATOM     17  C   UNL     1      33.127 -13.893 -22.568  0.00  0.00    +0.167 C 
ATOM     18  C   UNL     1      33.926 -14.213 -20.396  0.00  0.00    +0.110 C 
ATOM     19  C   UNL     1      33.074 -13.528 -21.238  0.00  0.00    +0.022 C 
ENDBRANCH  13  16
ENDBRANCH  11  13
BRANCH   3  20
ATOM     20  C   UNL     1      34.496 -22.957 -18.258  0.00  0.00    +0.061 C 
BRANCH  20  24
ATOM     21  F   UNL     1      33.270 -23.749 -15.822  0.00  0.00    -0.202 F 
ATOM     22  N   UNL     1      34.493 -23.406 -13.335  0.00  0.00    -0.187 N 
ATOM     23  N   UNL     1      36.351 -22.441 -14.419  0.00  0.00    -0.226 NA
ATOM     24  C   UNL     1      35.142 -22.777 -16.916  0.00  0.00    +0.014 C 
ATOM     25  C   UNL     1      34.486 -23.188 -15.761  0.00  0.00    +0.169 C 
ATOM     26  C   UNL     1      36.403 -22.198 -16.823  0.00  0.00    +0.019 C 
ATOM     27  C   UNL     1      35.127 -22.999 -14.548  0.00  0.00    +0.175 C 
ATOM     28  C   UNL     1      36.959 -22.054 -15.563  0.00  0.00    +0.100 C 
ATOM     29  H   UNL     1      33.535 -23.240 -13.179  0.00  0.00    +0.176 HD
BRANCH  22  30
ATOM     30  S   UNL     1      35.472 -24.202 -12.149  0.00  0.00    +0.111 S 
ATOM     31  O   UNL     1      36.408 -23.232 -11.611  0.00  0.00    -0.138 OA
ATOM     32  O   UNL     1      34.624 -24.960 -11.247  0.00  0.00    -0.138 OA
BRANCH  30  33
ATOM     33  N   UNL     1      36.349 -25.322 -13.120  0.00  0.00    -0.165 NA
ATOM     34  C   UNL     1      37.326 -26.202 -12.441  0.00  0.00    +0.112 C 
ATOM     35  H   UNL     1      36.859 -24.784 -13.820  0.00  0.00    +0.150 HD
ENDBRANCH  30  33
ENDBRANCH  22  30
ENDBRANCH  20  24
ENDBRANCH   3  20
TORSDOF 6
ENDMDL
MODEL 8
REMARK VINA RESULT:     -10.9      2.155      2.879
REMARK  Name = 16719221
REMARK  6 active torsions:
REMARK  status: ('A' for Active; 'I' for Inactive)
REMARK    1  A    between atoms: C_3  and  C_20
REMARK    2  A    between atoms: C_11  and  O_13
REMARK    3  A    between atoms: O_13  and  C_16
REMARK    4  A    between atoms: C_20  and  C_24
REMARK    5  A    between atoms: N_22  and  S_30
REMARK    6  A    between atoms: S_30  and  N_33
REMARK                            x       y       z     vdW  Elec       q    Type
REMARK                         _______ _______ _______ _____ _____    ______ ____
ROOT
ATOM      1  O   UNL     1      33.190 -21.255 -19.471  0.00  0.00    -0.421 OA
ATOM      2  O   UNL     1      32.575 -20.203 -21.386  0.00  0.00    -0.245 OA
ATOM      3  C   UNL     1      34.900 -20.173 -20.866  0.00  0.00    +0.054 A 
ATOM      4  C   UNL     1      35.872 -20.511 -19.992  0.00  0.00    -0.016 A 
ATOM      5  C   UNL     1      35.526 -21.300 -18.792  0.00  0.00    +0.031 A 
ATOM      6  C   UNL     1      34.195 -21.643 -18.572  0.00  0.00    +0.151 A 
ATOM      7  C   UNL     1      33.474 -20.534 -20.619  0.00  0.00    +0.342 A 
ATOM      8  C   UNL     1      37.318 -20.116 -20.155  0.00  0.00    +0.031 C 
ATOM      9  C   UNL     1      36.464 -21.743 -17.846  0.00  0.00    +0.006 C 
ATOM     10  C   UNL     1      33.782 -22.386 -17.463  0.00  0.00    +0.076 C 
ATOM     11  C   UNL     1      34.729 -22.809 -16.536  0.00  0.00    +0.162 C 
ATOM     12  C   UNL     1      36.069 -22.489 -16.728  0.00  0.00    +0.039 C 
ENDROOT
BRANCH  11  13
ATOM     13  O   UNL     1      34.348 -23.533 -15.450  0.00  0.00    -0.392 OA
BRANCH  13  16
ATOM     14  N   UNL     1      35.805 -23.333 -13.652  0.00  0.00    -0.185 NA
ATOM     15  N   UNL     1      35.744 -25.333 -14.993  0.00  0.00    -0.162 NA
ATOM     16  C   UNL     1      35.343 -24.091 -14.664  0.00  0.00    +0.196 C 
ATOM     17  C   UNL     1      36.773 -23.906 -12.907  0.00  0.00    +0.167 C 
ATOM     18  C   UNL     1      36.713 -25.845 -14.208  0.00  0.00    +0.110 C 
ATOM     19  C   UNL     1      37.271 -25.172 -13.140  0.00  0.00    +0.022 C 
ENDBRANCH  13  16
ENDBRANCH  11  13
BRANCH   3  20
ATOM     20  C   UNL     1      35.124 -19.429 -22.158  0.00  0.00    +0.061 C 
BRANCH  20  24
ATOM     21  F   UNL     1      34.710 -17.634 -24.319  0.00  0.00    -0.202 F 
ATOM     22  N   UNL     1      34.497 -14.872 -23.967  0.00  0.00    -0.187 N 
ATOM     23  N   UNL     1      34.794 -15.178 -21.648  0.00  0.00    -0.226 NA
ATOM     24  C   UNL     1      35.009 -17.944 -21.982  0.00  0.00    +0.014 C 
ATOM     25  C   UNL     1      34.806 -17.121 -23.085  0.00  0.00    +0.169 C 
ATOM     26  C   UNL     1      35.104 -17.385 -20.713  0.00  0.00    +0.019 C 
ATOM     27  C   UNL     1      34.707 -15.757 -22.867  0.00  0.00    +0.175 C 
ATOM     28  C   UNL     1      34.991 -16.009 -20.600  0.00  0.00    +0.100 C 
ATOM     29  H   UNL     1      34.983 -14.989 -24.816  0.00  0.00    +0.176 HD
BRANCH  22  30
ATOM     30  S   UNL     1      33.360 -13.584 -23.754  0.00  0.00    +0.111 S 
ATOM     31  O   UNL     1      32.788 -13.268 -25.050  0.00  0.00    -0.138 OA
ATOM     32  O   UNL     1      32.485 -13.887 -22.636  0.00  0.00    -0.138 OA
BRANCH  30  33
ATOM     33  N   UNL     1      34.391 -12.286 -23.284  0.00  0.00    -0.165 NA
ATOM     34  C   UNL     1      33.989 -10.916 -23.670  0.00  0.00    +0.112 C 
ATOM     35  H   UNL     1      35.308 -12.462 -23.695  0.00  0.00    +0.150 HD
ENDBRANCH  30  33
ENDBRANCH  22  30
ENDBRANCH  20  24
ENDBRANCH   3  20
TORSDOF 6
ENDMDL
MODEL 9
REMARK VINA RESULT:     -10.8      3.695      6.420
REMARK  Name = 16719221
REMARK  6 active torsions:
REMARK  status: ('A' for Active; 'I' for Inactive)
REMARK    1  A    between atoms: C_3  and  C_20
REMARK    2  A    between atoms: C_11  and  O_13
REMARK    3  A    between atoms: O_13  and  C_16
REMARK    4  A    between atoms: C_20  and  C_24
REMARK    5  A    between atoms: N_22  and  S_30
REMARK    6  A    between atoms: S_30  and  N_33
REMARK                            x       y       z     vdW  Elec       q    Type
REMARK                         _______ _______ _______ _____ _____    ______ ____
ROOT
ATOM      1  O   UNL     1      34.296 -15.804 -24.426  0.00  0.00    -0.421 OA
ATOM      2  O   UNL     1      33.272 -14.466 -25.947  0.00  0.00    -0.245 OA
ATOM      3  C   UNL     1      33.109 -13.788 -23.669  0.00  0.00    +0.054 A 
ATOM      4  C   UNL     1      33.394 -14.067 -22.379  0.00  0.00    -0.016 A 
ATOM      5  C   UNL     1      34.207 -15.258 -22.057  0.00  0.00    +0.031 A 
ATOM      6  C   UNL     1      34.628 -16.087 -23.093  0.00  0.00    +0.151 A 
ATOM      7  C   UNL     1      33.553 -14.687 -24.774  0.00  0.00    +0.342 A 
ATOM      8  C   UNL     1      32.914 -13.234 -21.216  0.00  0.00    +0.031 C 
ATOM      9  C   UNL     1      34.599 -15.612 -20.756  0.00  0.00    +0.006 C 
ATOM     10  C   UNL     1      35.400 -17.231 -22.876  0.00  0.00    +0.076 C 
ATOM     11  C   UNL     1      35.771 -17.565 -21.578  0.00  0.00    +0.162 C 
ATOM     12  C   UNL     1      35.373 -16.756 -20.519  0.00  0.00    +0.039 C 
ENDROOT
BRANCH  11  13
ATOM     13  O   UNL     1      36.521 -18.675 -21.345  0.00  0.00    -0.392 OA
BRANCH  13  16
ATOM     14  N   UNL     1      34.712 -20.032 -20.809  0.00  0.00    -0.185 NA
ATOM     15  N   UNL     1      36.777 -20.154 -19.572  0.00  0.00    -0.162 NA
ATOM     16  C   UNL     1      35.979 -19.663 -20.539  0.00  0.00    +0.196 C 
ATOM     17  C   UNL     1      34.216 -20.996 -20.006  0.00  0.00    +0.167 C 
ATOM     18  C   UNL     1      36.218 -21.114 -18.806  0.00  0.00    +0.110 C 
ATOM     19  C   UNL     1      34.930 -21.580 -18.978  0.00  0.00    +0.022 C 
ENDBRANCH  13  16
ENDBRANCH  11  13
BRANCH   3  20
ATOM     20  C   UNL     1      32.347 -12.576 -24.140  0.00  0.00    +0.061 C 
BRANCH  20  24
ATOM     21  F   UNL     1      31.034 -10.442 -22.804  0.00  0.00    -0.202 F 
ATOM     22  N   UNL     1      32.332  -8.068 -22.112  0.00  0.00    -0.187 N 
ATOM     23  N   UNL     1      34.316  -8.914 -23.065  0.00  0.00    -0.226 NA
ATOM     24  C   UNL     1      33.033 -11.296 -23.764  0.00  0.00    +0.014 C 
ATOM     25  C   UNL     1      32.330 -10.290 -23.109  0.00  0.00    +0.169 C 
ATOM     26  C   UNL     1      34.377 -11.111 -24.069  0.00  0.00    +0.019 C 
ATOM     27  C   UNL     1      33.010  -9.128 -22.785  0.00  0.00    +0.175 C 
ATOM     28  C   UNL     1      34.967  -9.913 -23.701  0.00  0.00    +0.100 C 
ATOM     29  H   UNL     1      31.420  -7.800 -22.371  0.00  0.00    +0.176 HD
BRANCH  22  30
ATOM     30  S   UNL     1      33.171  -7.270 -20.824  0.00  0.00    +0.111 S 
ATOM     31  O   UNL     1      33.004  -8.062 -19.619  0.00  0.00    -0.138 OA
ATOM     32  O   UNL     1      34.503  -6.903 -21.265  0.00  0.00    -0.138 OA
BRANCH  30  33
ATOM     33  N   UNL     1      32.249  -5.825 -20.655  0.00  0.00    -0.165 NA
ATOM     34  C   UNL     1      30.997  -5.713 -21.436  0.00  0.00    +0.112 C 
ATOM     35  H   UNL     1      32.850  -5.047 -20.930  0.00  0.00    +0.150 HD
ENDBRANCH  30  33
ENDBRANCH  22  30
ENDBRANCH  20  24
ENDBRANCH   3  20
TORSDOF 6
ENDMDL
