MODEL 1
REMARK VINA RESULT:     -10.7      0.000      0.000
REMARK  Name = 5326870
REMARK  3 active torsions:
REMARK  status: ('A' for Active; 'I' for Inactive)
REMARK    1  A    between atoms: N_2  and  C_7
REMARK    2  A    between atoms: C_3  and  C_19
REMARK    3  A    between atoms: C_16  and  N_23
REMARK                            x       y       z     vdW  Elec       q    Type
REMARK                         _______ _______ _______ _____ _____    ______ ____
ROOT
ATOM      1  O   UNL     1      34.927 -15.557 -20.327  0.00  0.00    -0.270 OA
ATOM      2  N   UNL     1      34.883 -17.293 -21.911  0.00  0.00    -0.280 N 
ATOM      3  C   UNL     1      34.719 -15.977 -21.460  0.00  0.00    +0.250 C 
ATOM      4  H   UNL     1      34.668 -17.455 -22.859  0.00  0.00    +0.155 HD
ENDROOT
BRANCH   2   7
ATOM      5  N   UNL     1      36.348 -21.752 -19.014  0.00  0.00    -0.312 N 
ATOM      6  C   UNL     1      34.817 -20.434 -19.961  0.00  0.00    +0.016 C 
ATOM      7  C   UNL     1      35.315 -18.404 -21.183  0.00  0.00    +0.051 C 
ATOM      8  C   UNL     1      36.187 -20.597 -19.746  0.00  0.00    +0.048 C 
ATOM      9  C   UNL     1      34.373 -19.316 -20.695  0.00  0.00    +0.016 C 
ATOM     10  C   UNL     1      36.677 -18.590 -20.954  0.00  0.00    +0.016 C 
ATOM     11  C   UNL     1      37.140 -19.693 -20.229  0.00  0.00    +0.016 C 
ATOM     12  C   UNL     1      34.163 -21.532 -19.333  0.00  0.00    +0.017 C 
ATOM     13  C   UNL     1      35.131 -22.323 -18.759  0.00  0.00    +0.062 C 
ATOM     14  H   UNL     1      37.214 -22.113 -18.716  0.00  0.00    +0.152 HD
ENDBRANCH   2   7
BRANCH   3  19
ATOM     15  F   UNL     1      33.637 -14.857 -26.037  0.00  0.00    -0.204 F 
ATOM     16  C   UNL     1      33.329 -12.862 -23.010  0.00  0.00    +0.050 C 
ATOM     17  C   UNL     1      33.805 -13.765 -22.059  0.00  0.00    +0.019 C 
ATOM     18  C   UNL     1      33.272 -13.231 -24.354  0.00  0.00    +0.044 C 
ATOM     19  C   UNL     1      34.213 -15.015 -22.473  0.00  0.00    +0.057 C 
ATOM     20  C   UNL     1      33.691 -14.503 -24.747  0.00  0.00    +0.142 C 
ATOM     21  C   UNL     1      34.167 -15.404 -23.796  0.00  0.00    +0.034 C 
BRANCH  16  23
ATOM     22  O   UNL     1      31.872  -9.044 -22.025  0.00  0.00    -0.350 OA
ATOM     23  N   UNL     1      32.909 -11.588 -22.617  0.00  0.00    -0.303 N 
ATOM     24  C   UNL     1      33.069 -10.481 -23.569  0.00  0.00    +0.123 C 
ATOM     25  C   UNL     1      31.795 -11.443 -21.673  0.00  0.00    +0.123 C 
ATOM     26  C   UNL     1      33.052  -9.153 -22.821  0.00  0.00    +0.164 C 
ATOM     27  C   UNL     1      31.845 -10.063 -21.026  0.00  0.00    +0.164 C 
ENDBRANCH  16  23
ENDBRANCH   3  19
TORSDOF 3
ENDMDL
MODEL 2
REMARK VINA RESULT:     -10.5      4.882     10.328
REMARK  Name = 5326870
REMARK  3 active torsions:
REMARK  status: ('A' for Active; 'I' for Inactive)
REMARK    1  A    between atoms: N_2  and  C_7
REMARK    2  A    between atoms: C_3  and  C_19
REMARK    3  A    between atoms: C_16  and  N_23
REMARK                            x       y       z     vdW  Elec       q    Type
REMARK                         _______ _______ _______ _____ _____    ______ ____
ROOT
ATOM      1  O   UNL     1      32.655 -21.102 -20.081  0.00  0.00    -0.270 OA
ATOM      2  N   UNL     1      34.828 -20.207 -20.015  0.00  0.00    -0.280 N 
ATOM      3  C   UNL     1      33.766 -21.003 -19.569  0.00  0.00    +0.250 C 
ATOM      4  H   UNL     1      35.654 -20.248 -19.480  0.00  0.00    +0.155 HD
ENDROOT
BRANCH   2   7
ATOM      5  N   UNL     1      34.976 -16.670 -24.245  0.00  0.00    -0.312 N 
ATOM      6  C   UNL     1      34.998 -17.131 -22.063  0.00  0.00    +0.016 C 
ATOM      7  C   UNL     1      34.860 -19.360 -21.126  0.00  0.00    +0.051 C 
ATOM      8  C   UNL     1      34.924 -17.702 -23.336  0.00  0.00    +0.048 C 
ATOM      9  C   UNL     1      34.966 -17.978 -20.937  0.00  0.00    +0.016 C 
ATOM     10  C   UNL     1      34.788 -19.903 -22.408  0.00  0.00    +0.016 C 
ATOM     11  C   UNL     1      34.819 -19.082 -23.539  0.00  0.00    +0.016 C 
ATOM     12  C   UNL     1      35.096 -15.723 -22.242  0.00  0.00    +0.017 C 
ATOM     13  C   UNL     1      35.079 -15.471 -23.595  0.00  0.00    +0.062 C 
ATOM     14  H   UNL     1      34.942 -16.779 -25.223  0.00  0.00    +0.152 HD
ENDBRANCH   2   7
BRANCH   3  19
ATOM     15  F   UNL     1      36.839 -22.850 -16.326  0.00  0.00    -0.204 F 
ATOM     16  C   UNL     1      33.208 -23.031 -16.469  0.00  0.00    +0.050 C 
ATOM     17  C   UNL     1      32.961 -22.304 -17.633  0.00  0.00    +0.019 C 
ATOM     18  C   UNL     1      34.518 -23.216 -16.026  0.00  0.00    +0.044 C 
ATOM     19  C   UNL     1      34.029 -21.779 -18.330  0.00  0.00    +0.057 C 
ATOM     20  C   UNL     1      35.581 -22.672 -16.749  0.00  0.00    +0.142 C 
ATOM     21  C   UNL     1      35.334 -21.947 -17.913  0.00  0.00    +0.034 C 
BRANCH  16  23
ATOM     22  O   UNL     1      30.025 -24.451 -14.117  0.00  0.00    -0.350 OA
ATOM     23  N   UNL     1      32.143 -23.575 -15.744  0.00  0.00    -0.303 N 
ATOM     24  C   UNL     1      32.401 -24.037 -14.374  0.00  0.00    +0.123 C 
ATOM     25  C   UNL     1      30.773 -23.116 -16.000  0.00  0.00    +0.123 C 
ATOM     26  C   UNL     1      31.321 -25.027 -13.953  0.00  0.00    +0.164 C 
ATOM     27  C   UNL     1      29.779 -24.154 -15.491  0.00  0.00    +0.164 C 
ENDBRANCH  16  23
ENDBRANCH   3  19
TORSDOF 3
ENDMDL
MODEL 3
REMARK VINA RESULT:     -10.2      3.329      5.237
REMARK  Name = 5326870
REMARK  3 active torsions:
REMARK  status: ('A' for Active; 'I' for Inactive)
REMARK    1  A    between atoms: N_2  and  C_7
REMARK    2  A    between atoms: C_3  and  C_19
REMARK    3  A    between atoms: C_16  and  N_23
REMARK                            x       y       z     vdW  Elec       q    Type
REMARK                         _______ _______ _______ _____ _____    ______ ____
ROOT
ATOM      1  O   UNL     1      31.640 -12.928 -22.175  0.00  0.00    -0.270 OA
ATOM      2  N   UNL     1      33.641 -13.294 -20.997  0.00  0.00    -0.280 N 
ATOM      3  C   UNL     1      32.453 -12.620 -21.310  0.00  0.00    +0.250 C 
ATOM      4  H   UNL     1      34.178 -12.906 -20.269  0.00  0.00    +0.155 HD
ENDROOT
BRANCH   2   7
ATOM      5  N   UNL     1      35.718 -17.946 -23.110  0.00  0.00    -0.312 N 
ATOM      6  C   UNL     1      35.140 -16.652 -21.387  0.00  0.00    +0.016 C 
ATOM      7  C   UNL     1      34.157 -14.448 -21.590  0.00  0.00    +0.051 C 
ATOM      8  C   UNL     1      35.173 -16.725 -22.781  0.00  0.00    +0.048 C 
ATOM      9  C   UNL     1      34.621 -15.491 -20.781  0.00  0.00    +0.016 C 
ATOM     10  C   UNL     1      34.202 -14.547 -22.979  0.00  0.00    +0.016 C 
ATOM     11  C   UNL     1      34.712 -15.690 -23.603  0.00  0.00    +0.016 C 
ATOM     12  C   UNL     1      35.683 -17.871 -20.892  0.00  0.00    +0.017 C 
ATOM     13  C   UNL     1      36.030 -18.645 -21.976  0.00  0.00    +0.062 C 
ATOM     14  H   UNL     1      35.863 -18.269 -24.029  0.00  0.00    +0.152 HD
ENDBRANCH   2   7
BRANCH   3  19
ATOM     15  F   UNL     1      31.647 -10.442 -17.070  0.00  0.00    -0.204 F 
ATOM     16  C   UNL     1      31.849  -9.032 -20.418  0.00  0.00    +0.050 C 
ATOM     17  C   UNL     1      32.097 -10.183 -21.166  0.00  0.00    +0.019 C 
ATOM     18  C   UNL     1      31.697  -9.119 -19.035  0.00  0.00    +0.044 C 
ATOM     19  C   UNL     1      32.187 -11.395 -20.514  0.00  0.00    +0.057 C 
ATOM     20  C   UNL     1      31.793 -10.358 -18.399  0.00  0.00    +0.142 C 
ATOM     21  C   UNL     1      32.041 -11.508 -19.146  0.00  0.00    +0.034 C 
BRANCH  16  23
ATOM     22  O   UNL     1      31.815  -5.340 -22.428  0.00  0.00    -0.350 OA
ATOM     23  N   UNL     1      31.753  -7.791 -21.055  0.00  0.00    -0.303 N 
ATOM     24  C   UNL     1      32.641  -6.710 -20.606  0.00  0.00    +0.123 C 
ATOM     25  C   UNL     1      31.346  -7.720 -22.463  0.00  0.00    +0.123 C 
ATOM     26  C   UNL     1      32.063  -5.363 -21.023  0.00  0.00    +0.164 C 
ATOM     27  C   UNL     1      30.838  -6.318 -22.782  0.00  0.00    +0.164 C 
ENDBRANCH  16  23
ENDBRANCH   3  19
TORSDOF 3
ENDMDL
MODEL 4
REMARK VINA RESULT:     -10.1      6.939     12.257
REMARK  Name = 5326870
REMARK  3 active torsions:
REMARK  status: ('A' for Active; 'I' for Inactive)
REMARK    1  A    between atoms: N_2  and  C_7
REMARK    2  A    between atoms: C_3  and  C_19
REMARK    3  A    between atoms: C_16  and  N_23
REMARK                            x       y       z     vdW  Elec       q    Type
REMARK                         _______ _______ _______ _____ _____    ______ ____
ROOT
ATOM      1  O   UNL     1      32.113 -22.544 -17.447  0.00  0.00    -0.270 OA
ATOM      2  N   UNL     1      34.437 -22.204 -17.549  0.00  0.00    -0.280 N 
ATOM      3  C   UNL     1      33.247 -22.710 -17.010  0.00  0.00    +0.250 C 
ATOM      4  H   UNL     1      35.263 -22.436 -17.067  0.00  0.00    +0.155 HD
ENDROOT
BRANCH   2   7
ATOM      5  N   UNL     1      35.306 -19.046 -21.987  0.00  0.00    -0.312 N 
ATOM      6  C   UNL     1      36.007 -20.084 -20.141  0.00  0.00    +0.016 C 
ATOM      7  C   UNL     1      34.595 -21.410 -18.688  0.00  0.00    +0.051 C 
ATOM      8  C   UNL     1      34.891 -19.843 -20.945  0.00  0.00    +0.048 C 
ATOM      9  C   UNL     1      35.856 -20.883 -18.991  0.00  0.00    +0.016 C 
ATOM     10  C   UNL     1      33.497 -21.154 -19.507  0.00  0.00    +0.016 C 
ATOM     11  C   UNL     1      33.625 -20.363 -20.654  0.00  0.00    +0.016 C 
ATOM     12  C   UNL     1      37.106 -19.405 -20.739  0.00  0.00    +0.017 C 
ATOM     13  C   UNL     1      36.642 -18.775 -21.871  0.00  0.00    +0.062 C 
ATOM     14  H   UNL     1      34.726 -18.718 -22.711  0.00  0.00    +0.152 HD
ENDBRANCH   2   7
BRANCH   3  19
ATOM     15  F   UNL     1      31.353 -24.778 -13.072  0.00  0.00    -0.204 F 
ATOM     16  C   UNL     1      34.797 -24.708 -14.246  0.00  0.00    +0.050 C 
ATOM     17  C   UNL     1      34.654 -23.960 -15.414  0.00  0.00    +0.019 C 
ATOM     18  C   UNL     1      33.682 -24.985 -13.454  0.00  0.00    +0.044 C 
ATOM     19  C   UNL     1      33.400 -23.505 -15.765  0.00  0.00    +0.057 C 
ATOM     20  C   UNL     1      32.424 -24.513 -13.832  0.00  0.00    +0.142 C 
ATOM     21  C   UNL     1      32.282 -23.765 -15.000  0.00  0.00    +0.034 C 
BRANCH  16  23
ATOM     22  O   UNL     1      38.458 -26.332 -12.967  0.00  0.00    -0.350 OA
ATOM     23  N   UNL     1      36.056 -25.181 -13.867  0.00  0.00    -0.303 N 
ATOM     24  C   UNL     1      36.419 -25.127 -12.444  0.00  0.00    +0.123 C 
ATOM     25  C   UNL     1      36.695 -26.257 -14.633  0.00  0.00    +0.123 C 
ATOM     26  C   UNL     1      37.935 -25.185 -12.297  0.00  0.00    +0.164 C 
ATOM     27  C   UNL     1      38.197 -26.257 -14.368  0.00  0.00    +0.164 C 
ENDBRANCH  16  23
ENDBRANCH   3  19
TORSDOF 3
ENDMDL
MODEL 5
REMARK VINA RESULT:     -10.1      4.196     10.548
REMARK  Name = 5326870
REMARK  3 active torsions:
REMARK  status: ('A' for Active; 'I' for Inactive)
REMARK    1  A    between atoms: N_2  and  C_7
REMARK    2  A    between atoms: C_3  and  C_19
REMARK    3  A    between atoms: C_16  and  N_23
REMARK                            x       y       z     vdW  Elec       q    Type
REMARK                         _______ _______ _______ _____ _____    ______ ____
ROOT
ATOM      1  O   UNL     1      30.512  -9.885 -22.626  0.00  0.00    -0.270 OA
ATOM      2  N   UNL     1      32.602  -8.999 -22.016  0.00  0.00    -0.280 N 
ATOM      3  C   UNL     1      31.647 -10.010 -22.176  0.00  0.00    +0.250 C 
ATOM      4  H   UNL     1      33.467  -9.278 -21.637  0.00  0.00    +0.155 HD
ENDROOT
BRANCH   2   7
ATOM      5  N   UNL     1      31.946  -3.623 -23.063  0.00  0.00    -0.312 N 
ATOM      6  C   UNL     1      31.457  -5.483 -21.932  0.00  0.00    +0.016 C 
ATOM      7  C   UNL     1      32.480  -7.642 -22.327  0.00  0.00    +0.051 C 
ATOM      8  C   UNL     1      32.252  -4.961 -22.955  0.00  0.00    +0.048 C 
ATOM      9  C   UNL     1      31.575  -6.850 -21.612  0.00  0.00    +0.016 C 
ATOM     10  C   UNL     1      33.261  -7.096 -23.344  0.00  0.00    +0.016 C 
ATOM     11  C   UNL     1      33.161  -5.742 -23.678  0.00  0.00    +0.016 C 
ATOM     12  C   UNL     1      30.666  -4.412 -21.431  0.00  0.00    +0.017 C 
ATOM     13  C   UNL     1      30.989  -3.282 -22.147  0.00  0.00    +0.062 C 
ATOM     14  H   UNL     1      32.356  -3.002 -23.707  0.00  0.00    +0.152 HD
ENDBRANCH   2   7
BRANCH   3  19
ATOM     15  F   UNL     1      32.202 -13.296 -18.674  0.00  0.00    -0.204 F 
ATOM     16  C   UNL     1      32.968 -13.515 -22.224  0.00  0.00    +0.050 C 
ATOM     17  C   UNL     1      32.576 -12.246 -22.650  0.00  0.00    +0.019 C 
ATOM     18  C   UNL     1      32.842 -13.870 -20.881  0.00  0.00    +0.044 C 
ATOM     19  C   UNL     1      32.067 -11.361 -21.723  0.00  0.00    +0.057 C 
ATOM     20  C   UNL     1      32.323 -12.956 -19.964  0.00  0.00    +0.142 C 
ATOM     21  C   UNL     1      31.931 -11.687 -20.389  0.00  0.00    +0.034 C 
BRANCH  16  23
ATOM     22  O   UNL     1      34.699 -16.071 -25.078  0.00  0.00    -0.350 OA
ATOM     23  N   UNL     1      33.488 -14.432 -23.143  0.00  0.00    -0.303 N 
ATOM     24  C   UNL     1      33.261 -14.184 -24.573  0.00  0.00    +0.123 C 
ATOM     25  C   UNL     1      34.713 -15.173 -22.825  0.00  0.00    +0.123 C 
ATOM     26  C   UNL     1      33.427 -15.484 -25.353  0.00  0.00    +0.164 C 
ATOM     27  C   UNL     1      34.803 -16.420 -23.698  0.00  0.00    +0.164 C 
ENDBRANCH  16  23
ENDBRANCH   3  19
TORSDOF 3
ENDMDL
MODEL 6
REMARK VINA RESULT:      -9.9      4.259     10.493
REMARK  Name = 5326870
REMARK  3 active torsions:
REMARK  status: ('A' for Active; 'I' for Inactive)
REMARK    1  A    between atoms: N_2  and  C_7
REMARK    2  A    between atoms: C_3  and  C_19
REMARK    3  A    between atoms: C_16  and  N_23
REMARK                            x       y       z     vdW  Elec       q    Type
REMARK                         _______ _______ _______ _____ _____    ______ ____
ROOT
ATOM      1  O   UNL     1      30.377 -10.004 -22.332  0.00  0.00    -0.270 OA
ATOM      2  N   UNL     1      32.478  -9.116 -21.760  0.00  0.00    -0.280 N 
ATOM      3  C   UNL     1      31.530 -10.133 -21.931  0.00  0.00    +0.250 C 
ATOM      4  H   UNL     1      33.360  -9.399 -21.427  0.00  0.00    +0.155 HD
ENDROOT
BRANCH   2   7
ATOM      5  N   UNL     1      31.953  -3.758 -22.959  0.00  0.00    -0.312 N 
ATOM      6  C   UNL     1      32.467  -5.858 -23.510  0.00  0.00    +0.016 C 
ATOM      7  C   UNL     1      32.326  -7.749 -22.004  0.00  0.00    +0.051 C 
ATOM      8  C   UNL     1      32.018  -5.042 -22.469  0.00  0.00    +0.048 C 
ATOM      9  C   UNL     1      32.622  -7.237 -23.272  0.00  0.00    +0.016 C 
ATOM     10  C   UNL     1      31.880  -6.913 -20.982  0.00  0.00    +0.016 C 
ATOM     11  C   UNL     1      31.717  -5.540 -21.196  0.00  0.00    +0.016 C 
ATOM     12  C   UNL     1      32.668  -5.017 -24.641  0.00  0.00    +0.017 C 
ATOM     13  C   UNL     1      32.344  -3.732 -24.270  0.00  0.00    +0.062 C 
ATOM     14  H   UNL     1      31.668  -2.971 -22.441  0.00  0.00    +0.152 HD
ENDBRANCH   2   7
BRANCH   3  19
ATOM     15  F   UNL     1      32.198 -13.590 -18.618  0.00  0.00    -0.204 F 
ATOM     16  C   UNL     1      32.925 -13.600 -22.184  0.00  0.00    +0.050 C 
ATOM     17  C   UNL     1      32.501 -12.319 -22.535  0.00  0.00    +0.019 C 
ATOM     18  C   UNL     1      32.823 -14.030 -20.861  0.00  0.00    +0.044 C 
ATOM     19  C   UNL     1      31.984 -11.497 -21.557  0.00  0.00    +0.057 C 
ATOM     20  C   UNL     1      32.296 -13.178 -19.889  0.00  0.00    +0.142 C 
ATOM     21  C   UNL     1      31.872 -11.897 -20.241  0.00  0.00    +0.034 C 
BRANCH  16  23
ATOM     22  O   UNL     1      34.670 -15.958 -25.196  0.00  0.00    -0.350 OA
ATOM     23  N   UNL     1      33.453 -14.454 -23.156  0.00  0.00    -0.303 N 
ATOM     24  C   UNL     1      33.173 -14.156 -24.567  0.00  0.00    +0.123 C 
ATOM     25  C   UNL     1      34.717 -15.156 -22.907  0.00  0.00    +0.123 C 
ATOM     26  C   UNL     1      33.368 -15.413 -25.407  0.00  0.00    +0.164 C 
ATOM     27  C   UNL     1      34.831 -16.360 -23.836  0.00  0.00    +0.164 C 
ENDBRANCH  16  23
ENDBRANCH   3  19
TORSDOF 3
ENDMDL
MODEL 7
REMARK VINA RESULT:      -9.8      6.456     11.107
REMARK  Name = 5326870
REMARK  3 active torsions:
REMARK  status: ('A' for Active; 'I' for Inactive)
REMARK    1  A    between atoms: N_2  and  C_7
REMARK    2  A    between atoms: C_3  and  C_19
REMARK    3  A    between atoms: C_16  and  N_23
REMARK                            x       y       z     vdW  Elec       q    Type
REMARK                         _______ _______ _______ _____ _____    ______ ____
ROOT
ATOM      1  O   UNL     1      37.278 -21.127 -16.691  0.00  0.00    -0.270 OA
ATOM      2  N   UNL     1      35.525 -21.646 -18.170  0.00  0.00    -0.280 N 
ATOM      3  C   UNL     1      36.270 -21.760 -16.989  0.00  0.00    +0.250 C 
ATOM      4  H   UNL     1      34.740 -22.235 -18.245  0.00  0.00    +0.155 HD
ENDROOT
BRANCH   2   7
ATOM      5  N   UNL     1      36.217 -18.346 -22.535  0.00  0.00    -0.312 N 
ATOM      6  C   UNL     1      34.993 -19.737 -21.293  0.00  0.00    +0.016 C 
ATOM      7  C   UNL     1      35.760 -20.799 -19.256  0.00  0.00    +0.051 C 
ATOM      8  C   UNL     1      36.241 -19.118 -21.396  0.00  0.00    +0.048 C 
ATOM      9  C   UNL     1      34.749 -20.593 -20.201  0.00  0.00    +0.016 C 
ATOM     10  C   UNL     1      36.996 -20.168 -19.383  0.00  0.00    +0.016 C 
ATOM     11  C   UNL     1      37.260 -19.314 -20.457  0.00  0.00    +0.016 C 
ATOM     12  C   UNL     1      34.222 -19.309 -22.409  0.00  0.00    +0.017 C 
ATOM     13  C   UNL     1      35.002 -18.455 -23.155  0.00  0.00    +0.062 C 
ATOM     14  H   UNL     1      36.967 -17.796 -22.858  0.00  0.00    +0.152 HD
ENDBRANCH   2   7
BRANCH   3  19
ATOM     15  F   UNL     1      37.126 -25.231 -13.735  0.00  0.00    -0.204 F 
ATOM     16  C   UNL     1      33.966 -23.897 -14.949  0.00  0.00    +0.050 C 
ATOM     17  C   UNL     1      34.423 -22.941 -15.856  0.00  0.00    +0.019 C 
ATOM     18  C   UNL     1      34.878 -24.671 -14.232  0.00  0.00    +0.044 C 
ATOM     19  C   UNL     1      35.782 -22.780 -16.025  0.00  0.00    +0.057 C 
ATOM     20  C   UNL     1      36.249 -24.488 -14.422  0.00  0.00    +0.142 C 
ATOM     21  C   UNL     1      36.706 -23.533 -15.329  0.00  0.00    +0.034 C 
BRANCH  16  23
ATOM     22  O   UNL     1      29.858 -24.295 -14.146  0.00  0.00    -0.350 OA
ATOM     23  N   UNL     1      32.593 -24.080 -14.758  0.00  0.00    -0.303 N 
ATOM     24  C   UNL     1      32.152 -24.846 -13.584  0.00  0.00    +0.123 C 
ATOM     25  C   UNL     1      31.646 -23.066 -15.233  0.00  0.00    +0.123 C 
ATOM     26  C   UNL     1      30.738 -25.367 -13.812  0.00  0.00    +0.164 C 
ATOM     27  C   UNL     1      30.258 -23.681 -15.371  0.00  0.00    +0.164 C 
ENDBRANCH  16  23
ENDBRANCH   3  19
TORSDOF 3
ENDMDL
MODEL 8
REMARK VINA RESULT:      -9.8      6.224     11.407
REMARK  Name = 5326870
REMARK  3 active torsions:
REMARK  status: ('A' for Active; 'I' for Inactive)
REMARK    1  A    between atoms: N_2  and  C_7
REMARK    2  A    between atoms: C_3  and  C_19
REMARK    3  A    between atoms: C_16  and  N_23
REMARK                            x       y       z     vdW  Elec       q    Type
REMARK                         _______ _______ _______ _____ _____    ______ ____
ROOT
ATOM      1  O   UNL     1      32.867 -22.317 -19.088  0.00  0.00    -0.270 OA
ATOM      2  N   UNL     1      34.938 -21.446 -18.397  0.00  0.00    -0.280 N 
ATOM      3  C   UNL     1      33.770 -22.207 -18.265  0.00  0.00    +0.250 C 
ATOM      4  H   UNL     1      35.559 -21.471 -17.633  0.00  0.00    +0.155 HD
ENDROOT
BRANCH   2   7
ATOM      5  N   UNL     1      36.258 -18.345 -22.764  0.00  0.00    -0.312 N 
ATOM      6  C   UNL     1      34.818 -19.576 -21.586  0.00  0.00    +0.016 C 
ATOM      7  C   UNL     1      35.331 -20.654 -19.479  0.00  0.00    +0.051 C 
ATOM      8  C   UNL     1      36.125 -19.085 -21.611  0.00  0.00    +0.048 C 
ATOM      9  C   UNL     1      34.414 -20.375 -20.498  0.00  0.00    +0.016 C 
ATOM     10  C   UNL     1      36.630 -20.153 -19.529  0.00  0.00    +0.016 C 
ATOM     11  C   UNL     1      37.053 -19.357 -20.599  0.00  0.00    +0.016 C 
ATOM     12  C   UNL     1      34.172 -19.103 -22.762  0.00  0.00    +0.017 C 
ATOM     13  C   UNL     1      35.084 -18.350 -23.466  0.00  0.00    +0.062 C 
ATOM     14  H   UNL     1      37.080 -17.880 -23.043  0.00  0.00    +0.152 HD
ENDBRANCH   2   7
BRANCH   3  19
ATOM     15  F   UNL     1      30.989 -24.075 -14.780  0.00  0.00    -0.204 F 
ATOM     16  C   UNL     1      34.613 -24.013 -15.092  0.00  0.00    +0.050 C 
ATOM     17  C   UNL     1      34.754 -23.336 -16.304  0.00  0.00    +0.019 C 
ATOM     18  C   UNL     1      33.341 -24.263 -14.577  0.00  0.00    +0.044 C 
ATOM     19  C   UNL     1      33.621 -22.925 -16.973  0.00  0.00    +0.057 C 
ATOM     20  C   UNL     1      32.210 -23.836 -15.275  0.00  0.00    +0.142 C 
ATOM     21  C   UNL     1      32.351 -23.160 -16.485  0.00  0.00    +0.034 C 
BRANCH  16  23
ATOM     22  O   UNL     1      37.851 -25.402 -12.799  0.00  0.00    -0.350 OA
ATOM     23  N   UNL     1      35.746 -24.440 -14.394  0.00  0.00    -0.303 N 
ATOM     24  C   UNL     1      36.022 -23.835 -13.084  0.00  0.00    +0.123 C 
ATOM     25  C   UNL     1      36.236 -25.812 -14.562  0.00  0.00    +0.123 C 
ATOM     26  C   UNL     1      37.493 -24.022 -12.730  0.00  0.00    +0.164 C 
ATOM     27  C   UNL     1      37.696 -25.895 -14.129  0.00  0.00    +0.164 C 
ENDBRANCH  16  23
ENDBRANCH   3  19
TORSDOF 3
ENDMDL
MODEL 9
REMARK VINA RESULT:      -9.7      3.775      6.256
REMARK  Name = 5326870
REMARK  3 active torsions:
REMARK  status: ('A' for Active; 'I' for Inactive)
REMARK    1  A    between atoms: N_2  and  C_7
REMARK    2  A    between atoms: C_3  and  C_19
REMARK    3  A    between atoms: C_16  and  N_23
REMARK                            x       y       z     vdW  Elec       q    Type
REMARK                         _______ _______ _______ _____ _____    ______ ____
ROOT
ATOM      1  O   UNL     1      31.344 -12.083 -22.013  0.00  0.00    -0.270 OA
ATOM      2  N   UNL     1      33.489 -11.978 -22.971  0.00  0.00    -0.280 N 
ATOM      3  C   UNL     1      32.353 -11.462 -22.336  0.00  0.00    +0.250 C 
ATOM      4  H   UNL     1      34.210 -11.333 -23.157  0.00  0.00    +0.155 HD
ENDROOT
BRANCH   2   7
ATOM      5  N   UNL     1      34.544 -17.216 -24.339  0.00  0.00    -0.312 N 
ATOM      6  C   UNL     1      34.660 -15.486 -22.935  0.00  0.00    +0.016 C 
ATOM      7  C   UNL     1      33.727 -13.294 -23.372  0.00  0.00    +0.051 C 
ATOM      8  C   UNL     1      34.186 -15.896 -24.183  0.00  0.00    +0.048 C 
ATOM      9  C   UNL     1      34.424 -14.160 -22.523  0.00  0.00    +0.016 C 
ATOM     10  C   UNL     1      33.265 -13.730 -24.613  0.00  0.00    +0.016 C 
ATOM     11  C   UNL     1      33.486 -15.042 -25.043  0.00  0.00    +0.016 C 
ATOM     12  C   UNL     1      35.313 -16.606 -22.348  0.00  0.00    +0.017 C 
ATOM     13  C   UNL     1      35.226 -17.654 -23.236  0.00  0.00    +0.062 C 
ATOM     14  H   UNL     1      34.340 -17.766 -25.129  0.00  0.00    +0.152 HD
ENDBRANCH   2   7
BRANCH   3  19
ATOM     15  F   UNL     1      31.533  -7.713 -19.396  0.00  0.00    -0.204 F 
ATOM     16  C   UNL     1      32.898  -7.781 -22.768  0.00  0.00    +0.050 C 
ATOM     17  C   UNL     1      32.866  -9.150 -23.029  0.00  0.00    +0.019 C 
ATOM     18  C   UNL     1      32.448  -7.295 -21.540  0.00  0.00    +0.044 C 
ATOM     19  C   UNL     1      32.385 -10.003 -22.058  0.00  0.00    +0.057 C 
ATOM     20  C   UNL     1      31.966  -8.179 -20.574  0.00  0.00    +0.142 C 
ATOM     21  C   UNL     1      31.934  -9.548 -20.836  0.00  0.00    +0.034 C 
BRANCH  16  23
ATOM     22  O   UNL     1      34.328  -4.913 -25.489  0.00  0.00    -0.350 OA
ATOM     23  N   UNL     1      33.381  -6.895 -23.735  0.00  0.00    -0.303 N 
ATOM     24  C   UNL     1      32.480  -5.841 -24.222  0.00  0.00    +0.123 C 
ATOM     25  C   UNL     1      34.809  -6.561 -23.775  0.00  0.00    +0.123 C 
ATOM     26  C   UNL     1      32.966  -5.333 -25.574  0.00  0.00    +0.164 C 
ATOM     27  C   UNL     1      35.172  -6.013 -25.151  0.00  0.00    +0.164 C 
ENDBRANCH  16  23
ENDBRANCH   3  19
TORSDOF 3
ENDMDL
