MODEL 1
REMARK VINA RESULT:     -11.1      0.000      0.000
REMARK  Name = 5326866
REMARK  5 active torsions:
REMARK  status: ('A' for Active; 'I' for Inactive)
REMARK    1  A    between atoms: N_5  and  C_14
REMARK    2  A    between atoms: C_6  and  C_28
REMARK    3  A    between atoms: C_15  and  C_20
REMARK    4  A    between atoms: C_20  and  O_21
REMARK    5  A    between atoms: O_21  and  C_23
REMARK                            x       y       z     vdW  Elec       q    Type
REMARK                         _______ _______ _______ _____ _____    ______ ____
ROOT
ATOM      1  O   UNL     1      34.564 -21.271 -19.279  0.00  0.00    -0.252 OA
ATOM      2  N   UNL     1      35.429 -23.504 -15.811  0.00  0.00    -0.239 N 
ATOM      3  N   UNL     1      35.212 -22.765 -16.914  0.00  0.00    -0.166 NA
ATOM      4  N   UNL     1      36.575 -21.189 -18.079  0.00  0.00    -0.252 N 
ATOM      5  N   UNL     1      36.314 -19.879 -19.960  0.00  0.00    -0.268 N 
ATOM      6  C   UNL     1      36.638 -23.278 -15.318  0.00  0.00    +0.045 C 
ATOM      7  C   UNL     1      37.293 -22.389 -16.048  0.00  0.00    +0.048 C 
ATOM      8  C   UNL     1      36.354 -22.086 -17.053  0.00  0.00    +0.154 C 
ATOM      9  C   UNL     1      35.696 -20.824 -19.126  0.00  0.00    +0.309 C 
ATOM     10  H   UNL     1      34.776 -24.130 -15.423  0.00  0.00    +0.174 HD
ATOM     11  H   UNL     1      37.456 -20.747 -18.082  0.00  0.00    +0.158 HD
ATOM     12  H   UNL     1      37.229 -19.615 -19.710  0.00  0.00    +0.156 HD
ENDROOT
BRANCH   5  14
ATOM     13 CL   UNL     1      34.088 -17.322 -24.803  0.00  0.00    -0.082 Cl
ATOM     14  C   UNL     1      35.784 -19.258 -21.116  0.00  0.00    +0.051 C 
ATOM     15  C   UNL     1      35.250 -17.264 -22.339  0.00  0.00    +0.033 C 
ATOM     16  C   UNL     1      35.774 -17.875 -21.199  0.00  0.00    +0.015 C 
ATOM     17  C   UNL     1      35.284 -20.046 -22.139  0.00  0.00    +0.016 C 
ATOM     18  C   UNL     1      34.743 -18.044 -23.378  0.00  0.00    +0.057 C 
ATOM     19  C   UNL     1      34.760 -19.435 -23.278  0.00  0.00    +0.012 C 
BRANCH  15  20
ATOM     20  C   UNL     1      35.250 -15.771 -22.406  0.00  0.00    +0.233 C 
BRANCH  20  21
ATOM     21  O   UNL     1      34.722 -15.246 -21.196  0.00  0.00    -0.469 OA
BRANCH  21  23
ATOM     22  N   UNL     1      32.825 -12.474 -22.611  0.00  0.00    -0.239 NA
ATOM     23  C   UNL     1      33.779 -14.258 -21.310  0.00  0.00    +0.158 C 
ATOM     24  C   UNL     1      32.866 -14.040 -20.295  0.00  0.00    +0.040 C 
ATOM     25  C   UNL     1      33.728 -13.465 -22.436  0.00  0.00    +0.136 C 
ATOM     26  C   UNL     1      31.922 -13.029 -20.437  0.00  0.00    +0.024 C 
ATOM     27  C   UNL     1      31.943 -12.281 -21.604  0.00  0.00    +0.099 C 
ENDBRANCH  21  23
ENDBRANCH  20  21
ENDBRANCH  15  20
ENDBRANCH   5  14
BRANCH   6  28
ATOM     28  C   UNL     1      37.090 -24.029 -14.042  0.00  0.00    +0.033 C 
ATOM     29  C   UNL     1      38.474 -24.672 -14.274  0.00  0.00    +0.006 C 
ATOM     30  C   UNL     1      36.066 -25.130 -13.691  0.00  0.00    +0.006 C 
ATOM     31  C   UNL     1      37.215 -23.113 -12.805  0.00  0.00    +0.006 C 
ENDBRANCH   6  28
TORSDOF 5
ENDMDL
MODEL 2
REMARK VINA RESULT:     -11.0      3.473     11.501
REMARK  Name = 5326866
REMARK  5 active torsions:
REMARK  status: ('A' for Active; 'I' for Inactive)
REMARK    1  A    between atoms: N_5  and  C_14
REMARK    2  A    between atoms: C_6  and  C_28
REMARK    3  A    between atoms: C_15  and  C_20
REMARK    4  A    between atoms: C_20  and  O_21
REMARK    5  A    between atoms: O_21  and  C_23
REMARK                            x       y       z     vdW  Elec       q    Type
REMARK                         _______ _______ _______ _____ _____    ______ ____
ROOT
ATOM      1  O   UNL     1      32.320 -13.493 -23.075  0.00  0.00    -0.252 OA
ATOM      2  N   UNL     1      31.409  -9.392 -22.741  0.00  0.00    -0.239 N 
ATOM      3  N   UNL     1      31.762 -10.684 -22.854  0.00  0.00    -0.166 NA
ATOM      4  N   UNL     1      33.879 -11.745 -23.167  0.00  0.00    -0.252 N 
ATOM      5  N   UNL     1      34.598 -13.928 -23.369  0.00  0.00    -0.268 N 
ATOM      6  C   UNL     1      32.468  -8.601 -22.827  0.00  0.00    +0.045 C 
ATOM      7  C   UNL     1      33.577  -9.303 -22.998  0.00  0.00    +0.048 C 
ATOM      8  C   UNL     1      33.087 -10.624 -23.012  0.00  0.00    +0.154 C 
ATOM      9  C   UNL     1      33.477 -13.102 -23.192  0.00  0.00    +0.309 C 
ATOM     10  H   UNL     1      30.485  -9.076 -22.612  0.00  0.00    +0.174 HD
ATOM     11  H   UNL     1      34.843 -11.579 -23.273  0.00  0.00    +0.158 HD
ATOM     12  H   UNL     1      35.465 -13.468 -23.447  0.00  0.00    +0.156 HD
ENDROOT
BRANCH   5  14
ATOM     13 CL   UNL     1      34.748 -19.826 -23.743  0.00  0.00    -0.082 Cl
ATOM     14  C   UNL     1      34.636 -15.340 -23.448  0.00  0.00    +0.051 C 
ATOM     15  C   UNL     1      35.072 -17.465 -22.422  0.00  0.00    +0.033 C 
ATOM     16  C   UNL     1      35.034 -16.072 -22.342  0.00  0.00    +0.015 C 
ATOM     17  C   UNL     1      34.278 -15.961 -24.634  0.00  0.00    +0.016 C 
ATOM     18  C   UNL     1      34.714 -18.105 -23.608  0.00  0.00    +0.057 C 
ATOM     19  C   UNL     1      34.317 -17.353 -24.714  0.00  0.00    +0.012 C 
BRANCH  15  20
ATOM     20  C   UNL     1      35.503 -18.233 -21.214  0.00  0.00    +0.233 C 
BRANCH  20  21
ATOM     21  O   UNL     1      34.354 -18.666 -20.499  0.00  0.00    -0.469 OA
BRANCH  21  23
ATOM     22  N   UNL     1      33.097 -21.896 -19.370  0.00  0.00    -0.239 NA
ATOM     23  C   UNL     1      34.353 -19.964 -20.060  0.00  0.00    +0.158 C 
ATOM     24  C   UNL     1      35.545 -20.638 -19.863  0.00  0.00    +0.040 C 
ATOM     25  C   UNL     1      33.168 -20.618 -19.806  0.00  0.00    +0.136 C 
ATOM     26  C   UNL     1      35.514 -21.954 -19.415  0.00  0.00    +0.024 C 
ATOM     27  C   UNL     1      34.276 -22.532 -19.186  0.00  0.00    +0.099 C 
ENDBRANCH  21  23
ENDBRANCH  20  21
ENDBRANCH  15  20
ENDBRANCH   5  14
BRANCH   6  28
ATOM     28  C   UNL     1      32.281  -7.068 -22.723  0.00  0.00    +0.033 C 
ATOM     29  C   UNL     1      31.039  -6.635 -23.529  0.00  0.00    +0.006 C 
ATOM     30  C   UNL     1      33.530  -6.348 -23.278  0.00  0.00    +0.006 C 
ATOM     31  C   UNL     1      32.079  -6.573 -21.274  0.00  0.00    +0.006 C 
ENDBRANCH   6  28
TORSDOF 5
ENDMDL
MODEL 3
REMARK VINA RESULT:     -10.4      0.992      1.635
REMARK  Name = 5326866
REMARK  5 active torsions:
REMARK  status: ('A' for Active; 'I' for Inactive)
REMARK    1  A    between atoms: N_5  and  C_14
REMARK    2  A    between atoms: C_6  and  C_28
REMARK    3  A    between atoms: C_15  and  C_20
REMARK    4  A    between atoms: C_20  and  O_21
REMARK    5  A    between atoms: O_21  and  C_23
REMARK                            x       y       z     vdW  Elec       q    Type
REMARK                         _______ _______ _______ _____ _____    ______ ____
ROOT
ATOM      1  O   UNL     1      34.237 -20.801 -19.612  0.00  0.00    -0.252 OA
ATOM      2  N   UNL     1      34.981 -23.205 -16.232  0.00  0.00    -0.239 N 
ATOM      3  N   UNL     1      34.806 -22.419 -17.309  0.00  0.00    -0.166 NA
ATOM      4  N   UNL     1      36.298 -20.997 -18.514  0.00  0.00    -0.252 N 
ATOM      5  N   UNL     1      36.113 -19.621 -20.357  0.00  0.00    -0.268 N 
ATOM      6  C   UNL     1      36.231 -23.142 -15.796  0.00  0.00    +0.045 C 
ATOM      7  C   UNL     1      36.956 -22.325 -16.543  0.00  0.00    +0.048 C 
ATOM      8  C   UNL     1      36.015 -21.884 -17.494  0.00  0.00    +0.154 C 
ATOM      9  C   UNL     1      35.422 -20.502 -19.509  0.00  0.00    +0.309 C 
ATOM     10  H   UNL     1      34.273 -23.754 -15.822  0.00  0.00    +0.174 HD
ATOM     11  H   UNL     1      37.225 -20.669 -18.554  0.00  0.00    +0.158 HD
ATOM     12  H   UNL     1      37.065 -19.479 -20.148  0.00  0.00    +0.156 HD
ENDROOT
BRANCH   5  14
ATOM     13 CL   UNL     1      34.004 -16.695 -25.040  0.00  0.00    -0.082 Cl
ATOM     14  C   UNL     1      35.610 -18.912 -21.473  0.00  0.00    +0.051 C 
ATOM     15  C   UNL     1      35.015 -16.833 -22.513  0.00  0.00    +0.033 C 
ATOM     16  C   UNL     1      35.512 -17.532 -21.412  0.00  0.00    +0.015 C 
ATOM     17  C   UNL     1      35.223 -19.614 -22.603  0.00  0.00    +0.016 C 
ATOM     18  C   UNL     1      34.622 -17.525 -23.659  0.00  0.00    +0.057 C 
ATOM     19  C   UNL     1      34.727 -18.916 -23.703  0.00  0.00    +0.012 C 
BRANCH  15  20
ATOM     20  C   UNL     1      34.920 -15.344 -22.425  0.00  0.00    +0.233 C 
BRANCH  20  21
ATOM     21  O   UNL     1      33.600 -14.938 -22.763  0.00  0.00    -0.469 OA
BRANCH  21  23
ATOM     22  N   UNL     1      32.243 -11.730 -21.688  0.00  0.00    -0.239 NA
ATOM     23  C   UNL     1      33.344 -13.592 -22.740  0.00  0.00    +0.158 C 
ATOM     24  C   UNL     1      33.892 -12.757 -23.697  0.00  0.00    +0.040 C 
ATOM     25  C   UNL     1      32.536 -13.048 -21.766  0.00  0.00    +0.136 C 
ATOM     26  C   UNL     1      33.613 -11.396 -23.651  0.00  0.00    +0.024 C 
ATOM     27  C   UNL     1      32.791 -10.937 -22.635  0.00  0.00    +0.099 C 
ENDBRANCH  21  23
ENDBRANCH  20  21
ENDBRANCH  15  20
ENDBRANCH   5  14
BRANCH   6  28
ATOM     28  C   UNL     1      36.646 -23.974 -14.559  0.00  0.00    +0.033 C 
ATOM     29  C   UNL     1      36.136 -23.290 -13.272  0.00  0.00    +0.006 C 
ATOM     30  C   UNL     1      38.184 -24.095 -14.500  0.00  0.00    +0.006 C 
ATOM     31  C   UNL     1      36.077 -25.410 -14.568  0.00  0.00    +0.006 C 
ENDBRANCH   6  28
TORSDOF 5
ENDMDL
MODEL 4
REMARK VINA RESULT:     -10.0      3.814     12.341
REMARK  Name = 5326866
REMARK  5 active torsions:
REMARK  status: ('A' for Active; 'I' for Inactive)
REMARK    1  A    between atoms: N_5  and  C_14
REMARK    2  A    between atoms: C_6  and  C_28
REMARK    3  A    between atoms: C_15  and  C_20
REMARK    4  A    between atoms: C_20  and  O_21
REMARK    5  A    between atoms: O_21  and  C_23
REMARK                            x       y       z     vdW  Elec       q    Type
REMARK                         _______ _______ _______ _____ _____    ______ ____
ROOT
ATOM      1  O   UNL     1      34.215 -10.996 -23.985  0.00  0.00    -0.252 OA
ATOM      2  N   UNL     1      33.281  -6.976 -23.132  0.00  0.00    -0.239 N 
ATOM      3  N   UNL     1      33.527  -8.276 -23.370  0.00  0.00    -0.166 NA
ATOM      4  N   UNL     1      32.393 -10.269 -22.702  0.00  0.00    -0.252 N 
ATOM      5  N   UNL     1      32.716 -12.527 -23.049  0.00  0.00    -0.268 N 
ATOM      6  C   UNL     1      32.198  -6.826 -22.383  0.00  0.00    +0.045 C 
ATOM      7  C   UNL     1      31.662  -7.998 -22.079  0.00  0.00    +0.048 C 
ATOM      8  C   UNL     1      32.535  -8.896 -22.724  0.00  0.00    +0.154 C 
ATOM      9  C   UNL     1      33.216 -11.242 -23.318  0.00  0.00    +0.309 C 
ATOM     10  H   UNL     1      33.833  -6.234 -23.469  0.00  0.00    +0.174 HD
ATOM     11  H   UNL     1      31.622 -10.614 -22.196  0.00  0.00    +0.158 HD
ATOM     12  H   UNL     1      31.902 -12.567 -22.497  0.00  0.00    +0.156 HD
ENDROOT
BRANCH   5  14
ATOM     13 CL   UNL     1      34.885 -17.718 -24.866  0.00  0.00    -0.082 Cl
ATOM     14  C   UNL     1      33.238 -13.771 -23.475  0.00  0.00    +0.051 C 
ATOM     15  C   UNL     1      34.489 -15.765 -23.008  0.00  0.00    +0.033 C 
ATOM     16  C   UNL     1      33.974 -14.538 -22.586  0.00  0.00    +0.015 C 
ATOM     17  C   UNL     1      33.006 -14.195 -24.773  0.00  0.00    +0.016 C 
ATOM     18  C   UNL     1      34.263 -16.206 -24.311  0.00  0.00    +0.057 C 
ATOM     19  C   UNL     1      33.521 -15.420 -25.194  0.00  0.00    +0.012 C 
BRANCH  15  20
ATOM     20  C   UNL     1      35.278 -16.575 -22.031  0.00  0.00    +0.233 C 
BRANCH  20  21
ATOM     21  O   UNL     1      34.606 -17.804 -21.788  0.00  0.00    -0.469 OA
BRANCH  21  23
ATOM     22  N   UNL     1      37.329 -19.467 -20.027  0.00  0.00    -0.239 NA
ATOM     23  C   UNL     1      35.271 -18.734 -21.034  0.00  0.00    +0.158 C 
ATOM     24  C   UNL     1      34.605 -19.839 -20.535  0.00  0.00    +0.040 C 
ATOM     25  C   UNL     1      36.613 -18.586 -20.763  0.00  0.00    +0.136 C 
ATOM     26  C   UNL     1      35.306 -20.768 -19.775  0.00  0.00    +0.024 C 
ATOM     27  C   UNL     1      36.654 -20.538 -19.551  0.00  0.00    +0.099 C 
ENDBRANCH  21  23
ENDBRANCH  20  21
ENDBRANCH  15  20
ENDBRANCH   5  14
BRANCH   6  28
ATOM     28  C   UNL     1      31.738  -5.402 -21.989  0.00  0.00    +0.033 C 
ATOM     29  C   UNL     1      32.033  -4.418 -23.141  0.00  0.00    +0.006 C 
ATOM     30  C   UNL     1      32.485  -4.942 -20.718  0.00  0.00    +0.006 C 
ATOM     31  C   UNL     1      30.226  -5.309 -21.687  0.00  0.00    +0.006 C 
ENDBRANCH   6  28
TORSDOF 5
ENDMDL
MODEL 5
REMARK VINA RESULT:      -9.9      4.542     10.287
REMARK  Name = 5326866
REMARK  5 active torsions:
REMARK  status: ('A' for Active; 'I' for Inactive)
REMARK    1  A    between atoms: N_5  and  C_14
REMARK    2  A    between atoms: C_6  and  C_28
REMARK    3  A    between atoms: C_15  and  C_20
REMARK    4  A    between atoms: C_20  and  O_21
REMARK    5  A    between atoms: O_21  and  C_23
REMARK                            x       y       z     vdW  Elec       q    Type
REMARK                         _______ _______ _______ _____ _____    ______ ____
ROOT
ATOM      1  O   UNL     1      35.208 -22.918 -16.853  0.00  0.00    -0.252 OA
ATOM      2  N   UNL     1      34.635 -20.450 -20.220  0.00  0.00    -0.239 N 
ATOM      3  N   UNL     1      34.879 -21.215 -19.142  0.00  0.00    -0.166 NA
ATOM      4  N   UNL     1      36.822 -21.498 -17.784  0.00  0.00    -0.252 N 
ATOM      5  N   UNL     1      37.349 -22.764 -15.928  0.00  0.00    -0.268 N 
ATOM      6  C   UNL     1      35.705 -19.741 -20.551  0.00  0.00    +0.045 C 
ATOM      7  C   UNL     1      36.712 -19.984 -19.728  0.00  0.00    +0.048 C 
ATOM      8  C   UNL     1      36.149 -20.927 -18.845  0.00  0.00    +0.154 C 
ATOM      9  C   UNL     1      36.340 -22.447 -16.851  0.00  0.00    +0.309 C 
ATOM     10  H   UNL     1      33.776 -20.421 -20.700  0.00  0.00    +0.174 HD
ATOM     11  H   UNL     1      37.755 -21.208 -17.660  0.00  0.00    +0.158 HD
ATOM     12  H   UNL     1      38.210 -22.303 -16.055  0.00  0.00    +0.156 HD
ENDROOT
BRANCH   5  14
ATOM     13 CL   UNL     1      37.111 -26.535 -11.382  0.00  0.00    -0.082 Cl
ATOM     14  C   UNL     1      37.283 -23.665 -14.839  0.00  0.00    +0.051 C 
ATOM     15  C   UNL     1      36.042 -24.654 -13.039  0.00  0.00    +0.033 C 
ATOM     16  C   UNL     1      36.107 -23.766 -14.114  0.00  0.00    +0.015 C 
ATOM     17  C   UNL     1      38.396 -24.424 -14.519  0.00  0.00    +0.016 C 
ATOM     18  C   UNL     1      37.155 -25.426 -12.705  0.00  0.00    +0.057 C 
ATOM     19  C   UNL     1      38.331 -25.311 -13.445  0.00  0.00    +0.012 C 
BRANCH  15  20
ATOM     20  C   UNL     1      34.763 -24.747 -12.272  0.00  0.00    +0.233 C 
BRANCH  20  21
ATOM     21  O   UNL     1      33.918 -23.663 -12.635  0.00  0.00    -0.469 OA
BRANCH  21  23
ATOM     22  N   UNL     1      31.001 -25.482 -13.845  0.00  0.00    -0.239 NA
ATOM     23  C   UNL     1      32.810 -23.967 -13.381  0.00  0.00    +0.158 C 
ATOM     24  C   UNL     1      32.387 -23.116 -14.386  0.00  0.00    +0.040 C 
ATOM     25  C   UNL     1      32.101 -25.124 -13.145  0.00  0.00    +0.136 C 
ATOM     26  C   UNL     1      31.260 -23.450 -15.129  0.00  0.00    +0.024 C 
ATOM     27  C   UNL     1      30.608 -24.634 -14.821  0.00  0.00    +0.099 C 
ENDBRANCH  21  23
ENDBRANCH  20  21
ENDBRANCH  15  20
ENDBRANCH   5  14
BRANCH   6  28
ATOM     28  C   UNL     1      35.638 -18.791 -21.771  0.00  0.00    +0.033 C 
ATOM     29  C   UNL     1      37.056 -18.567 -22.339  0.00  0.00    +0.006 C 
ATOM     30  C   UNL     1      35.035 -17.434 -21.348  0.00  0.00    +0.006 C 
ATOM     31  C   UNL     1      34.767 -19.337 -22.924  0.00  0.00    +0.006 C 
ENDBRANCH   6  28
TORSDOF 5
ENDMDL
MODEL 6
REMARK VINA RESULT:      -9.8      2.753      3.166
REMARK  Name = 5326866
REMARK  5 active torsions:
REMARK  status: ('A' for Active; 'I' for Inactive)
REMARK    1  A    between atoms: N_5  and  C_14
REMARK    2  A    between atoms: C_6  and  C_28
REMARK    3  A    between atoms: C_15  and  C_20
REMARK    4  A    between atoms: C_20  and  O_21
REMARK    5  A    between atoms: O_21  and  C_23
REMARK                            x       y       z     vdW  Elec       q    Type
REMARK                         _______ _______ _______ _____ _____    ______ ____
ROOT
ATOM      1  O   UNL     1      32.118 -20.377 -19.599  0.00  0.00    -0.252 OA
ATOM      2  N   UNL     1      30.834 -22.798 -16.398  0.00  0.00    -0.239 N 
ATOM      3  N   UNL     1      31.304 -22.046 -17.408  0.00  0.00    -0.166 NA
ATOM      4  N   UNL     1      33.503 -21.736 -18.286  0.00  0.00    -0.252 N 
ATOM      5  N   UNL     1      34.419 -20.490 -19.999  0.00  0.00    -0.268 N 
ATOM      6  C   UNL     1      31.813 -23.472 -15.812  0.00  0.00    +0.045 C 
ATOM      7  C   UNL     1      32.978 -23.218 -16.385  0.00  0.00    +0.048 C 
ATOM      8  C   UNL     1      32.614 -22.306 -17.396  0.00  0.00    +0.154 C 
ATOM      9  C   UNL     1      33.229 -20.818 -19.327  0.00  0.00    +0.309 C 
ATOM     10  H   UNL     1      29.888 -22.841 -16.129  0.00  0.00    +0.174 HD
ATOM     11  H   UNL     1      34.446 -22.004 -18.184  0.00  0.00    +0.158 HD
ATOM     12  H   UNL     1      35.236 -20.926 -19.666  0.00  0.00    +0.156 HD
ENDROOT
BRANCH   5  14
ATOM     13 CL   UNL     1      35.108 -16.849 -24.604  0.00  0.00    -0.082 Cl
ATOM     14  C   UNL     1      34.586 -19.611 -21.095  0.00  0.00    +0.051 C 
ATOM     15  C   UNL     1      35.065 -17.417 -21.940  0.00  0.00    +0.033 C 
ATOM     16  C   UNL     1      34.901 -18.284 -20.858  0.00  0.00    +0.015 C 
ATOM     17  C   UNL     1      34.430 -20.097 -22.383  0.00  0.00    +0.016 C 
ATOM     18  C   UNL     1      34.911 -17.891 -23.242  0.00  0.00    +0.057 C 
ATOM     19  C   UNL     1      34.594 -19.232 -23.463  0.00  0.00    +0.012 C 
BRANCH  15  20
ATOM     20  C   UNL     1      35.405 -15.989 -21.659  0.00  0.00    +0.233 C 
BRANCH  20  21
ATOM     21  O   UNL     1      34.561 -15.500 -20.625  0.00  0.00    -0.469 OA
BRANCH  21  23
ATOM     22  N   UNL     1      33.230 -12.631 -22.437  0.00  0.00    -0.239 NA
ATOM     23  C   UNL     1      33.757 -14.435 -20.936  0.00  0.00    +0.158 C 
ATOM     24  C   UNL     1      32.705 -14.086 -20.108  0.00  0.00    +0.040 C 
ATOM     25  C   UNL     1      33.984 -13.694 -22.074  0.00  0.00    +0.136 C 
ATOM     26  C   UNL     1      31.907 -12.999 -20.447  0.00  0.00    +0.024 C 
ATOM     27  C   UNL     1      32.209 -12.311 -21.612  0.00  0.00    +0.099 C 
ENDBRANCH  21  23
ENDBRANCH  20  21
ENDBRANCH  15  20
ENDBRANCH   5  14
BRANCH   6  28
ATOM     28  C   UNL     1      31.486 -24.402 -14.618  0.00  0.00    +0.033 C 
ATOM     29  C   UNL     1      30.506 -25.507 -15.066  0.00  0.00    +0.006 C 
ATOM     30  C   UNL     1      30.847 -23.582 -13.475  0.00  0.00    +0.006 C 
ATOM     31  C   UNL     1      32.730 -25.105 -14.032  0.00  0.00    +0.006 C 
ENDBRANCH   6  28
TORSDOF 5
ENDMDL
MODEL 7
REMARK VINA RESULT:      -9.7      5.343      8.357
REMARK  Name = 5326866
REMARK  5 active torsions:
REMARK  status: ('A' for Active; 'I' for Inactive)
REMARK    1  A    between atoms: N_5  and  C_14
REMARK    2  A    between atoms: C_6  and  C_28
REMARK    3  A    between atoms: C_15  and  C_20
REMARK    4  A    between atoms: C_20  and  O_21
REMARK    5  A    between atoms: O_21  and  C_23
REMARK                            x       y       z     vdW  Elec       q    Type
REMARK                         _______ _______ _______ _____ _____    ______ ____
ROOT
ATOM      1  O   UNL     1      34.354 -12.757 -21.333  0.00  0.00    -0.252 OA
ATOM      2  N   UNL     1      34.955 -16.858 -20.568  0.00  0.00    -0.239 N 
ATOM      3  N   UNL     1      34.769 -15.562 -20.875  0.00  0.00    -0.166 NA
ATOM      4  N   UNL     1      34.736 -14.399 -22.961  0.00  0.00    -0.252 N 
ATOM      5  N   UNL     1      34.427 -12.204 -23.603  0.00  0.00    -0.268 N 
ATOM      6  C   UNL     1      35.152 -17.582 -21.660  0.00  0.00    +0.045 C 
ATOM      7  C   UNL     1      35.111 -16.827 -22.747  0.00  0.00    +0.048 C 
ATOM      8  C   UNL     1      34.867 -15.549 -22.207  0.00  0.00    +0.154 C 
ATOM      9  C   UNL     1      34.491 -13.081 -22.507  0.00  0.00    +0.309 C 
ATOM     10  H   UNL     1      34.945 -17.220 -19.653  0.00  0.00    +0.174 HD
ATOM     11  H   UNL     1      34.825 -14.511 -23.935  0.00  0.00    +0.158 HD
ATOM     12  H   UNL     1      34.557 -12.612 -24.490  0.00  0.00    +0.156 HD
ENDROOT
BRANCH   5  14
ATOM     13 CL   UNL     1      33.520  -6.363 -23.559  0.00  0.00    -0.082 Cl
ATOM     14  C   UNL     1      34.201 -10.808 -23.589  0.00  0.00    +0.051 C 
ATOM     15  C   UNL     1      32.703  -8.952 -23.328  0.00  0.00    +0.033 C 
ATOM     16  C   UNL     1      32.925 -10.330 -23.340  0.00  0.00    +0.015 C 
ATOM     17  C   UNL     1      35.260  -9.948 -23.829  0.00  0.00    +0.016 C 
ATOM     18  C   UNL     1      33.758  -8.073 -23.567  0.00  0.00    +0.057 C 
ATOM     19  C   UNL     1      35.037  -8.572 -23.817  0.00  0.00    +0.012 C 
BRANCH  15  20
ATOM     20  C   UNL     1      31.318  -8.460 -23.055  0.00  0.00    +0.233 C 
BRANCH  20  21
ATOM     21  O   UNL     1      31.264  -7.914 -21.744  0.00  0.00    -0.469 OA
BRANCH  21  23
ATOM     22  N   UNL     1      32.677  -9.175 -18.630  0.00  0.00    -0.239 NA
ATOM     23  C   UNL     1      31.536  -8.768 -20.708  0.00  0.00    +0.158 C 
ATOM     24  C   UNL     1      30.981 -10.035 -20.679  0.00  0.00    +0.040 C 
ATOM     25  C   UNL     1      32.367  -8.381 -19.680  0.00  0.00    +0.136 C 
ATOM     26  C   UNL     1      31.277 -10.882 -19.616  0.00  0.00    +0.024 C 
ATOM     27  C   UNL     1      32.122 -10.408 -18.626  0.00  0.00    +0.099 C 
ENDBRANCH  21  23
ENDBRANCH  20  21
ENDBRANCH  15  20
ENDBRANCH   5  14
BRANCH   6  28
ATOM     28  C   UNL     1      35.389 -19.106 -21.529  0.00  0.00    +0.033 C 
ATOM     29  C   UNL     1      36.798 -19.370 -20.958  0.00  0.00    +0.006 C 
ATOM     30  C   UNL     1      35.262 -19.778 -22.913  0.00  0.00    +0.006 C 
ATOM     31  C   UNL     1      34.379 -19.803 -20.591  0.00  0.00    +0.006 C 
ENDBRANCH   6  28
TORSDOF 5
ENDMDL
MODEL 8
REMARK VINA RESULT:      -9.6      4.453     10.264
REMARK  Name = 5326866
REMARK  5 active torsions:
REMARK  status: ('A' for Active; 'I' for Inactive)
REMARK    1  A    between atoms: N_5  and  C_14
REMARK    2  A    between atoms: C_6  and  C_28
REMARK    3  A    between atoms: C_15  and  C_20
REMARK    4  A    between atoms: C_20  and  O_21
REMARK    5  A    between atoms: O_21  and  C_23
REMARK                            x       y       z     vdW  Elec       q    Type
REMARK                         _______ _______ _______ _____ _____    ______ ____
ROOT
ATOM      1  O   UNL     1      35.202 -22.701 -16.981  0.00  0.00    -0.252 OA
ATOM      2  N   UNL     1      34.625 -20.280 -20.382  0.00  0.00    -0.239 N 
ATOM      3  N   UNL     1      34.870 -21.031 -19.295  0.00  0.00    -0.166 NA
ATOM      4  N   UNL     1      36.829 -21.329 -17.962  0.00  0.00    -0.252 N 
ATOM      5  N   UNL     1      37.360 -22.574 -16.093  0.00  0.00    -0.268 N 
ATOM      6  C   UNL     1      35.703 -19.598 -20.742  0.00  0.00    +0.045 C 
ATOM      7  C   UNL     1      36.718 -19.847 -19.930  0.00  0.00    +0.048 C 
ATOM      8  C   UNL     1      36.150 -20.764 -19.023  0.00  0.00    +0.154 C 
ATOM      9  C   UNL     1      36.343 -22.252 -17.006  0.00  0.00    +0.309 C 
ATOM     10  H   UNL     1      33.759 -20.242 -20.849  0.00  0.00    +0.174 HD
ATOM     11  H   UNL     1      37.770 -21.056 -17.858  0.00  0.00    +0.158 HD
ATOM     12  H   UNL     1      38.228 -22.132 -16.241  0.00  0.00    +0.156 HD
ENDROOT
BRANCH   5  14
ATOM     13 CL   UNL     1      37.119 -26.260 -11.478  0.00  0.00    -0.082 Cl
ATOM     14  C   UNL     1      37.293 -23.454 -14.987  0.00  0.00    +0.051 C 
ATOM     15  C   UNL     1      36.059 -24.393 -13.156  0.00  0.00    +0.033 C 
ATOM     16  C   UNL     1      36.124 -23.525 -14.247  0.00  0.00    +0.015 C 
ATOM     17  C   UNL     1      38.399 -24.223 -14.666  0.00  0.00    +0.016 C 
ATOM     18  C   UNL     1      37.164 -25.175 -12.820  0.00  0.00    +0.057 C 
ATOM     19  C   UNL     1      38.333 -25.090 -13.576  0.00  0.00    +0.012 C 
BRANCH  15  20
ATOM     20  C   UNL     1      34.787 -24.453 -12.374  0.00  0.00    +0.233 C 
BRANCH  20  21
ATOM     21  O   UNL     1      33.822 -25.198 -13.104  0.00  0.00    -0.469 OA
BRANCH  21  23
ATOM     22  N   UNL     1      30.249 -24.557 -13.439  0.00  0.00    -0.239 NA
ATOM     23  C   UNL     1      32.654 -24.553 -13.420  0.00  0.00    +0.158 C 
ATOM     24  C   UNL     1      32.682 -23.305 -14.016  0.00  0.00    +0.040 C 
ATOM     25  C   UNL     1      31.436 -25.138 -13.151  0.00  0.00    +0.136 C 
ATOM     26  C   UNL     1      31.482 -22.676 -14.327  0.00  0.00    +0.024 C 
ATOM     27  C   UNL     1      30.303 -23.338 -14.020  0.00  0.00    +0.099 C 
ENDBRANCH  21  23
ENDBRANCH  20  21
ENDBRANCH  15  20
ENDBRANCH   5  14
BRANCH   6  28
ATOM     28  C   UNL     1      35.636 -18.669 -21.978  0.00  0.00    +0.033 C 
ATOM     29  C   UNL     1      34.766 -19.317 -23.076  0.00  0.00    +0.006 C 
ATOM     30  C   UNL     1      37.059 -18.425 -22.528  0.00  0.00    +0.006 C 
ATOM     31  C   UNL     1      35.025 -17.285 -21.669  0.00  0.00    +0.006 C 
ENDBRANCH   6  28
TORSDOF 5
ENDMDL
MODEL 9
REMARK VINA RESULT:      -9.5      6.503     14.204
REMARK  Name = 5326866
REMARK  5 active torsions:
REMARK  status: ('A' for Active; 'I' for Inactive)
REMARK    1  A    between atoms: N_5  and  C_14
REMARK    2  A    between atoms: C_6  and  C_28
REMARK    3  A    between atoms: C_15  and  C_20
REMARK    4  A    between atoms: C_20  and  O_21
REMARK    5  A    between atoms: O_21  and  C_23
REMARK                            x       y       z     vdW  Elec       q    Type
REMARK                         _______ _______ _______ _____ _____    ______ ____
ROOT
ATOM      1  O   UNL     1      32.686  -8.322 -21.996  0.00  0.00    -0.252 OA
ATOM      2  N   UNL     1      32.872  -4.666 -24.084  0.00  0.00    -0.239 N 
ATOM      3  N   UNL     1      32.811  -5.863 -23.476  0.00  0.00    -0.166 NA
ATOM      4  N   UNL     1      32.675  -8.090 -24.328  0.00  0.00    -0.252 N 
ATOM      5  N   UNL     1      32.569 -10.195 -23.390  0.00  0.00    -0.268 N 
ATOM      6  C   UNL     1      32.850  -4.802 -25.402  0.00  0.00    +0.045 C 
ATOM      7  C   UNL     1      32.774  -6.077 -25.750  0.00  0.00    +0.048 C 
ATOM      8  C   UNL     1      32.750  -6.721 -24.497  0.00  0.00    +0.154 C 
ATOM      9  C   UNL     1      32.647  -8.820 -23.116  0.00  0.00    +0.309 C 
ATOM     10  H   UNL     1      32.927  -3.804 -23.613  0.00  0.00    +0.174 HD
ATOM     11  H   UNL     1      32.637  -8.624 -25.155  0.00  0.00    +0.158 HD
ATOM     12  H   UNL     1      32.546 -10.445 -24.343  0.00  0.00    +0.156 HD
ENDROOT
BRANCH   5  14
ATOM     13 CL   UNL     1      32.323 -14.657 -19.521  0.00  0.00    -0.082 Cl
ATOM     14  C   UNL     1      32.519 -11.266 -22.467  0.00  0.00    +0.051 C 
ATOM     15  C   UNL     1      33.494 -13.253 -21.542  0.00  0.00    +0.033 C 
ATOM     16  C   UNL     1      33.545 -12.197 -22.452  0.00  0.00    +0.015 C 
ATOM     17  C   UNL     1      31.444 -11.363 -21.600  0.00  0.00    +0.016 C 
ATOM     18  C   UNL     1      32.419 -13.365 -20.661  0.00  0.00    +0.057 C 
ATOM     19  C   UNL     1      31.393 -12.419 -20.691  0.00  0.00    +0.012 C 
BRANCH  15  20
ATOM     20  C   UNL     1      34.613 -14.244 -21.543  0.00  0.00    +0.233 C 
BRANCH  20  21
ATOM     21  O   UNL     1      34.968 -14.550 -22.885  0.00  0.00    -0.469 OA
BRANCH  21  23
ATOM     22  N   UNL     1      34.008 -17.407 -24.935  0.00  0.00    -0.239 NA
ATOM     23  C   UNL     1      34.808 -15.851 -23.285  0.00  0.00    +0.158 C 
ATOM     24  C   UNL     1      35.257 -16.889 -22.488  0.00  0.00    +0.040 C 
ATOM     25  C   UNL     1      34.198 -16.146 -24.483  0.00  0.00    +0.136 C 
ATOM     26  C   UNL     1      35.079 -18.200 -22.917  0.00  0.00    +0.024 C 
ATOM     27  C   UNL     1      34.455 -18.403 -24.138  0.00  0.00    +0.099 C 
ENDBRANCH  21  23
ENDBRANCH  20  21
ENDBRANCH  15  20
ENDBRANCH   5  14
BRANCH   6  28
ATOM     28  C   UNL     1      32.910  -3.540 -26.297  0.00  0.00    +0.033 C 
ATOM     29  C   UNL     1      34.349  -3.332 -26.814  0.00  0.00    +0.006 C 
ATOM     30  C   UNL     1      32.473  -2.301 -25.486  0.00  0.00    +0.006 C 
ATOM     31  C   UNL     1      31.989  -3.623 -27.534  0.00  0.00    +0.006 C 
ENDBRANCH   6  28
TORSDOF 5
ENDMDL
