MODEL 1
REMARK VINA RESULT:     -10.5      0.000      0.000
REMARK  Name = 5330197
REMARK  7 active torsions:
REMARK  status: ('A' for Active; 'I' for Inactive)
REMARK    1  A    between atoms: N_1  and  C_16
REMARK    2  A    between atoms: C_4  and  O_25
REMARK    3  A    between atoms: C_5  and  O_23
REMARK    4  A    between atoms: O_25  and  C_26
REMARK    5  A    between atoms: C_26  and  C_27
REMARK    6  A    between atoms: C_27  and  C_28
REMARK    7  A    between atoms: C_28  and  N_29
REMARK                            x       y       z     vdW  Elec       q    Type
REMARK                         _______ _______ _______ _____ _____    ______ ____
ROOT
ATOM      1  N   UNL     1      35.895 -23.505 -14.700  0.00  0.00    -0.295 N 
ATOM      2  N   UNL     1      32.146 -23.133 -16.414  0.00  0.00    -0.248 NA
ATOM      3  N   UNL     1      33.562 -23.795 -14.580  0.00  0.00    -0.230 NA
ATOM      4  C   UNL     1      34.189 -21.736 -19.114  0.00  0.00    +0.156 C 
ATOM      5  C   UNL     1      35.467 -21.842 -18.578  0.00  0.00    +0.169 C 
ATOM      6  C   UNL     1      33.082 -22.172 -18.379  0.00  0.00    +0.112 C 
ATOM      7  C   UNL     1      34.518 -22.820 -16.575  0.00  0.00    +0.048 C 
ATOM      8  C   UNL     1      33.222 -22.718 -17.106  0.00  0.00    +0.066 C 
ATOM      9  C   UNL     1      35.636 -22.384 -17.307  0.00  0.00    +0.044 C 
ATOM     10  C   UNL     1      34.618 -23.371 -15.300  0.00  0.00    +0.131 C 
ATOM     11  C   UNL     1      32.375 -23.650 -15.189  0.00  0.00    +0.252 C 
ATOM     12  H   UNL     1      36.541 -22.819 -14.983  0.00  0.00    +0.154 HD
ENDROOT
BRANCH   1  16
ATOM     13 CL   UNL     1      36.245 -26.372 -15.682  0.00  0.00    -0.081 Cl
ATOM     14  O   UNL     1      36.609 -22.764 -12.000  0.00  0.00    -0.433 OA
ATOM     15  O   UNL     1      37.501 -24.302 -10.374  0.00  0.00    -0.435 OA
ATOM     16  C   UNL     1      36.415 -24.427 -13.777  0.00  0.00    +0.098 C 
ATOM     17  C   UNL     1      36.739 -24.024 -12.498  0.00  0.00    +0.190 C 
ATOM     18  C   UNL     1      37.249 -24.903 -11.569  0.00  0.00    +0.178 C 
ATOM     19  C   UNL     1      36.621 -25.769 -14.105  0.00  0.00    +0.074 C 
ATOM     20  C   UNL     1      37.463 -26.232 -11.868  0.00  0.00    +0.041 C 
ATOM     21  C   UNL     1      37.092 -22.948 -10.653  0.00  0.00    +0.429 C 
ATOM     22  C   UNL     1      37.142 -26.666 -13.157  0.00  0.00    +0.016 C 
ENDBRANCH   1  16
BRANCH   5  23
ATOM     23  O   UNL     1      36.553 -21.420 -19.281  0.00  0.00    -0.469 OA
ATOM     24  C   UNL     1      37.242 -20.272 -18.786  0.00  0.00    +0.253 C 
ENDBRANCH   5  23
BRANCH   4  25
ATOM     25  O   UNL     1      33.998 -21.205 -20.363  0.00  0.00    -0.476 OA
BRANCH  25  26
ATOM     26  C   UNL     1      34.067 -19.789 -20.476  0.00  0.00    +0.203 C 
BRANCH  26  27
ATOM     27  C   UNL     1      34.839 -19.433 -21.738  0.00  0.00    +0.025 C 
BRANCH  27  28
ATOM     28  C   UNL     1      35.878 -18.348 -21.470  0.00  0.00    -0.074 C 
BRANCH  28  29
ATOM     29  N   UNL     1      35.654 -17.202 -22.350  0.00  0.00    +0.387 N 
ATOM     30  C   UNL     1      34.973 -16.121 -21.624  0.00  0.00    -0.077 C 
ATOM     31  C   UNL     1      34.890 -17.606 -23.538  0.00  0.00    -0.077 C 
ATOM     32  C   UNL     1      34.776 -14.894 -22.516  0.00  0.00    -0.023 C 
ATOM     33  C   UNL     1      34.690 -16.429 -24.493  0.00  0.00    -0.023 C 
ATOM     34  C   UNL     1      34.021 -15.252 -23.791  0.00  0.00    -0.004 C 
ATOM     35  H   UNL     1      36.558 -16.848 -22.662  0.00  0.00    -0.080 HD
ENDBRANCH  28  29
ENDBRANCH  27  28
ENDBRANCH  26  27
ENDBRANCH  25  26
ENDBRANCH   4  25
TORSDOF 7
ENDMDL
MODEL 2
REMARK VINA RESULT:     -10.1      8.765     15.376
REMARK  Name = 5330197
REMARK  7 active torsions:
REMARK  status: ('A' for Active; 'I' for Inactive)
REMARK    1  A    between atoms: N_1  and  C_16
REMARK    2  A    between atoms: C_4  and  O_25
REMARK    3  A    between atoms: C_5  and  O_23
REMARK    4  A    between atoms: O_25  and  C_26
REMARK    5  A    between atoms: C_26  and  C_27
REMARK    6  A    between atoms: C_27  and  C_28
REMARK    7  A    between atoms: C_28  and  N_29
REMARK                            x       y       z     vdW  Elec       q    Type
REMARK                         _______ _______ _______ _____ _____    ______ ____
ROOT
ATOM      1  N   UNL     1      32.397  -8.245 -23.346  0.00  0.00    -0.295 N 
ATOM      2  N   UNL     1      31.778  -9.358 -19.407  0.00  0.00    -0.248 NA
ATOM      3  N   UNL     1      32.063  -7.658 -21.091  0.00  0.00    -0.230 NA
ATOM      4  C   UNL     1      31.958 -12.674 -20.953  0.00  0.00    +0.156 C 
ATOM      5  C   UNL     1      32.167 -12.347 -22.287  0.00  0.00    +0.169 C 
ATOM      6  C   UNL     1      31.829 -11.663 -19.996  0.00  0.00    +0.112 C 
ATOM      7  C   UNL     1      32.115  -9.998 -21.694  0.00  0.00    +0.048 C 
ATOM      8  C   UNL     1      31.905 -10.317 -20.342  0.00  0.00    +0.066 C 
ATOM      9  C   UNL     1      32.247 -11.008 -22.662  0.00  0.00    +0.044 C 
ATOM     10  C   UNL     1      32.185  -8.643 -22.002  0.00  0.00    +0.131 C 
ATOM     11  C   UNL     1      31.865  -8.081 -19.833  0.00  0.00    +0.252 C 
ATOM     12  H   UNL     1      32.031  -8.874 -24.008  0.00  0.00    +0.154 HD
ENDROOT
BRANCH   1  16
ATOM     13 CL   UNL     1      35.431  -8.382 -23.629  0.00  0.00    -0.081 Cl
ATOM     14  O   UNL     1      30.929  -5.914 -24.216  0.00  0.00    -0.433 OA
ATOM     15  O   UNL     1      31.956  -3.966 -25.195  0.00  0.00    -0.435 OA
ATOM     16  C   UNL     1      33.027  -7.127 -23.915  0.00  0.00    +0.098 C 
ATOM     17  C   UNL     1      32.281  -6.036 -24.313  0.00  0.00    +0.190 C 
ATOM     18  C   UNL     1      32.868  -4.923 -24.873  0.00  0.00    +0.178 C 
ATOM     19  C   UNL     1      34.410  -7.068 -24.097  0.00  0.00    +0.074 C 
ATOM     20  C   UNL     1      34.232  -4.840 -25.064  0.00  0.00    +0.041 C 
ATOM     21  C   UNL     1      30.731  -4.599 -24.775  0.00  0.00    +0.429 C 
ATOM     22  C   UNL     1      35.009  -5.932 -24.668  0.00  0.00    +0.016 C 
ENDBRANCH   1  16
BRANCH   5  23
ATOM     23  O   UNL     1      32.293 -13.320 -23.231  0.00  0.00    -0.469 OA
ATOM     24  C   UNL     1      33.327 -13.155 -24.201  0.00  0.00    +0.253 C 
ENDBRANCH   5  23
BRANCH   4  25
ATOM     25  O   UNL     1      31.876 -13.985 -20.561  0.00  0.00    -0.476 OA
BRANCH  25  26
ATOM     26  C   UNL     1      32.945 -14.487 -19.771  0.00  0.00    +0.203 C 
BRANCH  26  27
ATOM     27  C   UNL     1      34.181 -14.626 -20.647  0.00  0.00    +0.025 C 
BRANCH  27  28
ATOM     28  C   UNL     1      34.941 -15.913 -20.342  0.00  0.00    -0.074 C 
BRANCH  28  29
ATOM     29  N   UNL     1      35.258 -16.622 -21.582  0.00  0.00    +0.387 N 
ATOM     30  C   UNL     1      34.553 -16.014 -22.717  0.00  0.00    -0.077 C 
ATOM     31  C   UNL     1      34.930 -18.049 -21.455  0.00  0.00    -0.077 C 
ATOM     32  C   UNL     1      34.912 -16.712 -24.030  0.00  0.00    -0.023 C 
ATOM     33  C   UNL     1      35.302 -18.814 -22.726  0.00  0.00    -0.023 C 
ATOM     34  C   UNL     1      34.632 -18.209 -23.955  0.00  0.00    -0.004 C 
ATOM     35  H   UNL     1      36.260 -16.544 -21.756  0.00  0.00    -0.080 HD
ENDBRANCH  28  29
ENDBRANCH  27  28
ENDBRANCH  26  27
ENDBRANCH  25  26
ENDBRANCH   4  25
TORSDOF 7
ENDMDL
MODEL 3
REMARK VINA RESULT:     -10.0      1.629      2.102
REMARK  Name = 5330197
REMARK  7 active torsions:
REMARK  status: ('A' for Active; 'I' for Inactive)
REMARK    1  A    between atoms: N_1  and  C_16
REMARK    2  A    between atoms: C_4  and  O_25
REMARK    3  A    between atoms: C_5  and  O_23
REMARK    4  A    between atoms: O_25  and  C_26
REMARK    5  A    between atoms: C_26  and  C_27
REMARK    6  A    between atoms: C_27  and  C_28
REMARK    7  A    between atoms: C_28  and  N_29
REMARK                            x       y       z     vdW  Elec       q    Type
REMARK                         _______ _______ _______ _____ _____    ______ ____
ROOT
ATOM      1  N   UNL     1      36.328 -23.321 -14.810  0.00  0.00    -0.295 N 
ATOM      2  N   UNL     1      32.544 -23.102 -16.474  0.00  0.00    -0.248 NA
ATOM      3  N   UNL     1      34.010 -23.699 -14.656  0.00  0.00    -0.230 NA
ATOM      4  C   UNL     1      34.494 -21.645 -19.210  0.00  0.00    +0.156 C 
ATOM      5  C   UNL     1      35.783 -21.699 -18.692  0.00  0.00    +0.169 C 
ATOM      6  C   UNL     1      33.416 -22.119 -18.457  0.00  0.00    +0.112 C 
ATOM      7  C   UNL     1      34.901 -22.700 -16.670  0.00  0.00    +0.048 C 
ATOM      8  C   UNL     1      33.594 -22.651 -17.183  0.00  0.00    +0.066 C 
ATOM      9  C   UNL     1      35.990 -22.227 -17.420  0.00  0.00    +0.044 C 
ATOM     10  C   UNL     1      35.039 -23.239 -15.394  0.00  0.00    +0.131 C 
ATOM     11  C   UNL     1      32.810 -23.602 -15.249  0.00  0.00    +0.252 C 
ATOM     12  H   UNL     1      36.944 -22.613 -15.106  0.00  0.00    +0.154 HD
ENDROOT
BRANCH   1  16
ATOM     13 CL   UNL     1      37.311 -22.133 -12.178  0.00  0.00    -0.081 Cl
ATOM     14  O   UNL     1      36.571 -26.151 -15.344  0.00  0.00    -0.433 OA
ATOM     15  O   UNL     1      37.539 -27.731 -13.805  0.00  0.00    -0.435 OA
ATOM     16  C   UNL     1      36.896 -24.216 -13.890  0.00  0.00    +0.098 C 
ATOM     17  C   UNL     1      36.991 -25.559 -14.192  0.00  0.00    +0.190 C 
ATOM     18  C   UNL     1      37.544 -26.462 -13.313  0.00  0.00    +0.178 C 
ATOM     19  C   UNL     1      37.383 -23.795 -12.651  0.00  0.00    +0.074 C 
ATOM     20  C   UNL     1      38.032 -26.072 -12.083  0.00  0.00    +0.041 C 
ATOM     21  C   UNL     1      36.923 -27.526 -15.092  0.00  0.00    +0.429 C 
ATOM     22  C   UNL     1      37.948 -24.717 -11.752  0.00  0.00    +0.016 C 
ENDBRANCH   1  16
BRANCH   5  23
ATOM     23  O   UNL     1      36.843 -21.241 -19.413  0.00  0.00    -0.469 OA
ATOM     24  C   UNL     1      37.296 -19.917 -19.132  0.00  0.00    +0.253 C 
ENDBRANCH   5  23
BRANCH   4  25
ATOM     25  O   UNL     1      34.267 -21.130 -20.460  0.00  0.00    -0.476 OA
BRANCH  25  26
ATOM     26  C   UNL     1      34.083 -19.723 -20.549  0.00  0.00    +0.203 C 
BRANCH  26  27
ATOM     27  C   UNL     1      34.860 -19.201 -21.750  0.00  0.00    +0.025 C 
BRANCH  27  28
ATOM     28  C   UNL     1      35.722 -17.999 -21.379  0.00  0.00    -0.074 C 
BRANCH  28  29
ATOM     29  N   UNL     1      35.536 -16.921 -22.349  0.00  0.00    +0.387 N 
ATOM     30  C   UNL     1      34.829 -15.790 -21.732  0.00  0.00    -0.077 C 
ATOM     31  C   UNL     1      34.819 -17.412 -23.534  0.00  0.00    -0.077 C 
ATOM     32  C   UNL     1      34.670 -14.632 -22.718  0.00  0.00    -0.023 C 
ATOM     33  C   UNL     1      34.659 -16.308 -24.579  0.00  0.00    -0.023 C 
ATOM     34  C   UNL     1      33.965 -15.084 -23.993  0.00  0.00    -0.004 C 
ATOM     35  H   UNL     1      36.453 -16.590 -22.651  0.00  0.00    -0.080 HD
ENDBRANCH  28  29
ENDBRANCH  27  28
ENDBRANCH  26  27
ENDBRANCH  25  26
ENDBRANCH   4  25
TORSDOF 7
ENDMDL
MODEL 4
REMARK VINA RESULT:      -9.6      7.331     14.414
REMARK  Name = 5330197
REMARK  7 active torsions:
REMARK  status: ('A' for Active; 'I' for Inactive)
REMARK    1  A    between atoms: N_1  and  C_16
REMARK    2  A    between atoms: C_4  and  O_25
REMARK    3  A    between atoms: C_5  and  O_23
REMARK    4  A    between atoms: O_25  and  C_26
REMARK    5  A    between atoms: C_26  and  C_27
REMARK    6  A    between atoms: C_27  and  C_28
REMARK    7  A    between atoms: C_28  and  N_29
REMARK                            x       y       z     vdW  Elec       q    Type
REMARK                         _______ _______ _______ _____ _____    ______ ____
ROOT
ATOM      1  N   UNL     1      32.759  -9.632 -23.298  0.00  0.00    -0.295 N 
ATOM      2  N   UNL     1      31.940 -11.539 -19.717  0.00  0.00    -0.248 NA
ATOM      3  N   UNL     1      31.920  -9.566 -21.100  0.00  0.00    -0.230 NA
ATOM      4  C   UNL     1      33.395 -14.339 -21.576  0.00  0.00    +0.156 C 
ATOM      5  C   UNL     1      33.688 -13.741 -22.795  0.00  0.00    +0.169 C 
ATOM      6  C   UNL     1      32.809 -13.591 -20.551  0.00  0.00    +0.112 C 
ATOM      7  C   UNL     1      32.804 -11.649 -21.951  0.00  0.00    +0.048 C 
ATOM      8  C   UNL     1      32.504 -12.243 -20.715  0.00  0.00    +0.066 C 
ATOM      9  C   UNL     1      33.394 -12.393 -22.987  0.00  0.00    +0.044 C 
ATOM     10  C   UNL     1      32.485 -10.300 -22.078  0.00  0.00    +0.131 C 
ATOM     11  C   UNL     1      31.680 -10.239 -19.963  0.00  0.00    +0.252 C 
ATOM     12  H   UNL     1      32.716 -10.216 -24.089  0.00  0.00    +0.154 HD
ENDROOT
BRANCH   1  16
ATOM     13 CL   UNL     1      35.717  -8.987 -23.675  0.00  0.00    -0.081 Cl
ATOM     14  O   UNL     1      30.747  -7.573 -23.550  0.00  0.00    -0.433 OA
ATOM     15  O   UNL     1      31.238  -5.269 -24.057  0.00  0.00    -0.435 OA
ATOM     16  C   UNL     1      33.079  -8.298 -23.596  0.00  0.00    +0.098 C 
ATOM     17  C   UNL     1      32.081  -7.350 -23.704  0.00  0.00    +0.190 C 
ATOM     18  C   UNL     1      32.361  -6.034 -23.994  0.00  0.00    +0.178 C 
ATOM     19  C   UNL     1      34.396  -7.877 -23.790  0.00  0.00    +0.074 C 
ATOM     20  C   UNL     1      33.654  -5.593 -24.191  0.00  0.00    +0.041 C 
ATOM     21  C   UNL     1      30.220  -6.249 -23.773  0.00  0.00    +0.429 C 
ATOM     22  C   UNL     1      34.682  -6.533 -24.086  0.00  0.00    +0.016 C 
ENDBRANCH   1  16
BRANCH   5  23
ATOM     23  O   UNL     1      34.257 -14.456 -23.803  0.00  0.00    -0.469 OA
ATOM     24  C   UNL     1      33.410 -14.842 -24.885  0.00  0.00    +0.253 C 
ENDBRANCH   5  23
BRANCH   4  25
ATOM     25  O   UNL     1      33.676 -15.664 -21.365  0.00  0.00    -0.476 OA
BRANCH  25  26
ATOM     26  C   UNL     1      35.048 -16.024 -21.281  0.00  0.00    +0.203 C 
BRANCH  26  27
ATOM     27  C   UNL     1      35.273 -17.295 -22.087  0.00  0.00    +0.025 C 
BRANCH  27  28
ATOM     28  C   UNL     1      36.317 -18.195 -21.433  0.00  0.00    -0.074 C 
BRANCH  28  29
ATOM     29  N   UNL     1      35.684 -19.079 -20.454  0.00  0.00    +0.387 N 
ATOM     30  C   UNL     1      36.638 -20.092 -19.984  0.00  0.00    -0.077 C 
ATOM     31  C   UNL     1      34.483 -19.703 -21.025  0.00  0.00    -0.077 C 
ATOM     32  C   UNL     1      36.008 -20.994 -18.921  0.00  0.00    -0.023 C 
ATOM     33  C   UNL     1      33.782 -20.591 -19.996  0.00  0.00    -0.023 C 
ATOM     34  C   UNL     1      34.729 -21.647 -19.436  0.00  0.00    -0.004 C 
ATOM     35  H   UNL     1      35.397 -18.521 -19.649  0.00  0.00    -0.080 HD
ENDBRANCH  28  29
ENDBRANCH  27  28
ENDBRANCH  26  27
ENDBRANCH  25  26
ENDBRANCH   4  25
TORSDOF 7
ENDMDL
MODEL 5
REMARK VINA RESULT:      -9.6      3.010      4.312
REMARK  Name = 5330197
REMARK  7 active torsions:
REMARK  status: ('A' for Active; 'I' for Inactive)
REMARK    1  A    between atoms: N_1  and  C_16
REMARK    2  A    between atoms: C_4  and  O_25
REMARK    3  A    between atoms: C_5  and  O_23
REMARK    4  A    between atoms: O_25  and  C_26
REMARK    5  A    between atoms: C_26  and  C_27
REMARK    6  A    between atoms: C_27  and  C_28
REMARK    7  A    between atoms: C_28  and  N_29
REMARK                            x       y       z     vdW  Elec       q    Type
REMARK                         _______ _______ _______ _____ _____    ______ ____
ROOT
ATOM      1  N   UNL     1      33.401 -23.484 -16.409  0.00  0.00    -0.295 N 
ATOM      2  N   UNL     1      37.233 -21.922 -16.501  0.00  0.00    -0.248 NA
ATOM      3  N   UNL     1      35.514 -23.211 -15.410  0.00  0.00    -0.230 NA
ATOM      4  C   UNL     1      35.974 -20.631 -19.690  0.00  0.00    +0.156 C 
ATOM      5  C   UNL     1      34.679 -21.135 -19.701  0.00  0.00    +0.169 C 
ATOM      6  C   UNL     1      36.822 -20.902 -18.611  0.00  0.00    +0.112 C 
ATOM      7  C   UNL     1      35.092 -22.176 -17.553  0.00  0.00    +0.048 C 
ATOM      8  C   UNL     1      36.403 -21.672 -17.530  0.00  0.00    +0.066 C 
ATOM      9  C   UNL     1      34.233 -21.909 -18.634  0.00  0.00    +0.044 C 
ATOM     10  C   UNL     1      34.710 -22.942 -16.456  0.00  0.00    +0.131 C 
ATOM     11  C   UNL     1      36.742 -22.677 -15.497  0.00  0.00    +0.252 C 
ATOM     12  H   UNL     1      33.022 -23.684 -17.295  0.00  0.00    +0.154 HD
ENDROOT
BRANCH   1  16
ATOM     13 CL   UNL     1      34.609 -25.056 -14.091  0.00  0.00    -0.081 Cl
ATOM     14  O   UNL     1      30.623 -22.689 -16.375  0.00  0.00    -0.433 OA
ATOM     15  O   UNL     1      29.102 -23.194 -14.576  0.00  0.00    -0.435 OA
ATOM     16  C   UNL     1      32.541 -23.792 -15.343  0.00  0.00    +0.098 C 
ATOM     17  C   UNL     1      31.221 -23.392 -15.374  0.00  0.00    +0.190 C 
ATOM     18  C   UNL     1      30.352 -23.680 -14.346  0.00  0.00    +0.178 C 
ATOM     19  C   UNL     1      32.974 -24.508 -14.224  0.00  0.00    +0.074 C 
ATOM     20  C   UNL     1      30.755 -24.385 -13.231  0.00  0.00    +0.041 C 
ATOM     21  C   UNL     1      29.280 -22.569 -15.862  0.00  0.00    +0.429 C 
ATOM     22  C   UNL     1      32.087 -24.803 -13.175  0.00  0.00    +0.016 C 
ENDBRANCH   1  16
BRANCH   5  23
ATOM     23  O   UNL     1      33.843 -20.881 -20.745  0.00  0.00    -0.469 OA
ATOM     24  C   UNL     1      32.644 -20.163 -20.458  0.00  0.00    +0.253 C 
ENDBRANCH   5  23
BRANCH   4  25
ATOM     25  O   UNL     1      36.435 -19.867 -20.731  0.00  0.00    -0.476 OA
BRANCH  25  26
ATOM     26  C   UNL     1      36.444 -18.459 -20.538  0.00  0.00    +0.203 C 
BRANCH  26  27
ATOM     27  C   UNL     1      35.320 -17.843 -21.359  0.00  0.00    +0.025 C 
BRANCH  27  28
ATOM     28  C   UNL     1      35.695 -17.738 -22.833  0.00  0.00    -0.074 C 
BRANCH  28  29
ATOM     29  N   UNL     1      35.284 -16.442 -23.373  0.00  0.00    +0.387 N 
ATOM     30  C   UNL     1      34.869 -15.542 -22.288  0.00  0.00    -0.077 C 
ATOM     31  C   UNL     1      34.210 -16.614 -24.361  0.00  0.00    -0.077 C 
ATOM     32  C   UNL     1      34.484 -14.165 -22.830  0.00  0.00    -0.023 C 
ATOM     33  C   UNL     1      33.803 -15.272 -24.971  0.00  0.00    -0.023 C 
ATOM     34  C   UNL     1      33.396 -14.273 -23.894  0.00  0.00    -0.004 C 
ATOM     35  H   UNL     1      36.082 -16.017 -23.845  0.00  0.00    -0.080 HD
ENDBRANCH  28  29
ENDBRANCH  27  28
ENDBRANCH  26  27
ENDBRANCH  25  26
ENDBRANCH   4  25
TORSDOF 7
ENDMDL
MODEL 6
REMARK VINA RESULT:      -9.6      8.271     12.439
REMARK  Name = 5330197
REMARK  7 active torsions:
REMARK  status: ('A' for Active; 'I' for Inactive)
REMARK    1  A    between atoms: N_1  and  C_16
REMARK    2  A    between atoms: C_4  and  O_25
REMARK    3  A    between atoms: C_5  and  O_23
REMARK    4  A    between atoms: O_25  and  C_26
REMARK    5  A    between atoms: C_26  and  C_27
REMARK    6  A    between atoms: C_27  and  C_28
REMARK    7  A    between atoms: C_28  and  N_29
REMARK                            x       y       z     vdW  Elec       q    Type
REMARK                         _______ _______ _______ _____ _____    ______ ____
ROOT
ATOM      1  N   UNL     1      34.127 -14.202 -22.779  0.00  0.00    -0.295 N 
ATOM      2  N   UNL     1      31.902 -12.824 -19.573  0.00  0.00    -0.248 NA
ATOM      3  N   UNL     1      33.123 -14.579 -20.685  0.00  0.00    -0.230 NA
ATOM      4  C   UNL     1      31.953  -9.790 -21.624  0.00  0.00    +0.156 C 
ATOM      5  C   UNL     1      32.696 -10.209 -22.721  0.00  0.00    +0.169 C 
ATOM      6  C   UNL     1      31.694 -10.675 -20.574  0.00  0.00    +0.112 C 
ATOM      7  C   UNL     1      32.913 -12.398 -21.706  0.00  0.00    +0.048 C 
ATOM      8  C   UNL     1      32.163 -11.986 -20.593  0.00  0.00    +0.066 C 
ATOM      9  C   UNL     1      33.178 -11.514 -22.766  0.00  0.00    +0.044 C 
ATOM     10  C   UNL     1      33.365 -13.715 -21.689  0.00  0.00    +0.131 C 
ATOM     11  C   UNL     1      32.396 -14.075 -19.675  0.00  0.00    +0.252 C 
ATOM     12  H   UNL     1      34.666 -13.511 -23.228  0.00  0.00    +0.154 HD
ENDROOT
BRANCH   1  16
ATOM     13 CL   UNL     1      32.981 -14.591 -25.580  0.00  0.00    -0.081 Cl
ATOM     14  O   UNL     1      35.423 -16.380 -21.390  0.00  0.00    -0.433 OA
ATOM     15  O   UNL     1      35.684 -18.593 -22.306  0.00  0.00    -0.435 OA
ATOM     16  C   UNL     1      34.265 -15.480 -23.343  0.00  0.00    +0.098 C 
ATOM     17  C   UNL     1      34.890 -16.489 -22.638  0.00  0.00    +0.190 C 
ATOM     18  C   UNL     1      35.040 -17.753 -23.162  0.00  0.00    +0.178 C 
ATOM     19  C   UNL     1      33.781 -15.785 -24.617  0.00  0.00    +0.074 C 
ATOM     20  C   UNL     1      34.571 -18.079 -24.418  0.00  0.00    +0.041 C 
ATOM     21  C   UNL     1      35.922 -17.717 -21.186  0.00  0.00    +0.429 C 
ATOM     22  C   UNL     1      33.933 -17.076 -25.152  0.00  0.00    +0.016 C 
ENDBRANCH   1  16
BRANCH   5  23
ATOM     23  O   UNL     1      32.959  -9.358 -23.751  0.00  0.00    -0.469 OA
ATOM     24  C   UNL     1      31.922  -9.161 -24.712  0.00  0.00    +0.253 C 
ENDBRANCH   5  23
BRANCH   4  25
ATOM     25  O   UNL     1      31.469  -8.509 -21.558  0.00  0.00    -0.476 OA
BRANCH  25  26
ATOM     26  C   UNL     1      31.742  -7.780 -20.369  0.00  0.00    +0.203 C 
BRANCH  26  27
ATOM     27  C   UNL     1      32.404  -6.461 -20.741  0.00  0.00    +0.025 C 
BRANCH  27  28
ATOM     28  C   UNL     1      31.964  -5.984 -22.121  0.00  0.00    -0.074 C 
BRANCH  28  29
ATOM     29  N   UNL     1      32.968  -6.339 -23.125  0.00  0.00    +0.387 N 
ATOM     30  C   UNL     1      34.264  -6.601 -22.486  0.00  0.00    -0.077 C 
ATOM     31  C   UNL     1      33.078  -5.281 -24.138  0.00  0.00    -0.077 C 
ATOM     32  C   UNL     1      35.313  -7.022 -23.517  0.00  0.00    -0.023 C 
ATOM     33  C   UNL     1      34.087  -5.660 -25.223  0.00  0.00    -0.023 C 
ATOM     34  C   UNL     1      35.451  -5.983 -24.624  0.00  0.00    -0.004 C 
ATOM     35  H   UNL     1      32.671  -7.195 -23.594  0.00  0.00    -0.080 HD
ENDBRANCH  28  29
ENDBRANCH  27  28
ENDBRANCH  26  27
ENDBRANCH  25  26
ENDBRANCH   4  25
TORSDOF 7
ENDMDL
MODEL 7
REMARK VINA RESULT:      -9.5      7.017     13.979
REMARK  Name = 5330197
REMARK  7 active torsions:
REMARK  status: ('A' for Active; 'I' for Inactive)
REMARK    1  A    between atoms: N_1  and  C_16
REMARK    2  A    between atoms: C_4  and  O_25
REMARK    3  A    between atoms: C_5  and  O_23
REMARK    4  A    between atoms: O_25  and  C_26
REMARK    5  A    between atoms: C_26  and  C_27
REMARK    6  A    between atoms: C_27  and  C_28
REMARK    7  A    between atoms: C_28  and  N_29
REMARK                            x       y       z     vdW  Elec       q    Type
REMARK                         _______ _______ _______ _____ _____    ______ ____
ROOT
ATOM      1  N   UNL     1      32.213 -10.165 -23.135  0.00  0.00    -0.295 N 
ATOM      2  N   UNL     1      32.440 -12.518 -19.737  0.00  0.00    -0.248 NA
ATOM      3  N   UNL     1      31.820 -10.463 -20.834  0.00  0.00    -0.230 NA
ATOM      4  C   UNL     1      33.951 -14.809 -22.162  0.00  0.00    +0.156 C 
ATOM      5  C   UNL     1      33.895 -14.055 -23.329  0.00  0.00    +0.169 C 
ATOM      6  C   UNL     1      33.459 -14.283 -20.964  0.00  0.00    +0.112 C 
ATOM      7  C   UNL     1      32.856 -12.254 -22.085  0.00  0.00    +0.048 C 
ATOM      8  C   UNL     1      32.907 -13.007 -20.900  0.00  0.00    +0.066 C 
ATOM      9  C   UNL     1      33.348 -12.775 -23.294  0.00  0.00    +0.044 C 
ATOM     10  C   UNL     1      32.298 -10.983 -21.981  0.00  0.00    +0.131 C 
ATOM     11  C   UNL     1      31.922 -11.272 -19.768  0.00  0.00    +0.252 C 
ATOM     12  H   UNL     1      32.114 -10.671 -23.974  0.00  0.00    +0.154 HD
ENDROOT
BRANCH   1  16
ATOM     13 CL   UNL     1      29.517  -8.778 -23.470  0.00  0.00    -0.081 Cl
ATOM     14  O   UNL     1      34.676  -8.656 -23.190  0.00  0.00    -0.433 OA
ATOM     15  O   UNL     1      34.784  -6.268 -23.496  0.00  0.00    -0.435 OA
ATOM     16  C   UNL     1      32.241  -8.773 -23.314  0.00  0.00    +0.098 C 
ATOM     17  C   UNL     1      33.444  -8.097 -23.334  0.00  0.00    +0.190 C 
ATOM     18  C   UNL     1      33.505  -6.733 -23.509  0.00  0.00    +0.178 C 
ATOM     19  C   UNL     1      31.074  -8.024 -23.479  0.00  0.00    +0.074 C 
ATOM     20  C   UNL     1      32.367  -5.970 -23.674  0.00  0.00    +0.041 C 
ATOM     21  C   UNL     1      35.520  -7.491 -23.295  0.00  0.00    +0.429 C 
ATOM     22  C   UNL     1      31.136  -6.631 -23.658  0.00  0.00    +0.016 C 
ENDBRANCH   1  16
BRANCH   5  23
ATOM     23  O   UNL     1      34.368 -14.554 -24.503  0.00  0.00    -0.469 OA
ATOM     24  C   UNL     1      33.403 -14.958 -25.473  0.00  0.00    +0.253 C 
ENDBRANCH   5  23
BRANCH   4  25
ATOM     25  O   UNL     1      34.484 -16.071 -22.174  0.00  0.00    -0.476 OA
BRANCH  25  26
ATOM     26  C   UNL     1      34.977 -16.571 -20.937  0.00  0.00    +0.203 C 
BRANCH  26  27
ATOM     27  C   UNL     1      35.772 -17.842 -21.202  0.00  0.00    +0.025 C 
BRANCH  27  28
ATOM     28  C   UNL     1      34.927 -18.892 -21.915  0.00  0.00    -0.074 C 
BRANCH  28  29
ATOM     29  N   UNL     1      34.838 -20.108 -21.107  0.00  0.00    +0.387 N 
ATOM     30  C   UNL     1      33.582 -20.130 -20.346  0.00  0.00    -0.077 C 
ATOM     31  C   UNL     1      36.002 -20.220 -20.217  0.00  0.00    -0.077 C 
ATOM     32  C   UNL     1      33.451 -21.419 -19.534  0.00  0.00    -0.023 C 
ATOM     33  C   UNL     1      35.950 -21.512 -19.401  0.00  0.00    -0.023 C 
ATOM     34  C   UNL     1      34.649 -21.619 -18.612  0.00  0.00    -0.004 C 
ATOM     35  H   UNL     1      34.841 -20.915 -21.731  0.00  0.00    -0.080 HD
ENDBRANCH  28  29
ENDBRANCH  27  28
ENDBRANCH  26  27
ENDBRANCH  25  26
ENDBRANCH   4  25
TORSDOF 7
ENDMDL
MODEL 8
REMARK VINA RESULT:      -9.4      5.144      8.912
REMARK  Name = 5330197
REMARK  7 active torsions:
REMARK  status: ('A' for Active; 'I' for Inactive)
REMARK    1  A    between atoms: N_1  and  C_16
REMARK    2  A    between atoms: C_4  and  O_25
REMARK    3  A    between atoms: C_5  and  O_23
REMARK    4  A    between atoms: O_25  and  C_26
REMARK    5  A    between atoms: C_26  and  C_27
REMARK    6  A    between atoms: C_27  and  C_28
REMARK    7  A    between atoms: C_28  and  N_29
REMARK                            x       y       z     vdW  Elec       q    Type
REMARK                         _______ _______ _______ _____ _____    ______ ____
ROOT
ATOM      1  N   UNL     1      34.656 -18.505 -20.928  0.00  0.00    -0.295 N 
ATOM      2  N   UNL     1      34.593 -17.184 -24.850  0.00  0.00    -0.248 NA
ATOM      3  N   UNL     1      34.692 -18.970 -23.235  0.00  0.00    -0.230 NA
ATOM      4  C   UNL     1      34.397 -13.961 -23.122  0.00  0.00    +0.156 C 
ATOM      5  C   UNL     1      34.416 -14.359 -21.791  0.00  0.00    +0.169 C 
ATOM      6  C   UNL     1      34.457 -14.918 -24.140  0.00  0.00    +0.112 C 
ATOM      7  C   UNL     1      34.554 -16.669 -22.508  0.00  0.00    +0.048 C 
ATOM      8  C   UNL     1      34.536 -16.279 -23.858  0.00  0.00    +0.066 C 
ATOM      9  C   UNL     1      34.494 -15.713 -21.479  0.00  0.00    +0.044 C 
ATOM     10  C   UNL     1      34.633 -18.037 -22.266  0.00  0.00    +0.131 C 
ATOM     11  C   UNL     1      34.669 -18.481 -24.485  0.00  0.00    +0.252 C 
ATOM     12  H   UNL     1      34.168 -17.929 -20.297  0.00  0.00    +0.154 HD
ENDROOT
BRANCH   1  16
ATOM     13 CL   UNL     1      37.686 -18.767 -21.168  0.00  0.00    -0.081 Cl
ATOM     14  O   UNL     1      33.100 -20.500 -19.532  0.00  0.00    -0.433 OA
ATOM     15  O   UNL     1      34.045 -22.456 -18.490  0.00  0.00    -0.435 OA
ATOM     16  C   UNL     1      35.239 -19.633 -20.330  0.00  0.00    +0.098 C 
ATOM     17  C   UNL     1      34.452 -20.559 -19.675  0.00  0.00    +0.190 C 
ATOM     18  C   UNL     1      34.992 -21.677 -19.080  0.00  0.00    +0.178 C 
ATOM     19  C   UNL     1      36.615 -19.867 -20.371  0.00  0.00    +0.074 C 
ATOM     20  C   UNL     1      36.348 -21.930 -19.106  0.00  0.00    +0.041 C 
ATOM     21  C   UNL     1      32.849 -21.706 -18.782  0.00  0.00    +0.429 C 
ATOM     22  C   UNL     1      37.167 -21.008 -19.763  0.00  0.00    +0.016 C 
ENDBRANCH   1  16
BRANCH   5  23
ATOM     23  O   UNL     1      34.356 -13.439 -20.789  0.00  0.00    -0.469 OA
ATOM     24  C   UNL     1      33.080 -13.207 -20.195  0.00  0.00    +0.253 C 
ENDBRANCH   5  23
BRANCH   4  25
ATOM     25  O   UNL     1      34.320 -12.633 -23.452  0.00  0.00    -0.476 OA
BRANCH  25  26
ATOM     26  C   UNL     1      33.032 -12.127 -23.780  0.00  0.00    +0.203 C 
BRANCH  26  27
ATOM     27  C   UNL     1      32.935 -10.684 -23.307  0.00  0.00    +0.025 C 
BRANCH  27  28
ATOM     28  C   UNL     1      31.687 -10.456 -22.460  0.00  0.00    -0.074 C 
BRANCH  28  29
ATOM     29  N   UNL     1      31.802  -9.204 -21.712  0.00  0.00    +0.387 N 
ATOM     30  C   UNL     1      32.962  -8.432 -22.177  0.00  0.00    -0.077 C 
ATOM     31  C   UNL     1      31.886  -9.472 -20.270  0.00  0.00    -0.077 C 
ATOM     32  C   UNL     1      33.068  -7.096 -21.440  0.00  0.00    -0.023 C 
ATOM     33  C   UNL     1      31.957  -8.170 -19.470  0.00  0.00    -0.023 C 
ATOM     34  C   UNL     1      33.120  -7.299 -19.930  0.00  0.00    -0.004 C 
ATOM     35  H   UNL     1      30.966  -8.645 -21.880  0.00  0.00    -0.080 HD
ENDBRANCH  28  29
ENDBRANCH  27  28
ENDBRANCH  26  27
ENDBRANCH  25  26
ENDBRANCH   4  25
TORSDOF 7
ENDMDL
MODEL 9
REMARK VINA RESULT:      -9.2      8.408     13.178
REMARK  Name = 5330197
REMARK  7 active torsions:
REMARK  status: ('A' for Active; 'I' for Inactive)
REMARK    1  A    between atoms: N_1  and  C_16
REMARK    2  A    between atoms: C_4  and  O_25
REMARK    3  A    between atoms: C_5  and  O_23
REMARK    4  A    between atoms: O_25  and  C_26
REMARK    5  A    between atoms: C_26  and  C_27
REMARK    6  A    between atoms: C_27  and  C_28
REMARK    7  A    between atoms: C_28  and  N_29
REMARK                            x       y       z     vdW  Elec       q    Type
REMARK                         _______ _______ _______ _____ _____    ______ ____
ROOT
ATOM      1  N   UNL     1      34.139 -13.977 -22.825  0.00  0.00    -0.295 N 
ATOM      2  N   UNL     1      31.589 -12.405 -19.970  0.00  0.00    -0.248 NA
ATOM      3  N   UNL     1      32.810 -14.260 -20.904  0.00  0.00    -0.230 NA
ATOM      4  C   UNL     1      32.190  -9.395 -21.969  0.00  0.00    +0.156 C 
ATOM      5  C   UNL     1      33.049  -9.880 -22.948  0.00  0.00    +0.169 C 
ATOM      6  C   UNL     1      31.707 -10.251 -20.975  0.00  0.00    +0.112 C 
ATOM      7  C   UNL     1      32.933 -12.074 -21.929  0.00  0.00    +0.048 C 
ATOM      8  C   UNL     1      32.064 -11.596 -20.934  0.00  0.00    +0.066 C 
ATOM      9  C   UNL     1      33.423 -11.221 -22.932  0.00  0.00    +0.044 C 
ATOM     10  C   UNL     1      33.267 -13.423 -21.855  0.00  0.00    +0.131 C 
ATOM     11  C   UNL     1      31.987 -13.693 -20.008  0.00  0.00    +0.252 C 
ATOM     12  H   UNL     1      34.793 -13.335 -23.184  0.00  0.00    +0.154 HD
ENDROOT
BRANCH   1  16
ATOM     13 CL   UNL     1      33.011 -14.374 -25.631  0.00  0.00    -0.081 Cl
ATOM     14  O   UNL     1      35.371 -16.167 -21.397  0.00  0.00    -0.433 OA
ATOM     15  O   UNL     1      35.589 -18.397 -22.284  0.00  0.00    -0.435 OA
ATOM     16  C   UNL     1      34.253 -15.265 -23.372  0.00  0.00    +0.098 C 
ATOM     17  C   UNL     1      34.848 -16.279 -22.649  0.00  0.00    +0.190 C 
ATOM     18  C   UNL     1      34.973 -17.553 -23.156  0.00  0.00    +0.178 C 
ATOM     19  C   UNL     1      33.774 -15.574 -24.647  0.00  0.00    +0.074 C 
ATOM     20  C   UNL     1      34.509 -17.883 -24.412  0.00  0.00    +0.041 C 
ATOM     21  C   UNL     1      35.837 -17.513 -21.172  0.00  0.00    +0.429 C 
ATOM     22  C   UNL     1      33.901 -16.875 -25.165  0.00  0.00    +0.016 C 
ENDBRANCH   1  16
BRANCH   5  23
ATOM     23  O   UNL     1      33.529  -9.058 -23.922  0.00  0.00    -0.469 OA
ATOM     24  C   UNL     1      34.739  -8.355 -23.640  0.00  0.00    +0.253 C 
ENDBRANCH   5  23
BRANCH   4  25
ATOM     25  O   UNL     1      31.809  -8.079 -21.965  0.00  0.00    -0.476 OA
BRANCH  25  26
ATOM     26  C   UNL     1      32.192  -7.303 -20.838  0.00  0.00    +0.203 C 
BRANCH  26  27
ATOM     27  C   UNL     1      31.662  -5.887 -21.012  0.00  0.00    +0.025 C 
BRANCH  27  28
ATOM     28  C   UNL     1      30.555  -5.828 -22.060  0.00  0.00    -0.074 C 
BRANCH  28  29
ATOM     29  N   UNL     1      30.584  -4.543 -22.758  0.00  0.00    +0.387 N 
ATOM     30  C   UNL     1      30.795  -4.745 -24.198  0.00  0.00    -0.077 C 
ATOM     31  C   UNL     1      31.618  -3.670 -22.187  0.00  0.00    -0.077 C 
ATOM     32  C   UNL     1      30.777  -3.413 -24.951  0.00  0.00    -0.023 C 
ATOM     33  C   UNL     1      31.627  -2.303 -22.873  0.00  0.00    -0.023 C 
ATOM     34  C   UNL     1      31.804  -2.441 -24.381  0.00  0.00    -0.004 C 
ATOM     35  H   UNL     1      29.681  -4.085 -22.635  0.00  0.00    -0.080 HD
ENDBRANCH  28  29
ENDBRANCH  27  28
ENDBRANCH  26  27
ENDBRANCH  25  26
ENDBRANCH   4  25
TORSDOF 7
ENDMDL
