MODEL 1
REMARK VINA RESULT:     -11.8      0.000      0.000
REMARK  Name = 16040289
REMARK  6 active torsions:
REMARK  status: ('A' for Active; 'I' for Inactive)
REMARK    1  A    between atoms: N_2  and  C_20
REMARK    2  A    between atoms: C_3  and  C_6
REMARK    3  A    between atoms: N_11  and  C_13
REMARK    4  A    between atoms: C_13  and  C_15
REMARK    5  A    between atoms: C_23  and  O_26
REMARK    6  A    between atoms: O_26  and  C_27
REMARK                            x       y       z     vdW  Elec       q    Type
REMARK                         _______ _______ _______ _____ _____    ______ ____
ROOT
ATOM      1  O   UNL     1      34.164 -23.830 -17.136  0.00  0.00    -0.270 OA
ATOM      2  N   UNL     1      32.809 -21.995 -17.704  0.00  0.00    -0.280 N 
ATOM      3  C   UNL     1      33.172 -23.129 -16.967  0.00  0.00    +0.252 C 
ATOM      4  H   UNL     1      31.974 -21.551 -17.428  0.00  0.00    +0.155 HD
ENDROOT
BRANCH   3   6
ATOM      5  N   UNL     1      31.825 -24.200 -13.631  0.00  0.00    -0.229 NA
ATOM      6  C   UNL     1      32.227 -23.519 -15.888  0.00  0.00    +0.085 C 
ATOM      7  C   UNL     1      32.662 -23.841 -14.630  0.00  0.00    +0.133 C 
ATOM      8  C   UNL     1      30.883 -23.552 -16.181  0.00  0.00    +0.009 C 
ATOM      9  C   UNL     1      29.989 -23.917 -15.180  0.00  0.00    +0.021 C 
ATOM     10  C   UNL     1      30.507 -24.229 -13.932  0.00  0.00    +0.100 C 
ATOM     11  N   UNL     1      34.050 -23.801 -14.345  0.00  0.00    -0.314 N 
ATOM     12  H   UNL     1      34.672 -23.540 -15.063  0.00  0.00    +0.149 HD
BRANCH  11  13
ATOM     13  C   UNL     1      34.582 -24.122 -13.061  0.00  0.00    +0.115 C 
BRANCH  13  15
ATOM     14  N   UNL     1      38.009 -26.666 -13.448  0.00  0.00    -0.242 NA
ATOM     15  C   UNL     1      35.784 -25.015 -13.198  0.00  0.00    +0.000 C 
ATOM     16  C   UNL     1      36.083 -25.580 -14.425  0.00  0.00    +0.018 C 
ATOM     17  C   UNL     1      36.580 -25.264 -12.092  0.00  0.00    +0.018 C 
ATOM     18  C   UNL     1      37.201 -26.394 -14.498  0.00  0.00    +0.099 C 
ATOM     19  C   UNL     1      37.677 -26.092 -12.270  0.00  0.00    +0.099 C 
ENDBRANCH  13  15
ENDBRANCH  11  13
ENDBRANCH   3   6
BRANCH   2  20
ATOM     20  C   UNL     1      33.483 -21.416 -18.779  0.00  0.00    +0.051 C 
ATOM     21  C   UNL     1      34.865 -21.566 -18.898  0.00  0.00    +0.018 C 
ATOM     22  C   UNL     1      32.774 -20.687 -19.734  0.00  0.00    +0.018 C 
ATOM     23  C   UNL     1      34.830 -20.258 -20.930  0.00  0.00    +0.145 C 
ATOM     24  C   UNL     1      35.538 -20.986 -19.975  0.00  0.00    +0.039 C 
ATOM     25  C   UNL     1      33.449 -20.108 -20.810  0.00  0.00    +0.039 C 
BRANCH  23  26
ATOM     26  O   UNL     1      35.487 -19.691 -21.978  0.00  0.00    -0.453 OA
BRANCH  26  27
ATOM     27  C   UNL     1      35.274 -18.345 -22.220  0.00  0.00    +0.145 C 
ATOM     28  C   UNL     1      35.340 -17.452 -21.165  0.00  0.00    +0.037 C 
ATOM     29  C   UNL     1      34.999 -17.927 -23.510  0.00  0.00    +0.037 C 
ATOM     30  C   UNL     1      35.124 -16.095 -21.409  0.00  0.00    +0.003 C 
ATOM     31  C   UNL     1      34.783 -16.571 -23.754  0.00  0.00    +0.003 C 
ATOM     32  C   UNL     1      34.845 -15.655 -22.703  0.00  0.00    +0.000 C 
ENDBRANCH  26  27
ENDBRANCH  23  26
ENDBRANCH   2  20
TORSDOF 6
ENDMDL
MODEL 2
REMARK VINA RESULT:     -11.2      7.097     13.522
REMARK  Name = 16040289
REMARK  6 active torsions:
REMARK  status: ('A' for Active; 'I' for Inactive)
REMARK    1  A    between atoms: N_2  and  C_20
REMARK    2  A    between atoms: C_3  and  C_6
REMARK    3  A    between atoms: N_11  and  C_13
REMARK    4  A    between atoms: C_13  and  C_15
REMARK    5  A    between atoms: C_23  and  O_26
REMARK    6  A    between atoms: O_26  and  C_27
REMARK                            x       y       z     vdW  Elec       q    Type
REMARK                         _______ _______ _______ _____ _____    ______ ____
ROOT
ATOM      1  O   UNL     1      31.558 -12.743 -21.975  0.00  0.00    -0.270 OA
ATOM      2  N   UNL     1      33.539 -12.896 -20.720  0.00  0.00    -0.280 N 
ATOM      3  C   UNL     1      32.344 -12.302 -21.143  0.00  0.00    +0.252 C 
ATOM      4  H   UNL     1      34.050 -12.399 -20.040  0.00  0.00    +0.155 HD
ENDROOT
BRANCH   3   6
ATOM      5  N   UNL     1      31.558  -8.653 -20.747  0.00  0.00    -0.229 NA
ATOM      6  C   UNL     1      32.030 -10.987 -20.525  0.00  0.00    +0.085 C 
ATOM      7  C   UNL     1      31.843  -9.861 -21.283  0.00  0.00    +0.133 C 
ATOM      8  C   UNL     1      31.931 -10.920 -19.154  0.00  0.00    +0.009 C 
ATOM      9  C   UNL     1      31.639  -9.694 -18.565  0.00  0.00    +0.021 C 
ATOM     10  C   UNL     1      31.463  -8.601 -19.399  0.00  0.00    +0.100 C 
ATOM     11  N   UNL     1      31.948  -9.950 -22.693  0.00  0.00    -0.314 N 
ATOM     12  H   UNL     1      32.154 -10.823 -23.098  0.00  0.00    +0.149 HD
BRANCH  11  13
ATOM     13  C   UNL     1      31.767  -8.824 -23.550  0.00  0.00    +0.115 C 
BRANCH  13  15
ATOM     14  N   UNL     1      35.389  -6.548 -23.818  0.00  0.00    -0.242 NA
ATOM     15  C   UNL     1      33.038  -8.024 -23.645  0.00  0.00    +0.000 C 
ATOM     16  C   UNL     1      32.994  -6.717 -24.095  0.00  0.00    +0.018 C 
ATOM     17  C   UNL     1      34.240  -8.606 -23.280  0.00  0.00    +0.018 C 
ATOM     18  C   UNL     1      34.191  -6.024 -24.163  0.00  0.00    +0.099 C 
ATOM     19  C   UNL     1      35.383  -7.828 -23.384  0.00  0.00    +0.099 C 
ENDBRANCH  13  15
ENDBRANCH  11  13
ENDBRANCH   3   6
BRANCH   2  20
ATOM     20  C   UNL     1      34.096 -14.103 -21.141  0.00  0.00    +0.051 C 
ATOM     21  C   UNL     1      34.338 -14.325 -22.497  0.00  0.00    +0.018 C 
ATOM     22  C   UNL     1      34.409 -15.090 -20.205  0.00  0.00    +0.018 C 
ATOM     23  C   UNL     1      35.208 -16.520 -21.983  0.00  0.00    +0.145 C 
ATOM     24  C   UNL     1      34.895 -15.534 -22.917  0.00  0.00    +0.039 C 
ATOM     25  C   UNL     1      34.966 -16.298 -20.627  0.00  0.00    +0.039 C 
BRANCH  23  26
ATOM     26  O   UNL     1      35.749 -17.699 -22.393  0.00  0.00    -0.453 OA
BRANCH  26  27
ATOM     27  C   UNL     1      35.780 -18.744 -21.485  0.00  0.00    +0.145 C 
ATOM     28  C   UNL     1      34.633 -19.490 -21.276  0.00  0.00    +0.037 C 
ATOM     29  C   UNL     1      36.956 -19.015 -20.809  0.00  0.00    +0.037 C 
ATOM     30  C   UNL     1      34.665 -20.542 -20.361  0.00  0.00    +0.003 C 
ATOM     31  C   UNL     1      36.988 -20.067 -19.893  0.00  0.00    +0.003 C 
ATOM     32  C   UNL     1      35.842 -20.830 -19.670  0.00  0.00    +0.000 C 
ENDBRANCH  26  27
ENDBRANCH  23  26
ENDBRANCH   2  20
TORSDOF 6
ENDMDL
MODEL 3
REMARK VINA RESULT:     -11.1      1.744      4.823
REMARK  Name = 16040289
REMARK  6 active torsions:
REMARK  status: ('A' for Active; 'I' for Inactive)
REMARK    1  A    between atoms: N_2  and  C_20
REMARK    2  A    between atoms: C_3  and  C_6
REMARK    3  A    between atoms: N_11  and  C_13
REMARK    4  A    between atoms: C_13  and  C_15
REMARK    5  A    between atoms: C_23  and  O_26
REMARK    6  A    between atoms: O_26  and  C_27
REMARK                            x       y       z     vdW  Elec       q    Type
REMARK                         _______ _______ _______ _____ _____    ______ ____
ROOT
ATOM      1  O   UNL     1      32.925 -23.073 -17.751  0.00  0.00    -0.270 OA
ATOM      2  N   UNL     1      35.025 -22.040 -17.528  0.00  0.00    -0.280 N 
ATOM      3  C   UNL     1      33.957 -22.853 -17.126  0.00  0.00    +0.252 C 
ATOM      4  H   UNL     1      35.778 -21.976 -16.897  0.00  0.00    +0.155 HD
ENDROOT
BRANCH   3   6
ATOM      5  N   UNL     1      33.190 -24.026 -13.644  0.00  0.00    -0.229 NA
ATOM      6  C   UNL     1      34.101 -23.481 -15.787  0.00  0.00    +0.085 C 
ATOM      7  C   UNL     1      33.084 -23.464 -14.869  0.00  0.00    +0.133 C 
ATOM      8  C   UNL     1      35.296 -24.091 -15.480  0.00  0.00    +0.009 C 
ATOM      9  C   UNL     1      35.443 -24.681 -14.229  0.00  0.00    +0.021 C 
ATOM     10  C   UNL     1      34.368 -24.621 -13.355  0.00  0.00    +0.100 C 
ATOM     11  N   UNL     1      31.860 -22.832 -15.203  0.00  0.00    -0.314 N 
ATOM     12  H   UNL     1      31.769 -22.419 -16.092  0.00  0.00    +0.149 HD
BRANCH  11  13
ATOM     13  C   UNL     1      30.755 -22.772 -14.303  0.00  0.00    +0.115 C 
BRANCH  13  15
ATOM     14  N   UNL     1      27.053 -22.962 -16.454  0.00  0.00    -0.242 NA
ATOM     15  C   UNL     1      29.456 -22.839 -15.059  0.00  0.00    +0.000 C 
ATOM     16  C   UNL     1      29.406 -23.487 -16.280  0.00  0.00    +0.018 C 
ATOM     17  C   UNL     1      28.323 -22.250 -14.524  0.00  0.00    +0.018 C 
ATOM     18  C   UNL     1      28.187 -23.521 -16.935  0.00  0.00    +0.099 C 
ATOM     19  C   UNL     1      27.151 -22.341 -15.258  0.00  0.00    +0.099 C 
ENDBRANCH  13  15
ENDBRANCH  11  13
ENDBRANCH   3   6
BRANCH   2  20
ATOM     20  C   UNL     1      35.153 -21.312 -18.710  0.00  0.00    +0.051 C 
ATOM     21  C   UNL     1      36.412 -20.884 -19.133  0.00  0.00    +0.018 C 
ATOM     22  C   UNL     1      34.022 -21.010 -19.469  0.00  0.00    +0.018 C 
ATOM     23  C   UNL     1      35.409 -19.853 -21.075  0.00  0.00    +0.145 C 
ATOM     24  C   UNL     1      36.539 -20.155 -20.316  0.00  0.00    +0.039 C 
ATOM     25  C   UNL     1      34.150 -20.281 -20.652  0.00  0.00    +0.039 C 
BRANCH  23  26
ATOM     26  O   UNL     1      35.533 -19.141 -22.227  0.00  0.00    -0.453 OA
BRANCH  26  27
ATOM     27  C   UNL     1      35.247 -17.787 -22.182  0.00  0.00    +0.145 C 
ATOM     28  C   UNL     1      35.009 -17.108 -23.364  0.00  0.00    +0.037 C 
ATOM     29  C   UNL     1      35.206 -17.147 -20.956  0.00  0.00    +0.037 C 
ATOM     30  C   UNL     1      34.722 -15.744 -23.318  0.00  0.00    +0.003 C 
ATOM     31  C   UNL     1      34.918 -15.783 -20.910  0.00  0.00    +0.003 C 
ATOM     32  C   UNL     1      34.677 -15.082 -22.091  0.00  0.00    +0.000 C 
ENDBRANCH  26  27
ENDBRANCH  23  26
ENDBRANCH   2  20
TORSDOF 6
ENDMDL
MODEL 4
REMARK VINA RESULT:     -10.5      1.583      2.309
REMARK  Name = 16040289
REMARK  6 active torsions:
REMARK  status: ('A' for Active; 'I' for Inactive)
REMARK    1  A    between atoms: N_2  and  C_20
REMARK    2  A    between atoms: C_3  and  C_6
REMARK    3  A    between atoms: N_11  and  C_13
REMARK    4  A    between atoms: C_13  and  C_15
REMARK    5  A    between atoms: C_23  and  O_26
REMARK    6  A    between atoms: O_26  and  C_27
REMARK                            x       y       z     vdW  Elec       q    Type
REMARK                         _______ _______ _______ _____ _____    ______ ____
ROOT
ATOM      1  O   UNL     1      31.046 -21.817 -16.970  0.00  0.00    -0.270 OA
ATOM      2  N   UNL     1      33.000 -23.124 -16.991  0.00  0.00    -0.280 N 
ATOM      3  C   UNL     1      31.686 -22.804 -16.625  0.00  0.00    +0.252 C 
ATOM      4  H   UNL     1      33.359 -23.962 -16.619  0.00  0.00    +0.155 HD
ENDROOT
BRANCH   3   6
ATOM      5  N   UNL     1      31.094 -25.117 -13.730  0.00  0.00    -0.229 NA
ATOM      6  C   UNL     1      31.029 -23.765 -15.701  0.00  0.00    +0.085 C 
ATOM      7  C   UNL     1      31.667 -24.242 -14.586  0.00  0.00    +0.133 C 
ATOM      8  C   UNL     1      29.748 -24.174 -15.990  0.00  0.00    +0.009 C 
ATOM      9  C   UNL     1      29.124 -25.074 -15.132  0.00  0.00    +0.021 C 
ATOM     10  C   UNL     1      29.835 -25.512 -14.025  0.00  0.00    +0.100 C 
ATOM     11  N   UNL     1      32.986 -23.809 -14.303  0.00  0.00    -0.314 N 
ATOM     12  H   UNL     1      33.416 -23.171 -14.918  0.00  0.00    +0.149 HD
BRANCH  11  13
ATOM     13  C   UNL     1      33.716 -24.260 -13.164  0.00  0.00    +0.115 C 
BRANCH  13  15
ATOM     14  N   UNL     1      37.919 -23.646 -13.736  0.00  0.00    -0.242 NA
ATOM     15  C   UNL     1      35.191 -24.044 -13.364  0.00  0.00    +0.000 C 
ATOM     16  C   UNL     1      35.948 -23.494 -12.345  0.00  0.00    +0.018 C 
ATOM     17  C   UNL     1      35.777 -24.398 -14.567  0.00  0.00    +0.018 C 
ATOM     18  C   UNL     1      37.301 -23.316 -12.579  0.00  0.00    +0.099 C 
ATOM     19  C   UNL     1      37.139 -24.181 -14.702  0.00  0.00    +0.099 C 
ENDBRANCH  13  15
ENDBRANCH  11  13
ENDBRANCH   3   6
BRANCH   2  20
ATOM     20  C   UNL     1      33.862 -22.402 -17.817  0.00  0.00    +0.051 C 
ATOM     21  C   UNL     1      33.355 -21.697 -18.908  0.00  0.00    +0.018 C 
ATOM     22  C   UNL     1      35.231 -22.387 -17.551  0.00  0.00    +0.018 C 
ATOM     23  C   UNL     1      35.587 -20.960 -19.468  0.00  0.00    +0.145 C 
ATOM     24  C   UNL     1      34.218 -20.975 -19.734  0.00  0.00    +0.039 C 
ATOM     25  C   UNL     1      36.094 -21.665 -18.377  0.00  0.00    +0.039 C 
BRANCH  23  26
ATOM     26  O   UNL     1      36.429 -20.258 -20.275  0.00  0.00    -0.453 OA
BRANCH  26  27
ATOM     27  C   UNL     1      35.865 -19.396 -21.199  0.00  0.00    +0.145 C 
ATOM     28  C   UNL     1      35.207 -19.921 -22.297  0.00  0.00    +0.037 C 
ATOM     29  C   UNL     1      35.975 -18.031 -21.003  0.00  0.00    +0.037 C 
ATOM     30  C   UNL     1      34.640 -19.052 -23.229  0.00  0.00    +0.003 C 
ATOM     31  C   UNL     1      35.408 -17.162 -21.935  0.00  0.00    +0.003 C 
ATOM     32  C   UNL     1      34.741 -17.673 -23.048  0.00  0.00    +0.000 C 
ENDBRANCH  26  27
ENDBRANCH  23  26
ENDBRANCH   2  20
TORSDOF 6
ENDMDL
MODEL 5
REMARK VINA RESULT:     -10.5      1.915      4.572
REMARK  Name = 16040289
REMARK  6 active torsions:
REMARK  status: ('A' for Active; 'I' for Inactive)
REMARK    1  A    between atoms: N_2  and  C_20
REMARK    2  A    between atoms: C_3  and  C_6
REMARK    3  A    between atoms: N_11  and  C_13
REMARK    4  A    between atoms: C_13  and  C_15
REMARK    5  A    between atoms: C_23  and  O_26
REMARK    6  A    between atoms: O_26  and  C_27
REMARK                            x       y       z     vdW  Elec       q    Type
REMARK                         _______ _______ _______ _____ _____    ______ ____
ROOT
ATOM      1  O   UNL     1      35.361 -24.737 -15.868  0.00  0.00    -0.270 OA
ATOM      2  N   UNL     1      35.514 -22.391 -15.866  0.00  0.00    -0.280 N 
ATOM      3  C   UNL     1      35.472 -23.664 -15.284  0.00  0.00    +0.252 C 
ATOM      4  H   UNL     1      35.607 -21.634 -15.242  0.00  0.00    +0.155 HD
ENDROOT
BRANCH   3   6
ATOM      5  N   UNL     1      34.505 -24.072 -11.680  0.00  0.00    -0.229 NA
ATOM      6  C   UNL     1      35.545 -23.689 -13.799  0.00  0.00    +0.085 C 
ATOM      7  C   UNL     1      34.467 -24.041 -13.031  0.00  0.00    +0.133 C 
ATOM      8  C   UNL     1      36.735 -23.347 -13.200  0.00  0.00    +0.009 C 
ATOM      9  C   UNL     1      36.814 -23.366 -11.812  0.00  0.00    +0.021 C 
ATOM     10  C   UNL     1      35.680 -23.733 -11.104  0.00  0.00    +0.100 C 
ATOM     11  N   UNL     1      33.249 -24.392 -13.665  0.00  0.00    -0.314 N 
ATOM     12  H   UNL     1      33.206 -24.376 -14.649  0.00  0.00    +0.149 HD
BRANCH  11  13
ATOM     13  C   UNL     1      32.083 -24.769 -12.936  0.00  0.00    +0.115 C 
BRANCH  13  15
ATOM     14  N   UNL     1      28.545 -23.734 -15.122  0.00  0.00    -0.242 NA
ATOM     15  C   UNL     1      30.841 -24.407 -13.703  0.00  0.00    +0.000 C 
ATOM     16  C   UNL     1      29.953 -25.399 -14.079  0.00  0.00    +0.018 C 
ATOM     17  C   UNL     1      30.599 -23.082 -14.026  0.00  0.00    +0.018 C 
ATOM     18  C   UNL     1      28.825 -25.013 -14.784  0.00  0.00    +0.099 C 
ATOM     19  C   UNL     1      29.441 -22.799 -14.733  0.00  0.00    +0.099 C 
ENDBRANCH  13  15
ENDBRANCH  11  13
ENDBRANCH   3   6
BRANCH   2  20
ATOM     20  C   UNL     1      35.441 -22.062 -17.219  0.00  0.00    +0.051 C 
ATOM     21  C   UNL     1      34.242 -22.224 -17.913  0.00  0.00    +0.018 C 
ATOM     22  C   UNL     1      36.568 -21.571 -17.879  0.00  0.00    +0.018 C 
ATOM     23  C   UNL     1      35.295 -21.404 -19.927  0.00  0.00    +0.145 C 
ATOM     24  C   UNL     1      34.169 -21.894 -19.267  0.00  0.00    +0.039 C 
ATOM     25  C   UNL     1      36.494 -21.241 -19.233  0.00  0.00    +0.039 C 
BRANCH  23  26
ATOM     26  O   UNL     1      35.225 -21.084 -21.248  0.00  0.00    -0.453 OA
BRANCH  26  27
ATOM     27  C   UNL     1      35.230 -19.742 -21.587  0.00  0.00    +0.145 C 
ATOM     28  C   UNL     1      35.509 -18.802 -20.611  0.00  0.00    +0.037 C 
ATOM     29  C   UNL     1      34.955 -19.376 -22.892  0.00  0.00    +0.037 C 
ATOM     30  C   UNL     1      35.512 -17.449 -20.953  0.00  0.00    +0.003 C 
ATOM     31  C   UNL     1      34.958 -18.023 -23.234  0.00  0.00    +0.003 C 
ATOM     32  C   UNL     1      35.237 -17.060 -22.264  0.00  0.00    +0.000 C 
ENDBRANCH  26  27
ENDBRANCH  23  26
ENDBRANCH   2  20
TORSDOF 6
ENDMDL
MODEL 6
REMARK VINA RESULT:     -10.2      3.647     10.620
REMARK  Name = 16040289
REMARK  6 active torsions:
REMARK  status: ('A' for Active; 'I' for Inactive)
REMARK    1  A    between atoms: N_2  and  C_20
REMARK    2  A    between atoms: C_3  and  C_6
REMARK    3  A    between atoms: N_11  and  C_13
REMARK    4  A    between atoms: C_13  and  C_15
REMARK    5  A    between atoms: C_23  and  O_26
REMARK    6  A    between atoms: O_26  and  C_27
REMARK                            x       y       z     vdW  Elec       q    Type
REMARK                         _______ _______ _______ _____ _____    ______ ____
ROOT
ATOM      1  O   UNL     1      36.137 -18.331 -20.574  0.00  0.00    -0.270 OA
ATOM      2  N   UNL     1      34.323 -19.742 -21.068  0.00  0.00    -0.280 N 
ATOM      3  C   UNL     1      35.195 -18.668 -21.284  0.00  0.00    +0.252 C 
ATOM      4  H   UNL     1      33.617 -19.867 -21.744  0.00  0.00    +0.155 HD
ENDROOT
BRANCH   3   6
ATOM      5  N   UNL     1      34.688 -15.712 -23.540  0.00  0.00    -0.229 NA
ATOM      6  C   UNL     1      34.913 -17.849 -22.492  0.00  0.00    +0.085 C 
ATOM      7  C   UNL     1      34.942 -16.480 -22.457  0.00  0.00    +0.133 C 
ATOM      8  C   UNL     1      34.616 -18.503 -23.666  0.00  0.00    +0.009 C 
ATOM      9  C   UNL     1      34.349 -17.746 -24.802  0.00  0.00    +0.021 C 
ATOM     10  C   UNL     1      34.398 -16.366 -24.687  0.00  0.00    +0.100 C 
ATOM     11  N   UNL     1      35.251 -15.824 -21.239  0.00  0.00    -0.314 N 
ATOM     12  H   UNL     1      35.439 -16.371 -20.442  0.00  0.00    +0.149 HD
BRANCH  11  13
ATOM     13  C   UNL     1      35.301 -14.403 -21.122  0.00  0.00    +0.115 C 
BRANCH  13  15
ATOM     14  N   UNL     1      31.342 -12.764 -21.027  0.00  0.00    -0.242 NA
ATOM     15  C   UNL     1      33.911 -13.829 -21.088  0.00  0.00    +0.000 C 
ATOM     16  C   UNL     1      33.051 -14.175 -20.061  0.00  0.00    +0.018 C 
ATOM     17  C   UNL     1      33.506 -12.958 -22.086  0.00  0.00    +0.018 C 
ATOM     18  C   UNL     1      31.783 -13.618 -20.076  0.00  0.00    +0.099 C 
ATOM     19  C   UNL     1      32.217 -12.455 -22.009  0.00  0.00    +0.099 C 
ENDBRANCH  13  15
ENDBRANCH  11  13
ENDBRANCH   3   6
BRANCH   2  20
ATOM     20  C   UNL     1      34.329 -20.656 -20.015  0.00  0.00    +0.051 C 
ATOM     21  C   UNL     1      33.125 -21.093 -19.462  0.00  0.00    +0.018 C 
ATOM     22  C   UNL     1      35.541 -21.133 -19.513  0.00  0.00    +0.018 C 
ATOM     23  C   UNL     1      34.343 -22.485 -17.907  0.00  0.00    +0.145 C 
ATOM     24  C   UNL     1      33.132 -22.008 -18.409  0.00  0.00    +0.039 C 
ATOM     25  C   UNL     1      35.547 -22.048 -18.459  0.00  0.00    +0.039 C 
BRANCH  23  26
ATOM     26  O   UNL     1      34.350 -23.375 -16.878  0.00  0.00    -0.453 OA
BRANCH  26  27
ATOM     27  C   UNL     1      33.338 -23.281 -15.938  0.00  0.00    +0.145 C 
ATOM     28  C   UNL     1      32.025 -23.206 -16.367  0.00  0.00    +0.037 C 
ATOM     29  C   UNL     1      33.666 -23.265 -14.594  0.00  0.00    +0.037 C 
ATOM     30  C   UNL     1      31.005 -23.111 -15.420  0.00  0.00    +0.003 C 
ATOM     31  C   UNL     1      32.646 -23.169 -13.647  0.00  0.00    +0.003 C 
ATOM     32  C   UNL     1      31.316 -23.092 -14.061  0.00  0.00    +0.000 C 
ENDBRANCH  26  27
ENDBRANCH  23  26
ENDBRANCH   2  20
TORSDOF 6
ENDMDL
MODEL 7
REMARK VINA RESULT:     -10.0      0.957      1.823
REMARK  Name = 16040289
REMARK  6 active torsions:
REMARK  status: ('A' for Active; 'I' for Inactive)
REMARK    1  A    between atoms: N_2  and  C_20
REMARK    2  A    between atoms: C_3  and  C_6
REMARK    3  A    between atoms: N_11  and  C_13
REMARK    4  A    between atoms: C_13  and  C_15
REMARK    5  A    between atoms: C_23  and  O_26
REMARK    6  A    between atoms: O_26  and  C_27
REMARK                            x       y       z     vdW  Elec       q    Type
REMARK                         _______ _______ _______ _____ _____    ______ ____
ROOT
ATOM      1  O   UNL     1      33.637 -24.363 -18.056  0.00  0.00    -0.270 OA
ATOM      2  N   UNL     1      33.789 -22.127 -17.346  0.00  0.00    -0.280 N 
ATOM      3  C   UNL     1      33.436 -23.478 -17.232  0.00  0.00    +0.252 C 
ATOM      4  H   UNL     1      33.548 -21.553 -16.583  0.00  0.00    +0.155 HD
ENDROOT
BRANCH   3   6
ATOM      5  N   UNL     1      32.718 -24.174 -13.614  0.00  0.00    -0.229 NA
ATOM      6  C   UNL     1      32.719 -23.846 -15.983  0.00  0.00    +0.085 C 
ATOM      7  C   UNL     1      33.345 -23.842 -14.765  0.00  0.00    +0.133 C 
ATOM      8  C   UNL     1      31.392 -24.198 -16.074  0.00  0.00    +0.009 C 
ATOM      9  C   UNL     1      30.712 -24.546 -14.911  0.00  0.00    +0.021 C 
ATOM     10  C   UNL     1      31.415 -24.518 -13.717  0.00  0.00    +0.100 C 
ATOM     11  N   UNL     1      34.713 -23.476 -14.690  0.00  0.00    -0.314 N 
ATOM     12  H   UNL     1      35.182 -23.231 -15.520  0.00  0.00    +0.149 HD
BRANCH  11  13
ATOM     13  C   UNL     1      35.435 -23.448 -13.460  0.00  0.00    +0.115 C 
BRANCH  13  15
ATOM     14  N   UNL     1      38.263 -26.665 -13.311  0.00  0.00    -0.242 NA
ATOM     15  C   UNL     1      36.428 -24.577 -13.407  0.00  0.00    +0.000 C 
ATOM     16  C   UNL     1      36.587 -25.295 -12.235  0.00  0.00    +0.018 C 
ATOM     17  C   UNL     1      37.172 -24.886 -14.532  0.00  0.00    +0.018 C 
ATOM     18  C   UNL     1      37.513 -26.324 -12.238  0.00  0.00    +0.099 C 
ATOM     19  C   UNL     1      38.072 -25.936 -14.432  0.00  0.00    +0.099 C 
ENDBRANCH  13  15
ENDBRANCH  11  13
ENDBRANCH   3   6
BRANCH   2  20
ATOM     20  C   UNL     1      34.439 -21.496 -18.406  0.00  0.00    +0.051 C 
ATOM     21  C   UNL     1      33.696 -20.893 -19.421  0.00  0.00    +0.018 C 
ATOM     22  C   UNL     1      35.833 -21.468 -18.450  0.00  0.00    +0.018 C 
ATOM     23  C   UNL     1      35.742 -20.233 -20.526  0.00  0.00    +0.145 C 
ATOM     24  C   UNL     1      34.348 -20.261 -20.481  0.00  0.00    +0.039 C 
ATOM     25  C   UNL     1      36.484 -20.835 -19.510  0.00  0.00    +0.039 C 
BRANCH  23  26
ATOM     26  O   UNL     1      36.377 -19.618 -21.560  0.00  0.00    -0.453 OA
BRANCH  26  27
ATOM     27  C   UNL     1      35.597 -18.955 -22.492  0.00  0.00    +0.145 C 
ATOM     28  C   UNL     1      34.838 -19.694 -23.383  0.00  0.00    +0.037 C 
ATOM     29  C   UNL     1      35.597 -17.572 -22.510  0.00  0.00    +0.037 C 
ATOM     30  C   UNL     1      34.054 -19.025 -24.324  0.00  0.00    +0.003 C 
ATOM     31  C   UNL     1      34.813 -16.904 -23.450  0.00  0.00    +0.003 C 
ATOM     32  C   UNL     1      34.041 -17.631 -24.356  0.00  0.00    +0.000 C 
ENDBRANCH  26  27
ENDBRANCH  23  26
ENDBRANCH   2  20
TORSDOF 6
ENDMDL
MODEL 8
REMARK VINA RESULT:      -9.9      3.397     10.282
REMARK  Name = 16040289
REMARK  6 active torsions:
REMARK  status: ('A' for Active; 'I' for Inactive)
REMARK    1  A    between atoms: N_2  and  C_20
REMARK    2  A    between atoms: C_3  and  C_6
REMARK    3  A    between atoms: N_11  and  C_13
REMARK    4  A    between atoms: C_13  and  C_15
REMARK    5  A    between atoms: C_23  and  O_26
REMARK    6  A    between atoms: O_26  and  C_27
REMARK                            x       y       z     vdW  Elec       q    Type
REMARK                         _______ _______ _______ _____ _____    ______ ____
ROOT
ATOM      1  O   UNL     1      36.001 -18.961 -20.297  0.00  0.00    -0.270 OA
ATOM      2  N   UNL     1      34.182 -20.411 -20.636  0.00  0.00    -0.280 N 
ATOM      3  C   UNL     1      35.069 -19.381 -20.974  0.00  0.00    +0.252 C 
ATOM      4  H   UNL     1      33.488 -20.619 -21.302  0.00  0.00    +0.155 HD
ENDROOT
BRANCH   3   6
ATOM      5  N   UNL     1      34.694 -16.747 -23.621  0.00  0.00    -0.229 NA
ATOM      6  C   UNL     1      34.815 -18.725 -22.283  0.00  0.00    +0.085 C 
ATOM      7  C   UNL     1      34.920 -17.369 -22.442  0.00  0.00    +0.133 C 
ATOM      8  C   UNL     1      34.466 -19.519 -23.352  0.00  0.00    +0.009 C 
ATOM      9  C   UNL     1      34.226 -18.916 -24.582  0.00  0.00    +0.021 C 
ATOM     10  C   UNL     1      34.352 -17.538 -24.662  0.00  0.00    +0.100 C 
ATOM     11  N   UNL     1      35.281 -16.567 -21.330  0.00  0.00    -0.314 N 
ATOM     12  H   UNL     1      35.450 -17.006 -20.466  0.00  0.00    +0.149 HD
BRANCH  11  13
ATOM     13  C   UNL     1      35.411 -15.149 -21.415  0.00  0.00    +0.115 C 
BRANCH  13  15
ATOM     14  N   UNL     1      31.645 -13.253 -20.643  0.00  0.00    -0.242 NA
ATOM     15  C   UNL     1      34.089 -14.482 -21.145  0.00  0.00    +0.000 C 
ATOM     16  C   UNL     1      33.538 -13.642 -22.096  0.00  0.00    +0.018 C 
ATOM     17  C   UNL     1      33.437 -14.718 -19.946  0.00  0.00    +0.018 C 
ATOM     18  C   UNL     1      32.320 -13.054 -21.798  0.00  0.00    +0.099 C 
ATOM     19  C   UNL     1      32.222 -14.082 -19.745  0.00  0.00    +0.099 C 
ENDBRANCH  13  15
ENDBRANCH  11  13
ENDBRANCH   3   6
BRANCH   2  20
ATOM     20  C   UNL     1      34.162 -21.180 -19.472  0.00  0.00    +0.051 C 
ATOM     21  C   UNL     1      35.359 -21.576 -18.876  0.00  0.00    +0.018 C 
ATOM     22  C   UNL     1      32.943 -21.555 -18.906  0.00  0.00    +0.018 C 
ATOM     23  C   UNL     1      34.120 -22.719 -17.145  0.00  0.00    +0.145 C 
ATOM     24  C   UNL     1      35.338 -22.345 -17.711  0.00  0.00    +0.039 C 
ATOM     25  C   UNL     1      32.923 -22.324 -17.741  0.00  0.00    +0.039 C 
BRANCH  23  26
ATOM     26  O   UNL     1      34.099 -23.471 -16.011  0.00  0.00    -0.453 OA
BRANCH  26  27
ATOM     27  C   UNL     1      35.304 -23.705 -15.371  0.00  0.00    +0.145 C 
ATOM     28  C   UNL     1      36.112 -22.630 -15.043  0.00  0.00    +0.037 C 
ATOM     29  C   UNL     1      35.671 -25.005 -15.076  0.00  0.00    +0.037 C 
ATOM     30  C   UNL     1      37.327 -22.865 -14.399  0.00  0.00    +0.003 C 
ATOM     31  C   UNL     1      36.885 -25.241 -14.432  0.00  0.00    +0.003 C 
ATOM     32  C   UNL     1      37.713 -24.170 -14.094  0.00  0.00    +0.000 C 
ENDBRANCH  26  27
ENDBRANCH  23  26
ENDBRANCH   2  20
TORSDOF 6
ENDMDL
MODEL 9
REMARK VINA RESULT:      -9.8      7.420     13.910
REMARK  Name = 16040289
REMARK  6 active torsions:
REMARK  status: ('A' for Active; 'I' for Inactive)
REMARK    1  A    between atoms: N_2  and  C_20
REMARK    2  A    between atoms: C_3  and  C_6
REMARK    3  A    between atoms: N_11  and  C_13
REMARK    4  A    between atoms: C_13  and  C_15
REMARK    5  A    between atoms: C_23  and  O_26
REMARK    6  A    between atoms: O_26  and  C_27
REMARK                            x       y       z     vdW  Elec       q    Type
REMARK                         _______ _______ _______ _____ _____    ______ ____
ROOT
ATOM      1  O   UNL     1      31.607 -12.403 -22.163  0.00  0.00    -0.270 OA
ATOM      2  N   UNL     1      33.474 -12.740 -20.775  0.00  0.00    -0.280 N 
ATOM      3  C   UNL     1      32.350 -12.054 -21.252  0.00  0.00    +0.252 C 
ATOM      4  H   UNL     1      33.957 -12.311 -20.031  0.00  0.00    +0.155 HD
ENDROOT
BRANCH   3   6
ATOM      5  N   UNL     1      32.283  -8.378 -20.497  0.00  0.00    -0.229 NA
ATOM      6  C   UNL     1      32.062 -10.758 -20.584  0.00  0.00    +0.085 C 
ATOM      7  C   UNL     1      32.528  -9.571 -21.084  0.00  0.00    +0.133 C 
ATOM      8  C   UNL     1      31.307 -10.771 -19.434  0.00  0.00    +0.009 C 
ATOM      9  C   UNL     1      31.033  -9.564 -18.800  0.00  0.00    +0.021 C 
ATOM     10  C   UNL     1      31.540  -8.405 -19.368  0.00  0.00    +0.100 C 
ATOM     11  N   UNL     1      33.304  -9.575 -22.271  0.00  0.00    -0.314 N 
ATOM     12  H   UNL     1      33.490 -10.437 -22.710  0.00  0.00    +0.149 HD
BRANCH  11  13
ATOM     13  C   UNL     1      33.825  -8.382 -22.854  0.00  0.00    +0.115 C 
BRANCH  13  15
ATOM     14  N   UNL     1      30.650  -5.970 -24.425  0.00  0.00    -0.242 NA
ATOM     15  C   UNL     1      32.711  -7.536 -23.406  0.00  0.00    +0.000 C 
ATOM     16  C   UNL     1      31.662  -8.138 -24.079  0.00  0.00    +0.018 C 
ATOM     17  C   UNL     1      32.746  -6.163 -23.235  0.00  0.00    +0.018 C 
ATOM     18  C   UNL     1      30.661  -7.315 -24.567  0.00  0.00    +0.099 C 
ATOM     19  C   UNL     1      31.695  -5.428 -23.761  0.00  0.00    +0.099 C 
ENDBRANCH  13  15
ENDBRANCH  11  13
ENDBRANCH   3   6
BRANCH   2  20
ATOM     20  C   UNL     1      33.994 -13.954 -21.222  0.00  0.00    +0.051 C 
ATOM     21  C   UNL     1      34.156 -14.183 -22.588  0.00  0.00    +0.018 C 
ATOM     22  C   UNL     1      34.351 -14.940 -20.302  0.00  0.00    +0.018 C 
ATOM     23  C   UNL     1      35.033 -16.384 -22.116  0.00  0.00    +0.145 C 
ATOM     24  C   UNL     1      34.676 -15.398 -23.035  0.00  0.00    +0.039 C 
ATOM     25  C   UNL     1      34.871 -16.155 -20.749  0.00  0.00    +0.039 C 
BRANCH  23  26
ATOM     26  O   UNL     1      35.538 -17.570 -22.551  0.00  0.00    -0.453 OA
BRANCH  26  27
ATOM     27  C   UNL     1      35.683 -18.588 -21.624  0.00  0.00    +0.145 C 
ATOM     28  C   UNL     1      34.595 -19.393 -21.332  0.00  0.00    +0.037 C 
ATOM     29  C   UNL     1      36.910 -18.775 -21.013  0.00  0.00    +0.037 C 
ATOM     30  C   UNL     1      34.741 -20.418 -20.397  0.00  0.00    +0.003 C 
ATOM     31  C   UNL     1      37.055 -19.800 -20.078  0.00  0.00    +0.003 C 
ATOM     32  C   UNL     1      35.970 -20.621 -19.771  0.00  0.00    +0.000 C 
ENDBRANCH  26  27
ENDBRANCH  23  26
ENDBRANCH   2  20
TORSDOF 6
ENDMDL
