MODEL 1
REMARK VINA RESULT:     -12.2      0.000      0.000
REMARK  Name = 10430360
REMARK  6 active torsions:
REMARK  status: ('A' for Active; 'I' for Inactive)
REMARK    1  A    between atoms: C_4  and  C_18
REMARK    2  A    between atoms: C_7  and  C_14
REMARK    3  A    between atoms: C_17  and  O_23
REMARK    4  A    between atoms: O_23  and  C_24
REMARK    5  A    between atoms: C_24  and  C_25
REMARK    6  A    between atoms: C_25  and  N_26
REMARK                            x       y       z     vdW  Elec       q    Type
REMARK                         _______ _______ _______ _____ _____    ______ ____
ROOT
ATOM      1  N   UNL     1      33.921 -24.841 -13.247  0.00  0.00    -0.276 N 
ATOM      2  N   UNL     1      34.872 -24.312 -14.037  0.00  0.00    -0.173 NA
ATOM      3  C   UNL     1      32.777 -23.840 -14.828  0.00  0.00    +0.036 A 
ATOM      4  C   UNL     1      34.174 -23.702 -15.001  0.00  0.00    +0.102 A 
ATOM      5  C   UNL     1      32.642 -24.593 -13.667  0.00  0.00    +0.075 A 
ATOM      6  C   UNL     1      31.624 -23.419 -15.513  0.00  0.00    +0.006 C 
ATOM      7  C   UNL     1      30.372 -23.776 -14.997  0.00  0.00    +0.033 C 
ATOM      8  C   UNL     1      31.404 -24.960 -13.137  0.00  0.00    +0.019 C 
ATOM      9  C   UNL     1      30.266 -24.534 -13.830  0.00  0.00    +0.004 C 
ATOM     10  H   UNL     1      34.128 -25.360 -12.438  0.00  0.00    +0.189 HD
ENDROOT
BRANCH   7  14
ATOM     11  N   UNL     1      28.561 -24.114 -16.630  0.00  0.00    -0.218 N 
ATOM     12  N   UNL     1      28.521 -22.232 -15.522  0.00  0.00    -0.206 NA
ATOM     13  N   UNL     1      27.473 -23.495 -17.114  0.00  0.00    -0.157 NA
ATOM     14  C   UNL     1      29.175 -23.355 -15.686  0.00  0.00    +0.149 C 
ATOM     15  C   UNL     1      27.493 -22.361 -16.412  0.00  0.00    +0.218 C 
ATOM     16  H   UNL     1      28.872 -25.002 -16.921  0.00  0.00    +0.176 HD
ENDBRANCH   7  14
BRANCH   4  18
ATOM     17  C   UNL     1      34.871 -22.099 -18.287  0.00  0.00    +0.138 C 
ATOM     18  C   UNL     1      34.853 -23.004 -16.056  0.00  0.00    +0.022 C 
ATOM     19  C   UNL     1      34.206 -22.776 -17.271  0.00  0.00    +0.038 C 
ATOM     20  C   UNL     1      36.174 -21.648 -18.105  0.00  0.00    +0.037 C 
ATOM     21  C   UNL     1      36.159 -22.555 -15.866  0.00  0.00    +0.002 C 
ATOM     22  C   UNL     1      36.820 -21.877 -16.890  0.00  0.00    +0.003 C 
BRANCH  17  23
ATOM     23  O   UNL     1      34.236 -21.873 -19.480  0.00  0.00    -0.478 OA
BRANCH  23  24
ATOM     24  C   UNL     1      34.049 -20.516 -19.860  0.00  0.00    +0.183 C 
BRANCH  24  25
ATOM     25  C   UNL     1      35.165 -20.116 -20.812  0.00  0.00    -0.029 C 
BRANCH  25  26
ATOM     26  N   UNL     1      34.742 -19.007 -21.667  0.00  0.00    +0.389 N 
ATOM     27  C   UNL     1      35.568 -17.818 -21.413  0.00  0.00    -0.077 C 
ATOM     28  C   UNL     1      34.795 -19.400 -23.082  0.00  0.00    -0.077 C 
ATOM     29  C   UNL     1      35.107 -16.635 -22.265  0.00  0.00    -0.023 C 
ATOM     30  C   UNL     1      34.308 -18.267 -23.987  0.00  0.00    -0.023 C 
ATOM     31  C   UNL     1      35.100 -16.986 -23.748  0.00  0.00    -0.004 C 
ATOM     32  H   UNL     1      33.775 -18.772 -21.442  0.00  0.00    -0.080 HD
ENDBRANCH  25  26
ENDBRANCH  24  25
ENDBRANCH  23  24
ENDBRANCH  17  23
ENDBRANCH   4  18
TORSDOF 6
ENDMDL
MODEL 2
REMARK VINA RESULT:     -11.8      1.857      4.373
REMARK  Name = 10430360
REMARK  6 active torsions:
REMARK  status: ('A' for Active; 'I' for Inactive)
REMARK    1  A    between atoms: C_4  and  C_18
REMARK    2  A    between atoms: C_7  and  C_14
REMARK    3  A    between atoms: C_17  and  O_23
REMARK    4  A    between atoms: O_23  and  C_24
REMARK    5  A    between atoms: C_24  and  C_25
REMARK    6  A    between atoms: C_25  and  N_26
REMARK                            x       y       z     vdW  Elec       q    Type
REMARK                         _______ _______ _______ _____ _____    ______ ____
ROOT
ATOM      1  N   UNL     1      31.171 -23.008 -16.646  0.00  0.00    -0.276 N 
ATOM      2  N   UNL     1      31.948 -22.467 -17.600  0.00  0.00    -0.173 NA
ATOM      3  C   UNL     1      33.192 -23.163 -15.810  0.00  0.00    +0.036 A 
ATOM      4  C   UNL     1      33.182 -22.562 -17.089  0.00  0.00    +0.102 A 
ATOM      5  C   UNL     1      31.857 -23.445 -15.545  0.00  0.00    +0.075 A 
ATOM      6  C   UNL     1      34.168 -23.497 -14.855  0.00  0.00    +0.006 C 
ATOM      7  C   UNL     1      33.757 -24.107 -13.663  0.00  0.00    +0.033 C 
ATOM      8  C   UNL     1      31.426 -24.052 -14.363  0.00  0.00    +0.019 C 
ATOM      9  C   UNL     1      32.409 -24.378 -13.423  0.00  0.00    +0.004 C 
ATOM     10  H   UNL     1      30.194 -23.082 -16.732  0.00  0.00    +0.189 HD
ENDROOT
BRANCH   7  14
ATOM     11  N   UNL     1      35.723 -25.371 -12.890  0.00  0.00    -0.218 N 
ATOM     12  N   UNL     1      34.847 -23.977 -11.453  0.00  0.00    -0.206 NA
ATOM     13  N   UNL     1      36.505 -25.512 -11.809  0.00  0.00    -0.157 NA
ATOM     14  C   UNL     1      34.743 -24.457 -12.668  0.00  0.00    +0.149 C 
ATOM     15  C   UNL     1      35.933 -24.649 -10.968  0.00  0.00    +0.218 C 
ATOM     16  H   UNL     1      35.846 -25.864 -13.734  0.00  0.00    +0.176 HD
ENDBRANCH   7  14
BRANCH   4  18
ATOM     17  C   UNL     1      35.225 -21.026 -19.794  0.00  0.00    +0.138 C 
ATOM     18  C   UNL     1      34.312 -22.081 -17.833  0.00  0.00    +0.022 C 
ATOM     19  C   UNL     1      34.125 -21.489 -19.082  0.00  0.00    +0.038 C 
ATOM     20  C   UNL     1      36.509 -21.147 -19.276  0.00  0.00    +0.037 C 
ATOM     21  C   UNL     1      35.597 -22.207 -17.306  0.00  0.00    +0.002 C 
ATOM     22  C   UNL     1      36.696 -21.740 -18.027  0.00  0.00    +0.003 C 
BRANCH  17  23
ATOM     23  O   UNL     1      35.042 -20.442 -21.021  0.00  0.00    -0.478 OA
BRANCH  23  24
ATOM     24  C   UNL     1      34.936 -19.024 -21.047  0.00  0.00    +0.183 C 
BRANCH  24  25
ATOM     25  C   UNL     1      36.145 -18.458 -21.774  0.00  0.00    -0.029 C 
BRANCH  25  26
ATOM     26  N   UNL     1      35.796 -17.221 -22.472  0.00  0.00    +0.389 N 
ATOM     27  C   UNL     1      34.952 -17.510 -23.640  0.00  0.00    -0.077 C 
ATOM     28  C   UNL     1      35.131 -16.284 -21.555  0.00  0.00    -0.077 C 
ATOM     29  C   UNL     1      34.618 -16.231 -24.408  0.00  0.00    -0.023 C 
ATOM     30  C   UNL     1      34.803 -14.965 -22.256  0.00  0.00    -0.023 C 
ATOM     31  C   UNL     1      33.958 -15.195 -23.504  0.00  0.00    -0.004 C 
ATOM     32  H   UNL     1      36.653 -16.779 -22.804  0.00  0.00    -0.080 HD
ENDBRANCH  25  26
ENDBRANCH  24  25
ENDBRANCH  23  24
ENDBRANCH  17  23
ENDBRANCH   4  18
TORSDOF 6
ENDMDL
MODEL 3
REMARK VINA RESULT:     -11.7      1.847      3.198
REMARK  Name = 10430360
REMARK  6 active torsions:
REMARK  status: ('A' for Active; 'I' for Inactive)
REMARK    1  A    between atoms: C_4  and  C_18
REMARK    2  A    between atoms: C_7  and  C_14
REMARK    3  A    between atoms: C_17  and  O_23
REMARK    4  A    between atoms: O_23  and  C_24
REMARK    5  A    between atoms: C_24  and  C_25
REMARK    6  A    between atoms: C_25  and  N_26
REMARK                            x       y       z     vdW  Elec       q    Type
REMARK                         _______ _______ _______ _____ _____    ______ ____
ROOT
ATOM      1  N   UNL     1      36.415 -23.180 -15.749  0.00  0.00    -0.276 N 
ATOM      2  N   UNL     1      36.442 -22.455 -16.880  0.00  0.00    -0.173 NA
ATOM      3  C   UNL     1      34.299 -23.004 -16.296  0.00  0.00    +0.036 A 
ATOM      4  C   UNL     1      35.151 -22.348 -17.214  0.00  0.00    +0.102 A 
ATOM      5  C   UNL     1      35.158 -23.542 -15.345  0.00  0.00    +0.075 A 
ATOM      6  C   UNL     1      32.914 -23.203 -16.162  0.00  0.00    +0.006 C 
ATOM      7  C   UNL     1      32.447 -23.941 -15.068  0.00  0.00    +0.033 C 
ATOM      8  C   UNL     1      34.713 -24.280 -14.247  0.00  0.00    +0.019 C 
ATOM      9  C   UNL     1      33.333 -24.470 -14.128  0.00  0.00    +0.004 C 
ATOM     10  H   UNL     1      37.229 -23.429 -15.255  0.00  0.00    +0.189 HD
ENDROOT
BRANCH   7  14
ATOM     11  N   UNL     1      30.513 -25.232 -14.259  0.00  0.00    -0.218 N 
ATOM     12  N   UNL     1      30.057 -23.397 -15.354  0.00  0.00    -0.206 NA
ATOM     13  N   UNL     1      29.172 -25.197 -14.257  0.00  0.00    -0.157 NA
ATOM     14  C   UNL     1      31.028 -24.158 -14.912  0.00  0.00    +0.149 C 
ATOM     15  C   UNL     1      28.946 -24.069 -14.931  0.00  0.00    +0.218 C 
ATOM     16  H   UNL     1      31.052 -25.942 -13.841  0.00  0.00    +0.176 HD
ENDBRANCH   7  14
BRANCH   4  18
ATOM     17  C   UNL     1      35.341 -20.226 -20.266  0.00  0.00    +0.138 C 
ATOM     18  C   UNL     1      34.765 -21.624 -18.393  0.00  0.00    +0.022 C 
ATOM     19  C   UNL     1      35.723 -20.924 -19.126  0.00  0.00    +0.038 C 
ATOM     20  C   UNL     1      34.014 -20.218 -20.682  0.00  0.00    +0.037 C 
ATOM     21  C   UNL     1      33.433 -21.621 -18.803  0.00  0.00    +0.002 C 
ATOM     22  C   UNL     1      33.057 -20.919 -19.948  0.00  0.00    +0.003 C 
BRANCH  17  23
ATOM     23  O   UNL     1      36.282 -19.539 -20.988  0.00  0.00    -0.478 OA
BRANCH  23  24
ATOM     24  C   UNL     1      35.960 -18.202 -21.352  0.00  0.00    +0.183 C 
BRANCH  24  25
ATOM     25  C   UNL     1      35.720 -18.149 -22.852  0.00  0.00    -0.029 C 
BRANCH  25  26
ATOM     26  N   UNL     1      35.374 -16.790 -23.270  0.00  0.00    +0.389 N 
ATOM     27  C   UNL     1      34.325 -16.820 -24.299  0.00  0.00    -0.077 C 
ATOM     28  C   UNL     1      34.960 -15.985 -22.113  0.00  0.00    -0.077 C 
ATOM     29  C   UNL     1      33.986 -15.410 -24.783  0.00  0.00    -0.023 C 
ATOM     30  C   UNL     1      34.642 -14.547 -22.526  0.00  0.00    -0.023 C 
ATOM     31  C   UNL     1      33.584 -14.506 -23.623  0.00  0.00    -0.004 C 
ATOM     32  H   UNL     1      36.201 -16.353 -23.677  0.00  0.00    -0.080 HD
ENDBRANCH  25  26
ENDBRANCH  24  25
ENDBRANCH  23  24
ENDBRANCH  17  23
ENDBRANCH   4  18
TORSDOF 6
ENDMDL
MODEL 4
REMARK VINA RESULT:     -11.4      5.899     11.803
REMARK  Name = 10430360
REMARK  6 active torsions:
REMARK  status: ('A' for Active; 'I' for Inactive)
REMARK    1  A    between atoms: C_4  and  C_18
REMARK    2  A    between atoms: C_7  and  C_14
REMARK    3  A    between atoms: C_17  and  O_23
REMARK    4  A    between atoms: O_23  and  C_24
REMARK    5  A    between atoms: C_24  and  C_25
REMARK    6  A    between atoms: C_25  and  N_26
REMARK                            x       y       z     vdW  Elec       q    Type
REMARK                         _______ _______ _______ _____ _____    ______ ____
ROOT
ATOM      1  N   UNL     1      32.310 -13.159 -19.468  0.00  0.00    -0.276 N 
ATOM      2  N   UNL     1      32.846 -14.161 -20.186  0.00  0.00    -0.173 NA
ATOM      3  C   UNL     1      32.478 -12.314 -21.484  0.00  0.00    +0.036 A 
ATOM      4  C   UNL     1      32.948 -13.646 -21.416  0.00  0.00    +0.102 A 
ATOM      5  C   UNL     1      32.065 -12.022 -20.189  0.00  0.00    +0.075 A 
ATOM      6  C   UNL     1      32.355 -11.332 -22.483  0.00  0.00    +0.006 C 
ATOM      7  C   UNL     1      31.818 -10.087 -22.134  0.00  0.00    +0.033 C 
ATOM      8  C   UNL     1      31.527 -10.787 -19.821  0.00  0.00    +0.019 C 
ATOM      9  C   UNL     1      31.411  -9.821 -20.826  0.00  0.00    +0.004 C 
ATOM     10  H   UNL     1      32.112 -13.237 -18.507  0.00  0.00    +0.189 HD
ENDROOT
BRANCH   7  14
ATOM     11  N   UNL     1      30.804  -8.034 -23.039  0.00  0.00    -0.218 N 
ATOM     12  N   UNL     1      32.346  -8.971 -24.271  0.00  0.00    -0.206 NA
ATOM     13  N   UNL     1      30.876  -7.228 -24.109  0.00  0.00    -0.157 NA
ATOM     14  C   UNL     1      31.682  -9.065 -23.145  0.00  0.00    +0.149 C 
ATOM     15  C   UNL     1      31.822  -7.838 -24.824  0.00  0.00    +0.218 C 
ATOM     16  H   UNL     1      30.197  -7.895 -22.277  0.00  0.00    +0.176 HD
ENDBRANCH   7  14
BRANCH   4  18
ATOM     17  C   UNL     1      34.899 -16.227 -23.255  0.00  0.00    +0.138 C 
ATOM     18  C   UNL     1      33.491 -14.431 -22.488  0.00  0.00    +0.022 C 
ATOM     19  C   UNL     1      34.379 -15.471 -22.211  0.00  0.00    +0.038 C 
ATOM     20  C   UNL     1      34.544 -15.957 -24.572  0.00  0.00    +0.037 C 
ATOM     21  C   UNL     1      33.130 -14.155 -23.806  0.00  0.00    +0.002 C 
ATOM     22  C   UNL     1      33.656 -14.918 -24.849  0.00  0.00    +0.003 C 
BRANCH  17  23
ATOM     23  O   UNL     1      35.771 -17.249 -22.984  0.00  0.00    -0.478 OA
BRANCH  23  24
ATOM     24  C   UNL     1      35.233 -18.395 -22.336  0.00  0.00    +0.183 C 
BRANCH  24  25
ATOM     25  C   UNL     1      36.154 -18.787 -21.192  0.00  0.00    -0.029 C 
BRANCH  25  26
ATOM     26  N   UNL     1      35.433 -19.582 -20.198  0.00  0.00    +0.389 N 
ATOM     27  C   UNL     1      34.109 -19.966 -20.708  0.00  0.00    -0.077 C 
ATOM     28  C   UNL     1      36.219 -20.763 -19.816  0.00  0.00    -0.077 C 
ATOM     29  C   UNL     1      33.323 -20.757 -19.662  0.00  0.00    -0.023 C 
ATOM     30  C   UNL     1      35.501 -21.580 -18.741  0.00  0.00    -0.023 C 
ATOM     31  C   UNL     1      34.100 -21.981 -19.191  0.00  0.00    -0.004 C 
ATOM     32  H   UNL     1      35.295 -19.014 -19.362  0.00  0.00    -0.080 HD
ENDBRANCH  25  26
ENDBRANCH  24  25
ENDBRANCH  23  24
ENDBRANCH  17  23
ENDBRANCH   4  18
TORSDOF 6
ENDMDL
MODEL 5
REMARK VINA RESULT:     -10.8      2.811      5.790
REMARK  Name = 10430360
REMARK  6 active torsions:
REMARK  status: ('A' for Active; 'I' for Inactive)
REMARK    1  A    between atoms: C_4  and  C_18
REMARK    2  A    between atoms: C_7  and  C_14
REMARK    3  A    between atoms: C_17  and  O_23
REMARK    4  A    between atoms: O_23  and  C_24
REMARK    5  A    between atoms: C_24  and  C_25
REMARK    6  A    between atoms: C_25  and  N_26
REMARK                            x       y       z     vdW  Elec       q    Type
REMARK                         _______ _______ _______ _____ _____    ______ ____
ROOT
ATOM      1  N   UNL     1      33.553 -23.603 -13.064  0.00  0.00    -0.276 N 
ATOM      2  N   UNL     1      33.208 -23.073 -14.249  0.00  0.00    -0.173 NA
ATOM      3  C   UNL     1      35.321 -23.948 -14.314  0.00  0.00    +0.036 A 
ATOM      4  C   UNL     1      34.287 -23.283 -15.012  0.00  0.00    +0.102 A 
ATOM      5  C   UNL     1      34.810 -24.144 -13.036  0.00  0.00    +0.075 A 
ATOM      6  C   UNL     1      36.618 -24.400 -14.613  0.00  0.00    +0.006 C 
ATOM      7  C   UNL     1      37.352 -25.037 -13.606  0.00  0.00    +0.033 C 
ATOM      8  C   UNL     1      35.526 -24.777 -12.018  0.00  0.00    +0.019 C 
ATOM      9  C   UNL     1      36.814 -25.221 -12.331  0.00  0.00    +0.004 C 
ATOM     10  H   UNL     1      32.953 -23.601 -12.283  0.00  0.00    +0.189 HD
ENDROOT
BRANCH   7  14
ATOM     11  N   UNL     1      39.350 -25.198 -15.035  0.00  0.00    -0.218 N 
ATOM     12  N   UNL     1      39.435 -26.274 -13.135  0.00  0.00    -0.206 NA
ATOM     13  N   UNL     1      40.568 -25.761 -15.054  0.00  0.00    -0.157 NA
ATOM     14  C   UNL     1      38.687 -25.509 -13.892  0.00  0.00    +0.149 C 
ATOM     15  C   UNL     1      40.571 -26.401 -13.884  0.00  0.00    +0.218 C 
ATOM     16  H   UNL     1      38.987 -24.633 -15.755  0.00  0.00    +0.176 HD
ENDBRANCH   7  14
BRANCH   4  18
ATOM     17  C   UNL     1      35.464 -21.867 -18.246  0.00  0.00    +0.138 C 
ATOM     18  C   UNL     1      34.302 -22.849 -16.381  0.00  0.00    +0.022 C 
ATOM     19  C   UNL     1      35.457 -22.283 -16.921  0.00  0.00    +0.038 C 
ATOM     20  C   UNL     1      34.331 -22.006 -19.040  0.00  0.00    +0.037 C 
ATOM     21  C   UNL     1      33.161 -22.992 -17.170  0.00  0.00    +0.002 C 
ATOM     22  C   UNL     1      33.175 -22.572 -18.500  0.00  0.00    +0.003 C 
BRANCH  17  23
ATOM     23  O   UNL     1      36.599 -21.312 -18.778  0.00  0.00    -0.478 OA
BRANCH  23  24
ATOM     24  C   UNL     1      36.524 -20.866 -20.126  0.00  0.00    +0.183 C 
BRANCH  24  25
ATOM     25  C   UNL     1      36.293 -19.363 -20.130  0.00  0.00    -0.029 C 
BRANCH  25  26
ATOM     26  N   UNL     1      36.043 -18.884 -21.490  0.00  0.00    +0.389 N 
ATOM     27  C   UNL     1      35.048 -19.733 -22.160  0.00  0.00    -0.077 C 
ATOM     28  C   UNL     1      35.615 -17.478 -21.468  0.00  0.00    -0.077 C 
ATOM     29  C   UNL     1      34.810 -19.273 -23.599  0.00  0.00    -0.023 C 
ATOM     30  C   UNL     1      35.397 -16.946 -22.886  0.00  0.00    -0.023 C 
ATOM     31  C   UNL     1      34.400 -17.806 -23.654  0.00  0.00    -0.004 C 
ATOM     32  H   UNL     1      36.912 -18.939 -22.021  0.00  0.00    -0.080 HD
ENDBRANCH  25  26
ENDBRANCH  24  25
ENDBRANCH  23  24
ENDBRANCH  17  23
ENDBRANCH   4  18
TORSDOF 6
ENDMDL
MODEL 6
REMARK VINA RESULT:     -10.7      7.277     12.065
REMARK  Name = 10430360
REMARK  6 active torsions:
REMARK  status: ('A' for Active; 'I' for Inactive)
REMARK    1  A    between atoms: C_4  and  C_18
REMARK    2  A    between atoms: C_7  and  C_14
REMARK    3  A    between atoms: C_17  and  O_23
REMARK    4  A    between atoms: O_23  and  C_24
REMARK    5  A    between atoms: C_24  and  C_25
REMARK    6  A    between atoms: C_25  and  N_26
REMARK                            x       y       z     vdW  Elec       q    Type
REMARK                         _______ _______ _______ _____ _____    ______ ____
ROOT
ATOM      1  N   UNL     1      33.080 -14.389 -25.040  0.00  0.00    -0.276 N 
ATOM      2  N   UNL     1      32.589 -13.460 -24.201  0.00  0.00    -0.173 NA
ATOM      3  C   UNL     1      33.801 -15.040 -23.074  0.00  0.00    +0.036 A 
ATOM      4  C   UNL     1      33.029 -13.858 -23.002  0.00  0.00    +0.102 A 
ATOM      5  C   UNL     1      33.817 -15.366 -24.425  0.00  0.00    +0.075 A 
ATOM      6  C   UNL     1      34.480 -15.864 -22.160  0.00  0.00    +0.006 C 
ATOM      7  C   UNL     1      35.154 -16.991 -22.648  0.00  0.00    +0.033 C 
ATOM      8  C   UNL     1      34.481 -16.484 -24.932  0.00  0.00    +0.019 C 
ATOM      9  C   UNL     1      35.153 -17.294 -24.010  0.00  0.00    +0.004 C 
ATOM     10  H   UNL     1      32.923 -14.368 -26.011  0.00  0.00    +0.189 HD
ENDROOT
BRANCH   7  14
ATOM     11  N   UNL     1      37.194 -18.080 -21.804  0.00  0.00    -0.218 N 
ATOM     12  N   UNL     1      35.348 -18.518 -20.720  0.00  0.00    -0.206 NA
ATOM     13  N   UNL     1      37.597 -18.914 -20.833  0.00  0.00    -0.157 NA
ATOM     14  C   UNL     1      35.857 -17.852 -21.726  0.00  0.00    +0.149 C 
ATOM     15  C   UNL     1      36.444 -19.150 -20.206  0.00  0.00    +0.218 C 
ATOM     16  H   UNL     1      37.789 -17.684 -22.481  0.00  0.00    +0.176 HD
ENDBRANCH   7  14
BRANCH   4  18
ATOM     17  C   UNL     1      32.017 -11.040 -20.791  0.00  0.00    +0.138 C 
ATOM     18  C   UNL     1      32.705 -13.102 -21.824  0.00  0.00    +0.022 C 
ATOM     19  C   UNL     1      32.329 -11.764 -21.936  0.00  0.00    +0.038 C 
ATOM     20  C   UNL     1      32.076 -11.636 -19.537  0.00  0.00    +0.037 C 
ATOM     21  C   UNL     1      32.767 -13.707 -20.569  0.00  0.00    +0.002 C 
ATOM     22  C   UNL     1      32.452 -12.974 -19.425  0.00  0.00    +0.003 C 
BRANCH  17  23
ATOM     23  O   UNL     1      31.646  -9.725 -20.900  0.00  0.00    -0.478 OA
BRANCH  23  24
ATOM     24  C   UNL     1      31.884  -9.093 -22.152  0.00  0.00    +0.183 C 
BRANCH  24  25
ATOM     25  C   UNL     1      31.728  -7.591 -21.977  0.00  0.00    -0.029 C 
BRANCH  25  26
ATOM     26  N   UNL     1      32.900  -6.887 -22.496  0.00  0.00    +0.389 N 
ATOM     27  C   UNL     1      34.071  -7.775 -22.506  0.00  0.00    -0.077 C 
ATOM     28  C   UNL     1      32.627  -6.352 -23.837  0.00  0.00    -0.077 C 
ATOM     29  C   UNL     1      35.317  -7.039 -23.001  0.00  0.00    -0.023 C 
ATOM     30  C   UNL     1      33.827  -5.570 -24.375  0.00  0.00    -0.023 C 
ATOM     31  C   UNL     1      35.090  -6.423 -24.376  0.00  0.00    -0.004 C 
ATOM     32  H   UNL     1      33.108  -6.100 -21.881  0.00  0.00    -0.080 HD
ENDBRANCH  25  26
ENDBRANCH  24  25
ENDBRANCH  23  24
ENDBRANCH  17  23
ENDBRANCH   4  18
TORSDOF 6
ENDMDL
MODEL 7
REMARK VINA RESULT:     -10.1     10.415     14.575
REMARK  Name = 10430360
REMARK  6 active torsions:
REMARK  status: ('A' for Active; 'I' for Inactive)
REMARK    1  A    between atoms: C_4  and  C_18
REMARK    2  A    between atoms: C_7  and  C_14
REMARK    3  A    between atoms: C_17  and  O_23
REMARK    4  A    between atoms: O_23  and  C_24
REMARK    5  A    between atoms: C_24  and  C_25
REMARK    6  A    between atoms: C_25  and  N_26
REMARK                            x       y       z     vdW  Elec       q    Type
REMARK                         _______ _______ _______ _____ _____    ______ ____
ROOT
ATOM      1  N   UNL     1      31.666 -10.601 -19.763  0.00  0.00    -0.276 N 
ATOM      2  N   UNL     1      31.592  -9.445 -20.446  0.00  0.00    -0.173 NA
ATOM      3  C   UNL     1      32.267 -11.166 -21.794  0.00  0.00    +0.036 A 
ATOM      4  C   UNL     1      31.959  -9.790 -21.685  0.00  0.00    +0.102 A 
ATOM      5  C   UNL     1      32.066 -11.672 -20.515  0.00  0.00    +0.075 A 
ATOM      6  C   UNL     1      32.690 -12.032 -22.817  0.00  0.00    +0.006 C 
ATOM      7  C   UNL     1      32.895 -13.382 -22.509  0.00  0.00    +0.033 C 
ATOM      8  C   UNL     1      32.264 -13.014 -20.186  0.00  0.00    +0.019 C 
ATOM      9  C   UNL     1      32.685 -13.863 -21.216  0.00  0.00    +0.004 C 
ATOM     10  H   UNL     1      31.451 -10.669 -18.805  0.00  0.00    +0.189 HD
ENDROOT
BRANCH   7  14
ATOM     11  N   UNL     1      32.860 -14.235 -24.818  0.00  0.00    -0.218 N 
ATOM     12  N   UNL     1      34.202 -15.261 -23.432  0.00  0.00    -0.206 NA
ATOM     13  N   UNL     1      33.423 -15.185 -25.581  0.00  0.00    -0.157 NA
ATOM     14  C   UNL     1      33.330 -14.289 -23.545  0.00  0.00    +0.149 C 
ATOM     15  C   UNL     1      34.226 -15.778 -24.696  0.00  0.00    +0.218 C 
ATOM     16  H   UNL     1      32.196 -13.584 -25.141  0.00  0.00    +0.176 HD
ENDBRANCH   7  14
BRANCH   4  18
ATOM     17  C   UNL     1      33.265  -7.392 -24.213  0.00  0.00    +0.138 C 
ATOM     18  C   UNL     1      32.003  -8.805 -22.728  0.00  0.00    +0.022 C 
ATOM     19  C   UNL     1      33.232  -8.345 -23.202  0.00  0.00    +0.038 C 
ATOM     20  C   UNL     1      32.087  -6.891 -24.755  0.00  0.00    +0.037 C 
ATOM     21  C   UNL     1      30.817  -8.307 -23.268  0.00  0.00    +0.002 C 
ATOM     22  C   UNL     1      30.859  -7.350 -24.281  0.00  0.00    +0.003 C 
BRANCH  17  23
ATOM     23  O   UNL     1      34.472  -6.940 -24.680  0.00  0.00    -0.478 OA
BRANCH  23  24
ATOM     24  C   UNL     1      34.627  -5.532 -24.802  0.00  0.00    +0.183 C 
BRANCH  24  25
ATOM     25  C   UNL     1      35.538  -5.242 -25.984  0.00  0.00    -0.029 C 
BRANCH  25  26
ATOM     26  N   UNL     1      35.137  -6.029 -27.150  0.00  0.00    +0.389 N 
ATOM     27  C   UNL     1      33.956  -5.434 -27.792  0.00  0.00    -0.077 C 
ATOM     28  C   UNL     1      36.254  -6.150 -28.097  0.00  0.00    -0.077 C 
ATOM     29  C   UNL     1      33.495  -6.272 -28.984  0.00  0.00    -0.023 C 
ATOM     30  C   UNL     1      35.866  -7.012 -29.300  0.00  0.00    -0.023 C 
ATOM     31  C   UNL     1      34.621  -6.471 -29.993  0.00  0.00    -0.004 C 
ATOM     32  H   UNL     1      34.886  -6.968 -26.840  0.00  0.00    -0.080 HD
ENDBRANCH  25  26
ENDBRANCH  24  25
ENDBRANCH  23  24
ENDBRANCH  17  23
ENDBRANCH   4  18
TORSDOF 6
ENDMDL
MODEL 8
REMARK VINA RESULT:     -10.1      3.626      7.722
REMARK  Name = 10430360
REMARK  6 active torsions:
REMARK  status: ('A' for Active; 'I' for Inactive)
REMARK    1  A    between atoms: C_4  and  C_18
REMARK    2  A    between atoms: C_7  and  C_14
REMARK    3  A    between atoms: C_17  and  O_23
REMARK    4  A    between atoms: O_23  and  C_24
REMARK    5  A    between atoms: C_24  and  C_25
REMARK    6  A    between atoms: C_25  and  N_26
REMARK                            x       y       z     vdW  Elec       q    Type
REMARK                         _______ _______ _______ _____ _____    ______ ____
ROOT
ATOM      1  N   UNL     1      37.992 -18.668 -21.280  0.00  0.00    -0.276 N 
ATOM      2  N   UNL     1      37.358 -18.146 -22.344  0.00  0.00    -0.173 NA
ATOM      3  C   UNL     1      35.950 -19.447 -21.095  0.00  0.00    +0.036 A 
ATOM      4  C   UNL     1      36.113 -18.621 -22.232  0.00  0.00    +0.102 A 
ATOM      5  C   UNL     1      37.202 -19.460 -20.490  0.00  0.00    +0.075 A 
ATOM      6  C   UNL     1      34.899 -20.179 -20.516  0.00  0.00    +0.006 C 
ATOM      7  C   UNL     1      35.153 -20.898 -19.342  0.00  0.00    +0.033 C 
ATOM      8  C   UNL     1      37.476 -20.170 -19.320  0.00  0.00    +0.019 C 
ATOM      9  C   UNL     1      36.420 -20.893 -18.756  0.00  0.00    +0.004 C 
ATOM     10  H   UNL     1      38.941 -18.496 -21.087  0.00  0.00    +0.189 HD
ENDROOT
BRANCH   7  14
ATOM     11  N   UNL     1      32.784 -21.280 -18.791  0.00  0.00    -0.218 N 
ATOM     12  N   UNL     1      34.198 -22.774 -18.054  0.00  0.00    -0.206 NA
ATOM     13  N   UNL     1      31.999 -22.155 -18.144  0.00  0.00    -0.157 NA
ATOM     14  C   UNL     1      34.087 -21.658 -18.731  0.00  0.00    +0.149 C 
ATOM     15  C   UNL     1      32.902 -23.039 -17.717  0.00  0.00    +0.218 C 
ATOM     16  H   UNL     1      32.458 -20.472 -19.249  0.00  0.00    +0.176 HD
ENDBRANCH   7  14
BRANCH   4  18
ATOM     17  C   UNL     1      34.067 -16.643 -24.630  0.00  0.00    +0.138 C 
ATOM     18  C   UNL     1      35.115 -18.275 -23.204  0.00  0.00    +0.022 C 
ATOM     19  C   UNL     1      35.036 -16.970 -23.689  0.00  0.00    +0.038 C 
ATOM     20  C   UNL     1      33.175 -17.604 -25.093  0.00  0.00    +0.037 C 
ATOM     21  C   UNL     1      34.223 -19.244 -23.663  0.00  0.00    +0.002 C 
ATOM     22  C   UNL     1      33.253 -18.910 -24.607  0.00  0.00    +0.003 C 
BRANCH  17  23
ATOM     23  O   UNL     1      33.990 -15.361 -25.109  0.00  0.00    -0.478 OA
BRANCH  23  24
ATOM     24  C   UNL     1      33.119 -14.472 -24.422  0.00  0.00    +0.183 C 
BRANCH  24  25
ATOM     25  C   UNL     1      33.951 -13.378 -23.772  0.00  0.00    -0.029 C 
BRANCH  25  26
ATOM     26  N   UNL     1      33.650 -13.281 -22.344  0.00  0.00    +0.389 N 
ATOM     27  C   UNL     1      32.216 -13.035 -22.135  0.00  0.00    -0.077 C 
ATOM     28  C   UNL     1      34.090 -14.495 -21.643  0.00  0.00    -0.077 C 
ATOM     29  C   UNL     1      31.894 -12.883 -20.648  0.00  0.00    -0.023 C 
ATOM     30  C   UNL     1      33.828 -14.390 -20.139  0.00  0.00    -0.023 C 
ATOM     31  C   UNL     1      32.359 -14.096 -19.851  0.00  0.00    -0.004 C 
ATOM     32  H   UNL     1      34.164 -12.490 -21.954  0.00  0.00    -0.080 HD
ENDBRANCH  25  26
ENDBRANCH  24  25
ENDBRANCH  23  24
ENDBRANCH  17  23
ENDBRANCH   4  18
TORSDOF 6
ENDMDL
MODEL 9
REMARK VINA RESULT:      -9.9      3.449      8.858
REMARK  Name = 10430360
REMARK  6 active torsions:
REMARK  status: ('A' for Active; 'I' for Inactive)
REMARK    1  A    between atoms: C_4  and  C_18
REMARK    2  A    between atoms: C_7  and  C_14
REMARK    3  A    between atoms: C_17  and  O_23
REMARK    4  A    between atoms: O_23  and  C_24
REMARK    5  A    between atoms: C_24  and  C_25
REMARK    6  A    between atoms: C_25  and  N_26
REMARK                            x       y       z     vdW  Elec       q    Type
REMARK                         _______ _______ _______ _____ _____    ______ ____
ROOT
ATOM      1  N   UNL     1      32.243 -22.493 -17.815  0.00  0.00    -0.276 N 
ATOM      2  N   UNL     1      32.989 -23.104 -16.879  0.00  0.00    -0.173 NA
ATOM      3  C   UNL     1      34.279 -21.808 -18.255  0.00  0.00    +0.036 A 
ATOM      4  C   UNL     1      34.232 -22.686 -17.147  0.00  0.00    +0.102 A 
ATOM      5  C   UNL     1      32.958 -21.701 -18.673  0.00  0.00    +0.075 A 
ATOM      6  C   UNL     1      35.278 -21.100 -18.945  0.00  0.00    +0.006 C 
ATOM      7  C   UNL     1      34.904 -20.307 -20.036  0.00  0.00    +0.033 C 
ATOM      8  C   UNL     1      32.563 -20.917 -19.758  0.00  0.00    +0.019 C 
ATOM      9  C   UNL     1      33.569 -20.218 -20.435  0.00  0.00    +0.004 C 
ATOM     10  H   UNL     1      31.268 -22.607 -17.878  0.00  0.00    +0.189 HD
ENDROOT
BRANCH   7  14
ATOM     11  N   UNL     1      37.174 -19.388 -20.286  0.00  0.00    -0.218 N 
ATOM     12  N   UNL     1      35.788 -18.993 -21.928  0.00  0.00    -0.206 NA
ATOM     13  N   UNL     1      37.913 -18.672 -21.148  0.00  0.00    -0.157 NA
ATOM     14  C   UNL     1      35.914 -19.572 -20.760  0.00  0.00    +0.149 C 
ATOM     15  C   UNL     1      37.029 -18.458 -22.123  0.00  0.00    +0.218 C 
ATOM     16  H   UNL     1      37.502 -19.734 -19.425  0.00  0.00    +0.176 HD
ENDBRANCH   7  14
BRANCH   4  18
ATOM     17  C   UNL     1      36.387 -24.823 -14.993  0.00  0.00    +0.138 C 
ATOM     18  C   UNL     1      35.335 -23.129 -16.342  0.00  0.00    +0.022 C 
ATOM     19  C   UNL     1      35.314 -24.401 -15.770  0.00  0.00    +0.038 C 
ATOM     20  C   UNL     1      37.479 -23.991 -14.780  0.00  0.00    +0.037 C 
ATOM     21  C   UNL     1      36.427 -22.288 -16.133  0.00  0.00    +0.002 C 
ATOM     22  C   UNL     1      37.500 -22.719 -15.352  0.00  0.00    +0.003 C 
BRANCH  17  23
ATOM     23  O   UNL     1      36.367 -26.074 -14.432  0.00  0.00    -0.478 OA
BRANCH  23  24
ATOM     24  C   UNL     1      37.565 -26.512 -13.802  0.00  0.00    +0.183 C 
BRANCH  24  25
ATOM     25  C   UNL     1      37.259 -26.846 -12.351  0.00  0.00    -0.029 C 
BRANCH  25  26
ATOM     26  N   UNL     1      37.335 -25.646 -11.518  0.00  0.00    +0.389 N 
ATOM     27  C   UNL     1      38.332 -24.709 -12.056  0.00  0.00    -0.077 C 
ATOM     28  C   UNL     1      36.015 -25.011 -11.408  0.00  0.00    -0.077 C 
ATOM     29  C   UNL     1      38.459 -23.470 -11.169  0.00  0.00    -0.023 C 
ATOM     30  C   UNL     1      36.067 -23.782 -10.500  0.00  0.00    -0.023 C 
ATOM     31  C   UNL     1      37.113 -22.781 -10.980  0.00  0.00    -0.004 C 
ATOM     32  H   UNL     1      37.632 -25.917 -10.580  0.00  0.00    -0.080 HD
ENDBRANCH  25  26
ENDBRANCH  24  25
ENDBRANCH  23  24
ENDBRANCH  17  23
ENDBRANCH   4  18
TORSDOF 6
ENDMDL
