MODEL 1
REMARK VINA RESULT:     -11.1      0.000      0.000
REMARK  Name = 4369497
REMARK  6 active torsions:
REMARK  status: ('A' for Active; 'I' for Inactive)
REMARK    1  A    between atoms: N_2  and  C_9
REMARK    2  A    between atoms: C_5  and  C_21
REMARK    3  A    between atoms: C_8  and  S_14
REMARK    4  A    between atoms: C_12  and  O_19
REMARK    5  A    between atoms: S_14  and  C_17
REMARK    6  A    between atoms: C_22  and  C_28
REMARK                            x       y       z     vdW  Elec       q    Type
REMARK                         _______ _______ _______ _____ _____    ______ ____
ROOT
ATOM      1  O   UNL     1      33.598 -20.693 -19.707  0.00  0.00    -0.424 OA
ATOM      2  N   UNL     1      32.779 -21.975 -17.985  0.00  0.00    -0.265 N 
ATOM      3  N   UNL     1      35.123 -21.863 -18.516  0.00  0.00    -0.193 NA
ATOM      4  C   UNL     1      33.858 -21.554 -18.685  0.00  0.00    +0.293 C 
ATOM      5  C   UNL     1      34.829 -20.445 -20.222  0.00  0.00    +0.168 C 
ATOM      6  C   UNL     1      35.753 -21.150 -19.505  0.00  0.00    +0.141 C 
ATOM      7  H   UNL     1      31.911 -21.696 -18.355  0.00  0.00    +0.157 HD
ENDROOT
BRANCH   2   9
ATOM      8  C   UNL     1      33.815 -23.997 -15.062  0.00  0.00    +0.107 C 
ATOM      9  C   UNL     1      32.702 -22.754 -16.797  0.00  0.00    +0.087 C 
ATOM     10  C   UNL     1      33.876 -23.231 -16.226  0.00  0.00    +0.036 C 
ATOM     11  C   UNL     1      32.580 -24.281 -14.480  0.00  0.00    +0.022 C 
ATOM     12  C   UNL     1      31.468 -23.033 -16.223  0.00  0.00    +0.152 C 
ATOM     13  C   UNL     1      31.407 -23.800 -15.060  0.00  0.00    +0.040 C 
BRANCH   8  14
ATOM     14  S   UNL     1      35.283 -24.602 -14.336  0.00  0.00    +0.009 S 
ATOM     15  O   UNL     1      35.077 -24.664 -12.895  0.00  0.00    -0.169 OA
ATOM     16  O   UNL     1      35.711 -25.792 -15.057  0.00  0.00    -0.169 OA
BRANCH  14  17
ATOM     17  C   UNL     1      36.490 -23.336 -14.661  0.00  0.00    +0.156 C 
ATOM     18  C   UNL     1      37.895 -23.893 -14.644  0.00  0.00    +0.028 C 
ENDBRANCH  14  17
ENDBRANCH   8  14
BRANCH  12  19
ATOM     19  O   UNL     1      30.311 -22.573 -16.775  0.00  0.00    -0.470 OA
ATOM     20  C   UNL     1      29.119 -22.731 -16.008  0.00  0.00    +0.253 C 
ENDBRANCH  12  19
ENDBRANCH   2   9
BRANCH   5  21
ATOM     21  C   UNL     1      34.874 -19.542 -21.347  0.00  0.00    +0.036 C 
ATOM     22  C   UNL     1      34.789 -17.296 -22.234  0.00  0.00    +0.018 C 
ATOM     23  C   UNL     1      34.748 -18.168 -21.145  0.00  0.00    +0.005 C 
ATOM     24  C   UNL     1      35.040 -20.046 -22.637  0.00  0.00    +0.003 C 
ATOM     25  C   UNL     1      34.956 -17.800 -23.524  0.00  0.00    +0.001 C 
ATOM     26  C   UNL     1      35.082 -19.174 -23.726  0.00  0.00    +0.000 C 
BRANCH  22  28
ATOM     27  N   UNL     1      34.523 -15.142 -23.154  0.00  0.00    -0.244 NA
ATOM     28  C   UNL     1      34.659 -15.871 -22.026  0.00  0.00    +0.081 C 
ATOM     29  C   UNL     1      34.676 -15.335 -20.749  0.00  0.00    +0.019 C 
ATOM     30  C   UNL     1      34.546 -13.957 -20.622  0.00  0.00    +0.003 C 
ATOM     31  C   UNL     1      34.399 -13.805 -22.992  0.00  0.00    +0.099 C 
ATOM     32  C   UNL     1      34.405 -13.170 -21.760  0.00  0.00    +0.021 C 
ENDBRANCH  22  28
ENDBRANCH   5  21
TORSDOF 6
ENDMDL
MODEL 2
REMARK VINA RESULT:     -10.9      1.180      1.348
REMARK  Name = 4369497
REMARK  6 active torsions:
REMARK  status: ('A' for Active; 'I' for Inactive)
REMARK    1  A    between atoms: N_2  and  C_9
REMARK    2  A    between atoms: C_5  and  C_21
REMARK    3  A    between atoms: C_8  and  S_14
REMARK    4  A    between atoms: C_12  and  O_19
REMARK    5  A    between atoms: S_14  and  C_17
REMARK    6  A    between atoms: C_22  and  C_28
REMARK                            x       y       z     vdW  Elec       q    Type
REMARK                         _______ _______ _______ _____ _____    ______ ____
ROOT
ATOM      1  O   UNL     1      34.183 -20.993 -19.473  0.00  0.00    -0.424 OA
ATOM      2  N   UNL     1      33.651 -22.361 -17.706  0.00  0.00    -0.265 N 
ATOM      3  N   UNL     1      35.918 -21.756 -18.239  0.00  0.00    -0.193 NA
ATOM      4  C   UNL     1      34.617 -21.739 -18.420  0.00  0.00    +0.293 C 
ATOM      5  C   UNL     1      35.334 -20.498 -19.995  0.00  0.00    +0.168 C 
ATOM      6  C   UNL     1      36.384 -20.958 -19.252  0.00  0.00    +0.141 C 
ATOM      7  H   UNL     1      32.746 -22.294 -18.086  0.00  0.00    +0.157 HD
ENDROOT
BRANCH   2   9
ATOM      8  C   UNL     1      35.060 -24.353 -14.921  0.00  0.00    +0.107 C 
ATOM      9  C   UNL     1      33.736 -23.097 -16.491  0.00  0.00    +0.087 C 
ATOM     10  C   UNL     1      34.962 -23.629 -16.109  0.00  0.00    +0.036 C 
ATOM     11  C   UNL     1      33.930 -24.539 -14.124  0.00  0.00    +0.022 C 
ATOM     12  C   UNL     1      32.606 -23.279 -15.703  0.00  0.00    +0.152 C 
ATOM     13  C   UNL     1      32.704 -24.003 -14.515  0.00  0.00    +0.040 C 
BRANCH   8  14
ATOM     14  S   UNL     1      36.594 -25.026 -14.431  0.00  0.00    +0.009 S 
ATOM     15  O   UNL     1      36.732 -26.332 -15.061  0.00  0.00    -0.169 OA
ATOM     16  O   UNL     1      37.632 -24.021 -14.616  0.00  0.00    -0.169 OA
BRANCH  14  17
ATOM     17  C   UNL     1      36.426 -25.280 -12.678  0.00  0.00    +0.156 C 
ATOM     18  C   UNL     1      37.555 -26.122 -12.129  0.00  0.00    +0.028 C 
ENDBRANCH  14  17
ENDBRANCH   8  14
BRANCH  12  19
ATOM     19  O   UNL     1      31.399 -22.763 -16.068  0.00  0.00    -0.470 OA
ATOM     20  C   UNL     1      30.248 -23.274 -15.398  0.00  0.00    +0.253 C 
ENDBRANCH  12  19
ENDBRANCH   2   9
BRANCH   5  21
ATOM     21  C   UNL     1      35.190 -19.648 -21.152  0.00  0.00    +0.036 C 
ATOM     22  C   UNL     1      34.894 -17.450 -22.111  0.00  0.00    +0.018 C 
ATOM     23  C   UNL     1      35.036 -18.271 -20.992  0.00  0.00    +0.005 C 
ATOM     24  C   UNL     1      35.201 -20.205 -22.430  0.00  0.00    +0.003 C 
ATOM     25  C   UNL     1      34.906 -18.007 -23.390  0.00  0.00    +0.001 C 
ATOM     26  C   UNL     1      35.060 -19.384 -23.550  0.00  0.00    +0.000 C 
BRANCH  22  28
ATOM     27  N   UNL     1      34.614 -15.326 -23.097  0.00  0.00    -0.244 NA
ATOM     28  C   UNL     1      34.734 -16.022 -21.946  0.00  0.00    +0.081 C 
ATOM     29  C   UNL     1      34.711 -15.451 -20.684  0.00  0.00    +0.019 C 
ATOM     30  C   UNL     1      34.554 -14.072 -20.599  0.00  0.00    +0.003 C 
ATOM     31  C   UNL     1      34.464 -13.988 -22.975  0.00  0.00    +0.099 C 
ATOM     32  C   UNL     1      34.428 -13.320 -21.762  0.00  0.00    +0.021 C 
ENDBRANCH  22  28
ENDBRANCH   5  21
TORSDOF 6
ENDMDL
MODEL 3
REMARK VINA RESULT:     -10.4      2.046      4.401
REMARK  Name = 4369497
REMARK  6 active torsions:
REMARK  status: ('A' for Active; 'I' for Inactive)
REMARK    1  A    between atoms: N_2  and  C_9
REMARK    2  A    between atoms: C_5  and  C_21
REMARK    3  A    between atoms: C_8  and  S_14
REMARK    4  A    between atoms: C_12  and  O_19
REMARK    5  A    between atoms: S_14  and  C_17
REMARK    6  A    between atoms: C_22  and  C_28
REMARK                            x       y       z     vdW  Elec       q    Type
REMARK                         _______ _______ _______ _____ _____    ______ ____
ROOT
ATOM      1  O   UNL     1      34.709 -21.538 -17.820  0.00  0.00    -0.424 OA
ATOM      2  N   UNL     1      33.812 -22.692 -16.048  0.00  0.00    -0.265 N 
ATOM      3  N   UNL     1      32.635 -22.386 -18.124  0.00  0.00    -0.193 NA
ATOM      4  C   UNL     1      33.659 -22.241 -17.314  0.00  0.00    +0.293 C 
ATOM      5  C   UNL     1      34.291 -21.217 -19.071  0.00  0.00    +0.168 C 
ATOM      6  C   UNL     1      33.038 -21.728 -19.258  0.00  0.00    +0.141 C 
ATOM      7  H   UNL     1      34.623 -22.374 -15.590  0.00  0.00    +0.157 HD
ENDROOT
BRANCH   2   9
ATOM      8  C   UNL     1      30.798 -24.420 -14.769  0.00  0.00    +0.107 C 
ATOM      9  C   UNL     1      32.986 -23.555 -15.274  0.00  0.00    +0.087 C 
ATOM     10  C   UNL     1      31.619 -23.579 -15.521  0.00  0.00    +0.036 C 
ATOM     11  C   UNL     1      31.351 -25.228 -13.776  0.00  0.00    +0.022 C 
ATOM     12  C   UNL     1      33.545 -24.356 -14.287  0.00  0.00    +0.152 C 
ATOM     13  C   UNL     1      32.724 -25.197 -13.535  0.00  0.00    +0.040 C 
BRANCH   8  14
ATOM     14  S   UNL     1      29.078 -24.460 -15.070  0.00  0.00    +0.009 S 
ATOM     15  O   UNL     1      28.876 -24.814 -16.467  0.00  0.00    -0.169 OA
ATOM     16  O   UNL     1      28.434 -25.242 -14.024  0.00  0.00    -0.169 OA
BRANCH  14  17
ATOM     17  C   UNL     1      28.553 -22.774 -14.852  0.00  0.00    +0.156 C 
ATOM     18  C   UNL     1      27.272 -22.491 -15.603  0.00  0.00    +0.028 C 
ENDBRANCH  14  17
ENDBRANCH   8  14
BRANCH  12  19
ATOM     19  O   UNL     1      34.884 -24.339 -14.035  0.00  0.00    -0.470 OA
ATOM     20  C   UNL     1      35.660 -25.403 -14.584  0.00  0.00    +0.253 C 
ENDBRANCH  12  19
ENDBRANCH   2   9
BRANCH   5  21
ATOM     21  C   UNL     1      35.217 -20.451 -19.870  0.00  0.00    +0.036 C 
ATOM     22  C   UNL     1      35.636 -18.856 -21.636  0.00  0.00    +0.018 C 
ATOM     23  C   UNL     1      34.740 -19.594 -20.862  0.00  0.00    +0.005 C 
ATOM     24  C   UNL     1      36.590 -20.571 -19.652  0.00  0.00    +0.003 C 
ATOM     25  C   UNL     1      37.008 -18.975 -21.418  0.00  0.00    +0.001 C 
ATOM     26  C   UNL     1      37.485 -19.831 -20.426  0.00  0.00    +0.000 C 
BRANCH  22  28
ATOM     27  N   UNL     1      35.328 -16.652 -22.418  0.00  0.00    -0.244 NA
ATOM     28  C   UNL     1      35.142 -17.967 -22.665  0.00  0.00    +0.081 C 
ATOM     29  C   UNL     1      34.530 -18.467 -23.802  0.00  0.00    +0.019 C 
ATOM     30  C   UNL     1      34.079 -17.555 -24.750  0.00  0.00    +0.003 C 
ATOM     31  C   UNL     1      34.876 -15.796 -23.362  0.00  0.00    +0.099 C 
ATOM     32  C   UNL     1      34.251 -16.193 -24.533  0.00  0.00    +0.021 C 
ENDBRANCH  22  28
ENDBRANCH   5  21
TORSDOF 6
ENDMDL
MODEL 4
REMARK VINA RESULT:     -10.4      6.347     12.073
REMARK  Name = 4369497
REMARK  6 active torsions:
REMARK  status: ('A' for Active; 'I' for Inactive)
REMARK    1  A    between atoms: N_2  and  C_9
REMARK    2  A    between atoms: C_5  and  C_21
REMARK    3  A    between atoms: C_8  and  S_14
REMARK    4  A    between atoms: C_12  and  O_19
REMARK    5  A    between atoms: S_14  and  C_17
REMARK    6  A    between atoms: C_22  and  C_28
REMARK                            x       y       z     vdW  Elec       q    Type
REMARK                         _______ _______ _______ _____ _____    ______ ____
ROOT
ATOM      1  O   UNL     1      33.452 -14.240 -22.560  0.00  0.00    -0.424 OA
ATOM      2  N   UNL     1      32.545 -12.130 -22.511  0.00  0.00    -0.265 N 
ATOM      3  N   UNL     1      34.177 -12.875 -20.909  0.00  0.00    -0.193 NA
ATOM      4  C   UNL     1      33.396 -13.021 -21.955  0.00  0.00    +0.293 C 
ATOM      5  C   UNL     1      34.361 -14.914 -21.811  0.00  0.00    +0.168 C 
ATOM      6  C   UNL     1      34.801 -14.093 -20.812  0.00  0.00    +0.141 C 
ATOM      7  H   UNL     1      31.978 -12.492 -23.231  0.00  0.00    +0.157 HD
ENDROOT
BRANCH   2   9
ATOM      8  C   UNL     1      32.506  -8.449 -22.900  0.00  0.00    +0.107 C 
ATOM      9  C   UNL     1      32.339 -10.752 -22.222  0.00  0.00    +0.087 C 
ATOM     10  C   UNL     1      32.701  -9.803 -23.171  0.00  0.00    +0.036 C 
ATOM     11  C   UNL     1      31.951  -8.054 -21.683  0.00  0.00    +0.022 C 
ATOM     12  C   UNL     1      31.786 -10.367 -21.007  0.00  0.00    +0.152 C 
ATOM     13  C   UNL     1      31.591  -9.013 -20.737  0.00  0.00    +0.040 C 
BRANCH   8  14
ATOM     14  S   UNL     1      32.957  -7.247 -24.084  0.00  0.00    +0.009 S 
ATOM     15  O   UNL     1      32.366  -7.630 -25.359  0.00  0.00    -0.169 OA
ATOM     16  O   UNL     1      32.698  -5.924 -23.536  0.00  0.00    -0.169 OA
BRANCH  14  17
ATOM     17  C   UNL     1      34.723  -7.412 -24.229  0.00  0.00    +0.156 C 
ATOM     18  C   UNL     1      35.416  -7.129 -22.916  0.00  0.00    +0.028 C 
ENDBRANCH  14  17
ENDBRANCH   8  14
BRANCH  12  19
ATOM     19  O   UNL     1      31.428 -11.289 -20.069  0.00  0.00    -0.470 OA
ATOM     20  C   UNL     1      31.910 -11.083 -18.742  0.00  0.00    +0.253 C 
ENDBRANCH  12  19
ENDBRANCH   2   9
BRANCH   5  21
ATOM     21  C   UNL     1      34.637 -16.270 -22.221  0.00  0.00    +0.036 C 
ATOM     22  C   UNL     1      35.037 -18.586 -21.660  0.00  0.00    +0.018 C 
ATOM     23  C   UNL     1      34.768 -17.276 -21.263  0.00  0.00    +0.005 C 
ATOM     24  C   UNL     1      34.777 -16.574 -23.575  0.00  0.00    +0.003 C 
ATOM     25  C   UNL     1      35.176 -18.890 -23.014  0.00  0.00    +0.001 C 
ATOM     26  C   UNL     1      35.045 -17.884 -23.972  0.00  0.00    +0.000 C 
BRANCH  22  28
ATOM     27  N   UNL     1      36.420 -19.782 -20.170  0.00  0.00    -0.244 NA
ATOM     28  C   UNL     1      35.173 -19.630 -20.667  0.00  0.00    +0.081 C 
ATOM     29  C   UNL     1      34.082 -20.391 -20.283  0.00  0.00    +0.019 C 
ATOM     30  C   UNL     1      34.285 -21.377 -19.324  0.00  0.00    +0.003 C 
ATOM     31  C   UNL     1      36.579 -20.750 -19.240  0.00  0.00    +0.099 C 
ATOM     32  C   UNL     1      35.554 -21.567 -18.788  0.00  0.00    +0.021 C 
ENDBRANCH  22  28
ENDBRANCH   5  21
TORSDOF 6
ENDMDL
MODEL 5
REMARK VINA RESULT:     -10.0      2.320      3.293
REMARK  Name = 4369497
REMARK  6 active torsions:
REMARK  status: ('A' for Active; 'I' for Inactive)
REMARK    1  A    between atoms: N_2  and  C_9
REMARK    2  A    between atoms: C_5  and  C_21
REMARK    3  A    between atoms: C_8  and  S_14
REMARK    4  A    between atoms: C_12  and  O_19
REMARK    5  A    between atoms: S_14  and  C_17
REMARK    6  A    between atoms: C_22  and  C_28
REMARK                            x       y       z     vdW  Elec       q    Type
REMARK                         _______ _______ _______ _____ _____    ______ ____
ROOT
ATOM      1  O   UNL     1      36.249 -21.152 -17.937  0.00  0.00    -0.424 OA
ATOM      2  N   UNL     1      36.016 -22.317 -15.971  0.00  0.00    -0.265 N 
ATOM      3  N   UNL     1      34.709 -22.808 -17.930  0.00  0.00    -0.193 NA
ATOM      4  C   UNL     1      35.620 -22.147 -17.253  0.00  0.00    +0.293 C 
ATOM      5  C   UNL     1      35.668 -21.205 -19.162  0.00  0.00    +0.168 C 
ATOM      6  C   UNL     1      34.737 -22.204 -19.162  0.00  0.00    +0.141 C 
ATOM      7  H   UNL     1      36.642 -21.636 -15.637  0.00  0.00    +0.157 HD
ENDROOT
BRANCH   2   9
ATOM      8  C   UNL     1      36.337 -25.188 -13.655  0.00  0.00    +0.107 C 
ATOM      9  C   UNL     1      35.671 -23.328 -15.030  0.00  0.00    +0.087 C 
ATOM     10  C   UNL     1      36.661 -24.193 -14.577  0.00  0.00    +0.036 C 
ATOM     11  C   UNL     1      35.026 -25.310 -13.194  0.00  0.00    +0.022 C 
ATOM     12  C   UNL     1      34.364 -23.443 -14.575  0.00  0.00    +0.152 C 
ATOM     13  C   UNL     1      34.040 -24.439 -13.653  0.00  0.00    +0.040 C 
BRANCH   8  14
ATOM     14  S   UNL     1      37.571 -26.281 -13.080  0.00  0.00    +0.009 S 
ATOM     15  O   UNL     1      37.231 -26.662 -11.716  0.00  0.00    -0.169 OA
ATOM     16  O   UNL     1      37.795 -27.311 -14.084  0.00  0.00    -0.169 OA
BRANCH  14  17
ATOM     17  C   UNL     1      39.046 -25.288 -13.018  0.00  0.00    +0.156 C 
ATOM     18  C   UNL     1      40.109 -25.816 -13.956  0.00  0.00    +0.028 C 
ENDBRANCH  14  17
ENDBRANCH   8  14
BRANCH  12  19
ATOM     19  O   UNL     1      33.386 -22.602 -15.013  0.00  0.00    -0.470 OA
ATOM     20  C   UNL     1      32.091 -23.164 -15.219  0.00  0.00    +0.253 C 
ENDBRANCH  12  19
ENDBRANCH   2   9
BRANCH   5  21
ATOM     21  C   UNL     1      36.143 -20.244 -20.129  0.00  0.00    +0.036 C 
ATOM     22  C   UNL     1      35.756 -18.873 -22.080  0.00  0.00    +0.018 C 
ATOM     23  C   UNL     1      35.296 -19.800 -21.144  0.00  0.00    +0.005 C 
ATOM     24  C   UNL     1      37.449 -19.764 -20.050  0.00  0.00    +0.003 C 
ATOM     25  C   UNL     1      37.062 -18.392 -22.001  0.00  0.00    +0.001 C 
ATOM     26  C   UNL     1      37.909 -18.836 -20.985  0.00  0.00    +0.000 C 
BRANCH  22  28
ATOM     27  N   UNL     1      34.965 -17.092 -23.408  0.00  0.00    -0.244 NA
ATOM     28  C   UNL     1      34.878 -18.411 -23.134  0.00  0.00    +0.081 C 
ATOM     29  C   UNL     1      34.029 -19.289 -23.787  0.00  0.00    +0.019 C 
ATOM     30  C   UNL     1      33.213 -18.777 -24.789  0.00  0.00    +0.003 C 
ATOM     31  C   UNL     1      34.156 -16.630 -24.388  0.00  0.00    +0.099 C 
ATOM     32  C   UNL     1      33.271 -17.423 -25.101  0.00  0.00    +0.021 C 
ENDBRANCH  22  28
ENDBRANCH   5  21
TORSDOF 6
ENDMDL
MODEL 6
REMARK VINA RESULT:      -9.9      3.558     10.044
REMARK  Name = 4369497
REMARK  6 active torsions:
REMARK  status: ('A' for Active; 'I' for Inactive)
REMARK    1  A    between atoms: N_2  and  C_9
REMARK    2  A    between atoms: C_5  and  C_21
REMARK    3  A    between atoms: C_8  and  S_14
REMARK    4  A    between atoms: C_12  and  O_19
REMARK    5  A    between atoms: S_14  and  C_17
REMARK    6  A    between atoms: C_22  and  C_28
REMARK                            x       y       z     vdW  Elec       q    Type
REMARK                         _______ _______ _______ _____ _____    ______ ____
ROOT
ATOM      1  O   UNL     1      34.969 -20.486 -19.047  0.00  0.00    -0.424 OA
ATOM      2  N   UNL     1      35.309 -18.883 -20.656  0.00  0.00    -0.265 N 
ATOM      3  N   UNL     1      33.329 -20.247 -20.585  0.00  0.00    -0.193 NA
ATOM      4  C   UNL     1      34.502 -19.845 -20.153  0.00  0.00    +0.293 C 
ATOM      5  C   UNL     1      33.983 -21.376 -18.767  0.00  0.00    +0.168 C 
ATOM      6  C   UNL     1      32.991 -21.234 -19.694  0.00  0.00    +0.141 C 
ATOM      7  H   UNL     1      36.195 -18.821 -20.232  0.00  0.00    +0.157 HD
ENDROOT
BRANCH   2   9
ATOM      8  C   UNL     1      34.640 -15.680 -22.389  0.00  0.00    +0.107 C 
ATOM      9  C   UNL     1      35.078 -17.944 -21.701  0.00  0.00    +0.087 C 
ATOM     10  C   UNL     1      34.867 -16.610 -21.374  0.00  0.00    +0.036 C 
ATOM     11  C   UNL     1      34.624 -16.092 -23.721  0.00  0.00    +0.022 C 
ATOM     12  C   UNL     1      35.064 -18.363 -23.026  0.00  0.00    +0.152 C 
ATOM     13  C   UNL     1      34.836 -17.433 -24.040  0.00  0.00    +0.040 C 
BRANCH   8  14
ATOM     14  S   UNL     1      34.373 -14.001 -21.991  0.00  0.00    +0.009 S 
ATOM     15  O   UNL     1      35.163 -13.690 -20.808  0.00  0.00    -0.169 OA
ATOM     16  O   UNL     1      34.529 -13.199 -23.196  0.00  0.00    -0.169 OA
BRANCH  14  17
ATOM     17  C   UNL     1      32.655 -13.923 -21.536  0.00  0.00    +0.156 C 
ATOM     18  C   UNL     1      32.475 -13.984 -20.035  0.00  0.00    +0.028 C 
ENDBRANCH  14  17
ENDBRANCH   8  14
BRANCH  12  19
ATOM     19  O   UNL     1      35.268 -19.669 -23.358  0.00  0.00    -0.470 OA
ATOM     20  C   UNL     1      34.640 -20.140 -24.548  0.00  0.00    +0.253 C 
ENDBRANCH  12  19
ENDBRANCH   2   9
BRANCH   5  21
ATOM     21  C   UNL     1      34.201 -22.220 -17.617  0.00  0.00    +0.036 C 
ATOM     22  C   UNL     1      33.324 -23.554 -15.803  0.00  0.00    +0.018 C 
ATOM     23  C   UNL     1      33.112 -22.740 -16.916  0.00  0.00    +0.005 C 
ATOM     24  C   UNL     1      35.500 -22.514 -17.205  0.00  0.00    +0.003 C 
ATOM     25  C   UNL     1      34.623 -23.848 -15.392  0.00  0.00    +0.001 C 
ATOM     26  C   UNL     1      35.712 -23.329 -16.093  0.00  0.00    +0.000 C 
BRANCH  22  28
ATOM     27  N   UNL     1      31.010 -24.004 -15.719  0.00  0.00    -0.244 NA
ATOM     28  C   UNL     1      32.195 -24.093 -15.076  0.00  0.00    +0.081 C 
ATOM     29  C   UNL     1      32.360 -24.649 -13.819  0.00  0.00    +0.019 C 
ATOM     30  C   UNL     1      31.232 -25.148 -13.177  0.00  0.00    +0.003 C 
ATOM     31  C   UNL     1      29.936 -24.499 -15.064  0.00  0.00    +0.099 C 
ATOM     32  C   UNL     1      29.993 -25.075 -13.805  0.00  0.00    +0.021 C 
ENDBRANCH  22  28
ENDBRANCH   5  21
TORSDOF 6
ENDMDL
MODEL 7
REMARK VINA RESULT:      -9.9      2.024      4.121
REMARK  Name = 4369497
REMARK  6 active torsions:
REMARK  status: ('A' for Active; 'I' for Inactive)
REMARK    1  A    between atoms: N_2  and  C_9
REMARK    2  A    between atoms: C_5  and  C_21
REMARK    3  A    between atoms: C_8  and  S_14
REMARK    4  A    between atoms: C_12  and  O_19
REMARK    5  A    between atoms: S_14  and  C_17
REMARK    6  A    between atoms: C_22  and  C_28
REMARK                            x       y       z     vdW  Elec       q    Type
REMARK                         _______ _______ _______ _____ _____    ______ ____
ROOT
ATOM      1  O   UNL     1      35.595 -21.229 -18.101  0.00  0.00    -0.424 OA
ATOM      2  N   UNL     1      35.091 -22.438 -16.214  0.00  0.00    -0.265 N 
ATOM      3  N   UNL     1      33.653 -22.387 -18.142  0.00  0.00    -0.193 NA
ATOM      4  C   UNL     1      34.728 -22.061 -17.461  0.00  0.00    +0.293 C 
ATOM      5  C   UNL     1      34.994 -21.020 -19.299  0.00  0.00    +0.168 C 
ATOM      6  C   UNL     1      33.820 -21.718 -19.327  0.00  0.00    +0.141 C 
ATOM      7  H   UNL     1      35.891 -21.986 -15.861  0.00  0.00    +0.157 HD
ENDROOT
BRANCH   2   9
ATOM      8  C   UNL     1      32.571 -24.155 -14.113  0.00  0.00    +0.107 C 
ATOM      9  C   UNL     1      34.499 -23.384 -15.331  0.00  0.00    +0.087 C 
ATOM     10  C   UNL     1      33.163 -23.234 -14.978  0.00  0.00    +0.036 C 
ATOM     11  C   UNL     1      33.320 -25.217 -13.608  0.00  0.00    +0.022 C 
ATOM     12  C   UNL     1      35.252 -24.439 -14.831  0.00  0.00    +0.152 C 
ATOM     13  C   UNL     1      34.660 -25.360 -13.966  0.00  0.00    +0.040 C 
BRANCH   8  14
ATOM     14  S   UNL     1      30.894 -23.977 -13.663  0.00  0.00    +0.009 S 
ATOM     15  O   UNL     1      30.780 -24.260 -12.239  0.00  0.00    -0.169 OA
ATOM     16  O   UNL     1      30.394 -22.716 -14.192  0.00  0.00    -0.169 OA
BRANCH  14  17
ATOM     17  C   UNL     1      30.059 -25.276 -14.547  0.00  0.00    +0.156 C 
ATOM     18  C   UNL     1      29.024 -24.722 -15.499  0.00  0.00    +0.028 C 
ENDBRANCH  14  17
ENDBRANCH   8  14
BRANCH  12  19
ATOM     19  O   UNL     1      36.563 -24.596 -15.169  0.00  0.00    -0.470 OA
ATOM     20  C   UNL     1      37.318 -25.542 -14.415  0.00  0.00    +0.253 C 
ENDBRANCH  12  19
ENDBRANCH   2   9
BRANCH   5  21
ATOM     21  C   UNL     1      35.695 -20.155 -20.217  0.00  0.00    +0.036 C 
ATOM     22  C   UNL     1      35.668 -18.619 -22.082  0.00  0.00    +0.018 C 
ATOM     23  C   UNL     1      34.989 -19.453 -21.194  0.00  0.00    +0.005 C 
ATOM     24  C   UNL     1      37.081 -20.023 -20.128  0.00  0.00    +0.003 C 
ATOM     25  C   UNL     1      37.053 -18.486 -21.993  0.00  0.00    +0.001 C 
ATOM     26  C   UNL     1      37.760 -19.188 -21.016  0.00  0.00    +0.000 C 
BRANCH  22  28
ATOM     27  N   UNL     1      35.057 -16.547 -23.028  0.00  0.00    -0.244 NA
ATOM     28  C   UNL     1      34.936 -17.891 -23.095  0.00  0.00    +0.081 C 
ATOM     29  C   UNL     1      34.180 -18.559 -24.044  0.00  0.00    +0.019 C 
ATOM     30  C   UNL     1      33.502 -17.796 -24.988  0.00  0.00    +0.003 C 
ATOM     31  C   UNL     1      34.383 -15.839 -23.963  0.00  0.00    +0.099 C 
ATOM     32  C   UNL     1      33.600 -16.410 -24.953  0.00  0.00    +0.021 C 
ENDBRANCH  22  28
ENDBRANCH   5  21
TORSDOF 6
ENDMDL
MODEL 8
REMARK VINA RESULT:      -9.8      5.565     10.282
REMARK  Name = 4369497
REMARK  6 active torsions:
REMARK  status: ('A' for Active; 'I' for Inactive)
REMARK    1  A    between atoms: N_2  and  C_9
REMARK    2  A    between atoms: C_5  and  C_21
REMARK    3  A    between atoms: C_8  and  S_14
REMARK    4  A    between atoms: C_12  and  O_19
REMARK    5  A    between atoms: S_14  and  C_17
REMARK    6  A    between atoms: C_22  and  C_28
REMARK                            x       y       z     vdW  Elec       q    Type
REMARK                         _______ _______ _______ _____ _____    ______ ____
ROOT
ATOM      1  O   UNL     1      33.782 -11.607 -22.853  0.00  0.00    -0.424 OA
ATOM      2  N   UNL     1      34.599 -13.711 -23.282  0.00  0.00    -0.265 N 
ATOM      3  N   UNL     1      32.460 -13.338 -22.247  0.00  0.00    -0.193 NA
ATOM      4  C   UNL     1      33.594 -12.954 -22.786  0.00  0.00    +0.293 C 
ATOM      5  C   UNL     1      32.648 -11.109 -22.298  0.00  0.00    +0.168 C 
ATOM      6  C   UNL     1      31.847 -12.153 -21.931  0.00  0.00    +0.141 C 
ATOM      7  H   UNL     1      35.405 -13.210 -23.543  0.00  0.00    +0.157 HD
ENDROOT
BRANCH   2   9
ATOM      8  C   UNL     1      35.253 -17.301 -22.661  0.00  0.00    +0.107 C 
ATOM      9  C   UNL     1      34.675 -15.117 -23.489  0.00  0.00    +0.087 C 
ATOM     10  C   UNL     1      35.173 -15.922 -22.471  0.00  0.00    +0.036 C 
ATOM     11  C   UNL     1      34.836 -17.864 -23.867  0.00  0.00    +0.022 C 
ATOM     12  C   UNL     1      34.257 -15.670 -24.693  0.00  0.00    +0.152 C 
ATOM     13  C   UNL     1      34.338 -17.049 -24.883  0.00  0.00    +0.040 C 
BRANCH   8  14
ATOM     14  S   UNL     1      35.877 -18.323 -21.390  0.00  0.00    +0.009 S 
ATOM     15  O   UNL     1      37.263 -18.636 -21.707  0.00  0.00    -0.169 OA
ATOM     16  O   UNL     1      35.546 -17.730 -20.102  0.00  0.00    -0.169 OA
BRANCH  14  17
ATOM     17  C   UNL     1      34.933 -19.825 -21.527  0.00  0.00    +0.156 C 
ATOM     18  C   UNL     1      34.034 -20.026 -20.328  0.00  0.00    +0.028 C 
ENDBRANCH  14  17
ENDBRANCH   8  14
BRANCH  12  19
ATOM     19  O   UNL     1      33.769 -14.890 -25.698  0.00  0.00    -0.470 OA
ATOM     20  C   UNL     1      32.409 -14.473 -25.592  0.00  0.00    +0.253 C 
ENDBRANCH  12  19
ENDBRANCH   2   9
BRANCH   5  21
ATOM     21  C   UNL     1      32.556  -9.671 -22.228  0.00  0.00    +0.036 C 
ATOM     22  C   UNL     1      33.017  -7.495 -23.173  0.00  0.00    +0.018 C 
ATOM     23  C   UNL     1      33.104  -8.886 -23.243  0.00  0.00    +0.005 C 
ATOM     24  C   UNL     1      31.923  -9.066 -21.143  0.00  0.00    +0.003 C 
ATOM     25  C   UNL     1      32.383  -6.890 -22.088  0.00  0.00    +0.001 C 
ATOM     26  C   UNL     1      31.835  -7.675 -21.074  0.00  0.00    +0.000 C 
BRANCH  22  28
ATOM     27  N   UNL     1      32.710  -6.288 -25.175  0.00  0.00    -0.244 NA
ATOM     28  C   UNL     1      33.585  -6.681 -24.225  0.00  0.00    +0.081 C 
ATOM     29  C   UNL     1      34.931  -6.351 -24.220  0.00  0.00    +0.019 C 
ATOM     30  C   UNL     1      35.409  -5.565 -25.262  0.00  0.00    +0.003 C 
ATOM     31  C   UNL     1      33.211  -5.525 -26.173  0.00  0.00    +0.099 C 
ATOM     32  C   UNL     1      34.539  -5.140 -26.261  0.00  0.00    +0.021 C 
ENDBRANCH  22  28
ENDBRANCH   5  21
TORSDOF 6
ENDMDL
MODEL 9
REMARK VINA RESULT:      -9.7      5.220      9.809
REMARK  Name = 4369497
REMARK  6 active torsions:
REMARK  status: ('A' for Active; 'I' for Inactive)
REMARK    1  A    between atoms: N_2  and  C_9
REMARK    2  A    between atoms: C_5  and  C_21
REMARK    3  A    between atoms: C_8  and  S_14
REMARK    4  A    between atoms: C_12  and  O_19
REMARK    5  A    between atoms: S_14  and  C_17
REMARK    6  A    between atoms: C_22  and  C_28
REMARK                            x       y       z     vdW  Elec       q    Type
REMARK                         _______ _______ _______ _____ _____    ______ ____
ROOT
ATOM      1  O   UNL     1      33.450 -12.184 -21.554  0.00  0.00    -0.424 OA
ATOM      2  N   UNL     1      34.430 -14.075 -22.414  0.00  0.00    -0.265 N 
ATOM      3  N   UNL     1      32.335 -14.124 -21.232  0.00  0.00    -0.193 NA
ATOM      4  C   UNL     1      33.392 -13.531 -21.738  0.00  0.00    +0.293 C 
ATOM      5  C   UNL     1      32.312 -11.917 -20.864  0.00  0.00    +0.168 C 
ATOM      6  C   UNL     1      31.636 -13.088 -20.668  0.00  0.00    +0.141 C 
ATOM      7  H   UNL     1      35.168 -13.454 -22.610  0.00  0.00    +0.157 HD
ENDROOT
BRANCH   2   9
ATOM      8  C   UNL     1      35.182 -17.700 -22.441  0.00  0.00    +0.107 C 
ATOM      9  C   UNL     1      34.622 -15.402 -22.890  0.00  0.00    +0.087 C 
ATOM     10  C   UNL     1      34.989 -16.395 -21.988  0.00  0.00    +0.036 C 
ATOM     11  C   UNL     1      35.007 -18.002 -23.792  0.00  0.00    +0.022 C 
ATOM     12  C   UNL     1      34.446 -15.695 -24.236  0.00  0.00    +0.152 C 
ATOM     13  C   UNL     1      34.639 -17.000 -24.689  0.00  0.00    +0.040 C 
BRANCH   8  14
ATOM     14  S   UNL     1      35.643 -18.955 -21.319  0.00  0.00    +0.009 S 
ATOM     15  O   UNL     1      36.126 -20.091 -22.091  0.00  0.00    -0.169 OA
ATOM     16  O   UNL     1      36.484 -18.375 -20.281  0.00  0.00    -0.169 OA
BRANCH  14  17
ATOM     17  C   UNL     1      34.116 -19.433 -20.540  0.00  0.00    +0.156 C 
ATOM     18  C   UNL     1      34.256 -20.749 -19.808  0.00  0.00    +0.028 C 
ENDBRANCH  14  17
ENDBRANCH   8  14
BRANCH  12  19
ATOM     19  O   UNL     1      34.088 -14.730 -25.129  0.00  0.00    -0.470 OA
ATOM     20  C   UNL     1      32.712 -14.668 -25.499  0.00  0.00    +0.253 C 
ENDBRANCH  12  19
ENDBRANCH   2   9
BRANCH   5  21
ATOM     21  C   UNL     1      32.092 -10.534 -20.516  0.00  0.00    +0.036 C 
ATOM     22  C   UNL     1      31.790  -8.231 -21.179  0.00  0.00    +0.018 C 
ATOM     23  C   UNL     1      32.000  -9.568 -21.518  0.00  0.00    +0.005 C 
ATOM     24  C   UNL     1      31.976 -10.164 -19.176  0.00  0.00    +0.003 C 
ATOM     25  C   UNL     1      31.672  -7.861 -19.840  0.00  0.00    +0.001 C 
ATOM     26  C   UNL     1      31.764  -8.827 -18.838  0.00  0.00    +0.000 C 
BRANCH  22  28
ATOM     27  N   UNL     1      32.343  -6.074 -21.955  0.00  0.00    -0.244 NA
ATOM     28  C   UNL     1      31.694  -7.228 -22.218  0.00  0.00    +0.081 C 
ATOM     29  C   UNL     1      30.981  -7.474 -23.379  0.00  0.00    +0.019 C 
ATOM     30  C   UNL     1      30.931  -6.465 -24.335  0.00  0.00    +0.003 C 
ATOM     31  C   UNL     1      32.272  -5.116 -22.907  0.00  0.00    +0.099 C 
ATOM     32  C   UNL     1      31.586  -5.261 -24.102  0.00  0.00    +0.021 C 
ENDBRANCH  22  28
ENDBRANCH   5  21
TORSDOF 6
ENDMDL
