MODEL 1
REMARK VINA RESULT:     -12.7      0.000      0.000
REMARK  Name = 10074640
REMARK  6 active torsions:
REMARK  status: ('A' for Active; 'I' for Inactive)
REMARK    1  A    between atoms: N_2  and  C_5
REMARK    2  A    between atoms: C_3  and  C_30
REMARK    3  A    between atoms: C_6  and  N_13
REMARK    4  A    between atoms: C_16  and  C_20
REMARK    5  A    between atoms: C_25  and  C_31
REMARK    6  A    between atoms: C_31  and  N_32
REMARK                            x       y       z     vdW  Elec       q    Type
REMARK                         _______ _______ _______ _____ _____    ______ ____
ROOT
ATOM      1  O   UNL     1      33.834 -23.840 -18.588  0.00  0.00    -0.270 OA
ATOM      2  N   UNL     1      33.284 -22.173 -17.032  0.00  0.00    -0.280 N 
ATOM      3  C   UNL     1      33.809 -22.649 -18.241  0.00  0.00    +0.249 C 
ATOM      4  H   UNL     1      33.335 -21.199 -16.898  0.00  0.00    +0.155 HD
ENDROOT
BRANCH   2   5
ATOM      5  C   UNL     1      32.689 -22.910 -15.979  0.00  0.00    +0.052 C 
ATOM      6  C   UNL     1      32.770 -23.753 -13.737  0.00  0.00    +0.048 C 
ATOM      7  C   UNL     1      33.358 -23.028 -14.773  0.00  0.00    +0.029 C 
ATOM      8  C   UNL     1      31.523 -24.349 -13.921  0.00  0.00    -0.008 C 
ATOM      9  C   UNL     1      31.450 -23.495 -16.180  0.00  0.00    +0.014 C 
ATOM     10  C   UNL     1      30.863 -24.220 -15.144  0.00  0.00    -0.002 C 
ATOM     11  C   UNL     1      30.872 -25.132 -12.829  0.00  0.00    +0.032 C 
BRANCH   6  13
ATOM     12  S   UNL     1      35.258 -24.430 -10.634  0.00  0.00    -0.059 S 
ATOM     13  N   UNL     1      33.452 -23.873 -12.506  0.00  0.00    -0.283 N 
ATOM     14  N   UNL     1      35.675 -24.312 -13.183  0.00  0.00    -0.384 NA
ATOM     15  C   UNL     1      34.760 -24.185 -12.254  0.00  0.00    +0.211 C 
ATOM     16  C   UNL     1      36.876 -24.630 -12.577  0.00  0.00    +0.124 C 
ATOM     17  C   UNL     1      36.847 -24.737 -11.203  0.00  0.00    +0.125 C 
ATOM     18  H   UNL     1      32.902 -23.706 -11.706  0.00  0.00    +0.155 HD
BRANCH  16  20
ATOM     19  N   UNL     1      39.443 -24.211 -15.232  0.00  0.00    -0.242 NA
ATOM     20  C   UNL     1      38.072 -24.833 -13.342  0.00  0.00    +0.046 C 
ATOM     21  C   UNL     1      39.000 -25.801 -12.976  0.00  0.00    +0.005 C 
ATOM     22  C   UNL     1      38.336 -24.071 -14.468  0.00  0.00    +0.101 C 
ATOM     23  C   UNL     1      40.151 -25.975 -13.737  0.00  0.00    +0.021 C 
ATOM     24  C   UNL     1      40.323 -25.162 -14.846  0.00  0.00    +0.099 C 
ENDBRANCH  16  20
ENDBRANCH   6  13
ENDBRANCH   2   5
BRANCH   3  30
ATOM     25  C   UNL     1      35.482 -19.726 -20.802  0.00  0.00    -0.043 C 
ATOM     26  C   UNL     1      36.321 -20.523 -20.035  0.00  0.00    -0.006 C 
ATOM     27  C   UNL     1      34.103 -19.874 -20.742  0.00  0.00    -0.006 C 
ATOM     28  C   UNL     1      35.768 -21.487 -19.191  0.00  0.00    +0.004 C 
ATOM     29  C   UNL     1      33.552 -20.838 -19.899  0.00  0.00    +0.004 C 
ATOM     30  C   UNL     1      34.384 -21.644 -19.123  0.00  0.00    +0.054 C 
BRANCH  25  31
ATOM     31  C   UNL     1      36.078 -18.687 -21.715  0.00  0.00    -0.050 C 
BRANCH  31  32
ATOM     32  N   UNL     1      35.158 -17.574 -21.945  0.00  0.00    +0.387 N 
ATOM     33  N   UNL     1      34.554 -14.824 -22.600  0.00  0.00    +0.383 N 
ATOM     34  C   UNL     1      35.397 -16.492 -20.983  0.00  0.00    -0.100 C 
ATOM     35  C   UNL     1      35.279 -17.073 -23.319  0.00  0.00    -0.100 C 
ATOM     36  C   UNL     1      34.435 -15.324 -21.225  0.00  0.00    -0.101 C 
ATOM     37  C   UNL     1      34.315 -15.907 -23.561  0.00  0.00    -0.101 C 
ATOM     38  C   UNL     1      33.633 -13.713 -22.830  0.00  0.00    -0.101 C 
ATOM     39  H   UNL     1      34.207 -17.919 -21.811  0.00  0.00    -0.079 HD
ATOM     40  H   UNL     1      35.504 -14.477 -22.735  0.00  0.00    -0.080 HD
ENDBRANCH  31  32
ENDBRANCH  25  31
ENDBRANCH   3  30
TORSDOF 6
ENDMDL
MODEL 2
REMARK VINA RESULT:     -10.3      1.748      5.175
REMARK  Name = 10074640
REMARK  6 active torsions:
REMARK  status: ('A' for Active; 'I' for Inactive)
REMARK    1  A    between atoms: N_2  and  C_5
REMARK    2  A    between atoms: C_3  and  C_30
REMARK    3  A    between atoms: C_6  and  N_13
REMARK    4  A    between atoms: C_16  and  C_20
REMARK    5  A    between atoms: C_25  and  C_31
REMARK    6  A    between atoms: C_31  and  N_32
REMARK                            x       y       z     vdW  Elec       q    Type
REMARK                         _______ _______ _______ _____ _____    ______ ____
ROOT
ATOM      1  O   UNL     1      34.375 -22.914 -18.110  0.00  0.00    -0.270 OA
ATOM      2  N   UNL     1      36.182 -21.920 -16.992  0.00  0.00    -0.280 N 
ATOM      3  C   UNL     1      35.264 -22.050 -18.043  0.00  0.00    +0.249 C 
ATOM      4  H   UNL     1      36.830 -21.184 -17.080  0.00  0.00    +0.155 HD
ENDROOT
BRANCH   2   5
ATOM      5  C   UNL     1      36.299 -22.708 -15.822  0.00  0.00    +0.052 C 
ATOM      6  C   UNL     1      35.412 -23.436 -13.717  0.00  0.00    +0.048 C 
ATOM      7  C   UNL     1      35.296 -22.659 -14.869  0.00  0.00    +0.029 C 
ATOM      8  C   UNL     1      36.528 -24.251 -13.534  0.00  0.00    -0.008 C 
ATOM      9  C   UNL     1      37.415 -23.512 -15.657  0.00  0.00    +0.014 C 
ATOM     10  C   UNL     1      37.531 -24.289 -14.505  0.00  0.00    -0.002 C 
ATOM     11  C   UNL     1      36.679 -25.093 -12.310  0.00  0.00    +0.032 C 
BRANCH   6  13
ATOM     12  S   UNL     1      32.039 -23.120 -11.526  0.00  0.00    -0.059 S 
ATOM     13  N   UNL     1      34.388 -23.387 -12.745  0.00  0.00    -0.283 N 
ATOM     14  N   UNL     1      32.422 -23.508 -14.054  0.00  0.00    -0.384 NA
ATOM     15  C   UNL     1      33.030 -23.360 -12.902  0.00  0.00    +0.211 C 
ATOM     16  C   UNL     1      31.059 -23.427 -13.845  0.00  0.00    +0.124 C 
ATOM     17  C   UNL     1      30.660 -23.219 -12.541  0.00  0.00    +0.125 C 
ATOM     18  H   UNL     1      34.700 -23.369 -11.811  0.00  0.00    +0.155 HD
BRANCH  16  20
ATOM     19  N   UNL     1      29.036 -22.555 -16.839  0.00  0.00    -0.242 NA
ATOM     20  C   UNL     1      30.125 -23.553 -14.926  0.00  0.00    +0.046 C 
ATOM     21  C   UNL     1      29.417 -24.731 -15.127  0.00  0.00    +0.005 C 
ATOM     22  C   UNL     1      29.901 -22.502 -15.801  0.00  0.00    +0.101 C 
ATOM     23  C   UNL     1      28.518 -24.824 -16.184  0.00  0.00    +0.021 C 
ATOM     24  C   UNL     1      28.365 -23.717 -17.003  0.00  0.00    +0.099 C 
ENDBRANCH  16  20
ENDBRANCH   6  13
ENDBRANCH   2   5
BRANCH   3  30
ATOM     25  C   UNL     1      35.681 -19.288 -21.220  0.00  0.00    -0.043 C 
ATOM     26  C   UNL     1      34.435 -19.839 -20.952  0.00  0.00    -0.006 C 
ATOM     27  C   UNL     1      36.792 -19.629 -20.460  0.00  0.00    -0.006 C 
ATOM     28  C   UNL     1      34.298 -20.750 -19.904  0.00  0.00    +0.004 C 
ATOM     29  C   UNL     1      36.654 -20.539 -19.413  0.00  0.00    +0.004 C 
ATOM     30  C   UNL     1      35.408 -21.099 -19.135  0.00  0.00    +0.054 C 
BRANCH  25  31
ATOM     31  C   UNL     1      35.829 -18.303 -22.350  0.00  0.00    -0.050 C 
BRANCH  31  32
ATOM     32  N   UNL     1      34.946 -17.150 -22.184  0.00  0.00    +0.387 N 
ATOM     33  N   UNL     1      34.425 -14.314 -21.965  0.00  0.00    +0.383 N 
ATOM     34  C   UNL     1      35.284 -16.405 -20.965  0.00  0.00    -0.100 C 
ATOM     35  C   UNL     1      35.013 -16.270 -23.357  0.00  0.00    -0.100 C 
ATOM     36  C   UNL     1      34.360 -15.194 -20.792  0.00  0.00    -0.101 C 
ATOM     37  C   UNL     1      34.088 -15.060 -23.184  0.00  0.00    -0.101 C 
ATOM     38  C   UNL     1      33.541 -13.163 -21.801  0.00  0.00    -0.101 C 
ATOM     39  H   UNL     1      33.990 -17.496 -22.096  0.00  0.00    -0.079 HD
ATOM     40  H   UNL     1      35.380 -13.967 -22.054  0.00  0.00    -0.080 HD
ENDBRANCH  31  32
ENDBRANCH  25  31
ENDBRANCH   3  30
TORSDOF 6
ENDMDL
MODEL 3
REMARK VINA RESULT:     -10.2      2.564      5.661
REMARK  Name = 10074640
REMARK  6 active torsions:
REMARK  status: ('A' for Active; 'I' for Inactive)
REMARK    1  A    between atoms: N_2  and  C_5
REMARK    2  A    between atoms: C_3  and  C_30
REMARK    3  A    between atoms: C_6  and  N_13
REMARK    4  A    between atoms: C_16  and  C_20
REMARK    5  A    between atoms: C_25  and  C_31
REMARK    6  A    between atoms: C_31  and  N_32
REMARK                            x       y       z     vdW  Elec       q    Type
REMARK                         _______ _______ _______ _____ _____    ______ ____
ROOT
ATOM      1  O   UNL     1      36.462 -18.202 -20.568  0.00  0.00    -0.270 OA
ATOM      2  N   UNL     1      34.285 -18.997 -20.937  0.00  0.00    -0.280 N 
ATOM      3  C   UNL     1      35.327 -18.066 -21.053  0.00  0.00    +0.249 C 
ATOM      4  H   UNL     1      33.440 -18.749 -21.377  0.00  0.00    +0.155 HD
ENDROOT
BRANCH   2   5
ATOM      5  C   UNL     1      34.290 -20.246 -20.270  0.00  0.00    +0.052 C 
ATOM      6  C   UNL     1      33.249 -21.795 -18.765  0.00  0.00    +0.048 C 
ATOM      7  C   UNL     1      33.244 -20.563 -19.420  0.00  0.00    +0.029 C 
ATOM      8  C   UNL     1      34.298 -22.690 -18.969  0.00  0.00    -0.008 C 
ATOM      9  C   UNL     1      35.340 -21.123 -20.485  0.00  0.00    +0.014 C 
ATOM     10  C   UNL     1      35.345 -22.354 -19.830  0.00  0.00    -0.002 C 
ATOM     11  C   UNL     1      34.329 -24.014 -18.280  0.00  0.00    +0.032 C 
BRANCH   6  13
ATOM     12  S   UNL     1      30.716 -23.147 -15.931  0.00  0.00    -0.059 S 
ATOM     13  N   UNL     1      32.182 -22.119 -17.898  0.00  0.00    -0.283 N 
ATOM     14  N   UNL     1      33.296 -23.007 -16.011  0.00  0.00    -0.384 NA
ATOM     15  C   UNL     1      32.201 -22.723 -16.672  0.00  0.00    +0.211 C 
ATOM     16  C   UNL     1      32.947 -23.610 -14.818  0.00  0.00    +0.124 C 
ATOM     17  C   UNL     1      31.595 -23.771 -14.598  0.00  0.00    +0.125 C 
ATOM     18  H   UNL     1      31.288 -21.871 -18.227  0.00  0.00    +0.155 HD
BRANCH  16  20
ATOM     19  N   UNL     1      34.589 -24.359 -11.569  0.00  0.00    -0.242 NA
ATOM     20  C   UNL     1      33.938 -24.037 -13.874  0.00  0.00    +0.046 C 
ATOM     21  C   UNL     1      35.168 -24.527 -14.298  0.00  0.00    +0.005 C 
ATOM     22  C   UNL     1      33.699 -23.974 -12.511  0.00  0.00    +0.101 C 
ATOM     23  C   UNL     1      36.109 -24.934 -13.359  0.00  0.00    +0.021 C 
ATOM     24  C   UNL     1      35.774 -24.830 -12.019  0.00  0.00    +0.099 C 
ENDBRANCH  16  20
ENDBRANCH   6  13
ENDBRANCH   2   5
BRANCH   3  30
ATOM     25  C   UNL     1      34.409 -14.524 -23.176  0.00  0.00    -0.043 C 
ATOM     26  C   UNL     1      34.525 -14.482 -21.794  0.00  0.00    -0.006 C 
ATOM     27  C   UNL     1      34.592 -15.711 -23.873  0.00  0.00    -0.006 C 
ATOM     28  C   UNL     1      34.828 -15.650 -21.094  0.00  0.00    +0.004 C 
ATOM     29  C   UNL     1      34.895 -16.878 -23.173  0.00  0.00    +0.004 C 
ATOM     30  C   UNL     1      35.013 -16.848 -21.784  0.00  0.00    +0.054 C 
BRANCH  25  31
ATOM     31  C   UNL     1      34.084 -13.263 -23.932  0.00  0.00    -0.050 C 
BRANCH  31  32
ATOM     32  N   UNL     1      33.664 -12.186 -23.037  0.00  0.00    +0.387 N 
ATOM     33  N   UNL     1      31.973  -9.959 -22.302  0.00  0.00    +0.383 N 
ATOM     34  C   UNL     1      33.796 -10.880 -23.694  0.00  0.00    -0.100 C 
ATOM     35  C   UNL     1      32.284 -12.394 -22.584  0.00  0.00    -0.100 C 
ATOM     36  C   UNL     1      33.353  -9.751 -22.757  0.00  0.00    -0.101 C 
ATOM     37  C   UNL     1      31.842 -11.266 -21.646  0.00  0.00    -0.101 C 
ATOM     38  C   UNL     1      31.554  -8.884 -21.405  0.00  0.00    -0.101 C 
ATOM     39  H   UNL     1      34.276 -12.199 -22.221  0.00  0.00    -0.079 HD
ATOM     40  H   UNL     1      31.361  -9.945 -23.117  0.00  0.00    -0.080 HD
ENDBRANCH  31  32
ENDBRANCH  25  31
ENDBRANCH   3  30
TORSDOF 6
ENDMDL
MODEL 4
REMARK VINA RESULT:     -10.0      9.152     17.774
REMARK  Name = 10074640
REMARK  6 active torsions:
REMARK  status: ('A' for Active; 'I' for Inactive)
REMARK    1  A    between atoms: N_2  and  C_5
REMARK    2  A    between atoms: C_3  and  C_30
REMARK    3  A    between atoms: C_6  and  N_13
REMARK    4  A    between atoms: C_16  and  C_20
REMARK    5  A    between atoms: C_25  and  C_31
REMARK    6  A    between atoms: C_31  and  N_32
REMARK                            x       y       z     vdW  Elec       q    Type
REMARK                         _______ _______ _______ _____ _____    ______ ____
ROOT
ATOM      1  O   UNL     1      31.879  -9.872 -20.894  0.00  0.00    -0.270 OA
ATOM      2  N   UNL     1      32.021  -8.764 -22.957  0.00  0.00    -0.280 N 
ATOM      3  C   UNL     1      32.107  -9.880 -22.115  0.00  0.00    +0.249 C 
ATOM      4  H   UNL     1      32.232  -8.927 -23.905  0.00  0.00    +0.155 HD
ENDROOT
BRANCH   2   5
ATOM      5  C   UNL     1      31.670  -7.433 -22.624  0.00  0.00    +0.052 C 
ATOM      6  C   UNL     1      31.117  -5.203 -23.308  0.00  0.00    +0.048 C 
ATOM      7  C   UNL     1      31.464  -6.513 -23.638  0.00  0.00    +0.029 C 
ATOM      8  C   UNL     1      30.981  -4.832 -21.971  0.00  0.00    -0.008 C 
ATOM      9  C   UNL     1      31.539  -7.082 -21.291  0.00  0.00    +0.014 C 
ATOM     10  C   UNL     1      31.192  -5.773 -20.961  0.00  0.00    -0.002 C 
ATOM     11  C   UNL     1      30.612  -3.436 -21.590  0.00  0.00    +0.032 C 
BRANCH   6  13
ATOM     12  S   UNL     1      31.171  -2.784 -26.536  0.00  0.00    -0.059 S 
ATOM     13  N   UNL     1      30.907  -4.264 -24.342  0.00  0.00    -0.283 N 
ATOM     14  N   UNL     1      32.378  -5.015 -26.034  0.00  0.00    -0.384 NA
ATOM     15  C   UNL     1      31.522  -4.145 -25.557  0.00  0.00    +0.211 C 
ATOM     16  C   UNL     1      32.800  -4.582 -27.277  0.00  0.00    +0.124 C 
ATOM     17  C   UNL     1      32.255  -3.394 -27.717  0.00  0.00    +0.125 C 
ATOM     18  H   UNL     1      30.210  -3.593 -24.160  0.00  0.00    +0.155 HD
BRANCH  16  20
ATOM     19  N   UNL     1      35.993  -6.179 -28.307  0.00  0.00    -0.242 NA
ATOM     20  C   UNL     1      33.745  -5.331 -28.052  0.00  0.00    +0.046 C 
ATOM     21  C   UNL     1      33.376  -5.922 -29.255  0.00  0.00    +0.005 C 
ATOM     22  C   UNL     1      35.054  -5.487 -27.625  0.00  0.00    +0.101 C 
ATOM     23  C   UNL     1      34.315  -6.643 -29.985  0.00  0.00    +0.021 C 
ATOM     24  C   UNL     1      35.599  -6.740 -29.472  0.00  0.00    +0.099 C 
ENDBRANCH  16  20
ENDBRANCH   6  13
ENDBRANCH   2   5
BRANCH   3  30
ATOM     25  C   UNL     1      33.313 -13.493 -23.956  0.00  0.00    -0.043 C 
ATOM     26  C   UNL     1      33.885 -12.295 -24.363  0.00  0.00    -0.006 C 
ATOM     27  C   UNL     1      32.354 -13.524 -22.954  0.00  0.00    -0.006 C 
ATOM     28  C   UNL     1      33.486 -11.103 -23.754  0.00  0.00    +0.004 C 
ATOM     29  C   UNL     1      31.956 -12.333 -22.346  0.00  0.00    +0.004 C 
ATOM     30  C   UNL     1      32.523 -11.123 -22.747  0.00  0.00    +0.054 C 
BRANCH  25  31
ATOM     31  C   UNL     1      33.744 -14.779 -24.611  0.00  0.00    -0.050 C 
BRANCH  31  32
ATOM     32  N   UNL     1      34.059 -15.811 -23.625  0.00  0.00    +0.387 N 
ATOM     33  N   UNL     1      35.881 -17.563 -22.221  0.00  0.00    +0.383 N 
ATOM     34  C   UNL     1      34.629 -16.997 -24.276  0.00  0.00    -0.100 C 
ATOM     35  C   UNL     1      34.979 -15.295 -22.605  0.00  0.00    -0.100 C 
ATOM     36  C   UNL     1      34.962 -18.079 -23.243  0.00  0.00    -0.101 C 
ATOM     37  C   UNL     1      35.310 -16.376 -21.571  0.00  0.00    -0.101 C 
ATOM     38  C   UNL     1      36.194 -18.594 -21.234  0.00  0.00    -0.101 C 
ATOM     39  H   UNL     1      33.189 -16.083 -23.166  0.00  0.00    -0.079 HD
ATOM     40  H   UNL     1      36.751 -17.291 -22.679  0.00  0.00    -0.080 HD
ENDBRANCH  31  32
ENDBRANCH  25  31
ENDBRANCH   3  30
TORSDOF 6
ENDMDL
MODEL 5
REMARK VINA RESULT:      -9.9      5.528     11.103
REMARK  Name = 10074640
REMARK  6 active torsions:
REMARK  status: ('A' for Active; 'I' for Inactive)
REMARK    1  A    between atoms: N_2  and  C_5
REMARK    2  A    between atoms: C_3  and  C_30
REMARK    3  A    between atoms: C_6  and  N_13
REMARK    4  A    between atoms: C_16  and  C_20
REMARK    5  A    between atoms: C_25  and  C_31
REMARK    6  A    between atoms: C_31  and  N_32
REMARK                            x       y       z     vdW  Elec       q    Type
REMARK                         _______ _______ _______ _____ _____    ______ ____
ROOT
ATOM      1  O   UNL     1      31.853 -13.649 -21.069  0.00  0.00    -0.270 OA
ATOM      2  N   UNL     1      33.369 -13.115 -22.778  0.00  0.00    -0.280 N 
ATOM      3  C   UNL     1      32.496 -12.813 -21.724  0.00  0.00    +0.249 C 
ATOM      4  H   UNL     1      33.810 -12.344 -23.202  0.00  0.00    +0.155 HD
ENDROOT
BRANCH   2   5
ATOM      5  C   UNL     1      33.699 -14.384 -23.313  0.00  0.00    +0.052 C 
ATOM      6  C   UNL     1      35.106 -16.326 -23.323  0.00  0.00    +0.048 C 
ATOM      7  C   UNL     1      34.782 -15.075 -22.797  0.00  0.00    +0.029 C 
ATOM      8  C   UNL     1      34.342 -16.867 -24.357  0.00  0.00    -0.008 C 
ATOM      9  C   UNL     1      32.930 -14.907 -24.339  0.00  0.00    +0.014 C 
ATOM     10  C   UNL     1      33.254 -16.156 -24.866  0.00  0.00    -0.002 C 
ATOM     11  C   UNL     1      34.667 -18.203 -24.940  0.00  0.00    +0.032 C 
BRANCH   6  13
ATOM     12  S   UNL     1      37.765 -18.591 -21.305  0.00  0.00    -0.059 S 
ATOM     13  N   UNL     1      36.211 -17.031 -22.797  0.00  0.00    -0.283 N 
ATOM     14  N   UNL     1      35.183 -18.655 -21.420  0.00  0.00    -0.384 NA
ATOM     15  C   UNL     1      36.248 -18.051 -21.887  0.00  0.00    +0.211 C 
ATOM     16  C   UNL     1      35.586 -19.629 -20.526  0.00  0.00    +0.124 C 
ATOM     17  C   UNL     1      36.947 -19.744 -20.334  0.00  0.00    +0.125 C 
ATOM     18  H   UNL     1      37.089 -16.744 -23.138  0.00  0.00    +0.155 HD
BRANCH  16  20
ATOM     19  N   UNL     1      32.339 -20.919 -19.259  0.00  0.00    -0.242 NA
ATOM     20  C   UNL     1      34.639 -20.464 -19.847  0.00  0.00    +0.046 C 
ATOM     21  C   UNL     1      35.051 -21.586 -19.138  0.00  0.00    +0.005 C 
ATOM     22  C   UNL     1      33.284 -20.175 -19.877  0.00  0.00    +0.101 C 
ATOM     23  C   UNL     1      34.109 -22.376 -18.489  0.00  0.00    +0.021 C 
ATOM     24  C   UNL     1      32.777 -22.003 -18.580  0.00  0.00    +0.099 C 
ENDBRANCH  16  20
ENDBRANCH   6  13
ENDBRANCH   2   5
BRANCH   3  30
ATOM     25  C   UNL     1      32.031  -8.706 -20.825  0.00  0.00    -0.043 C 
ATOM     26  C   UNL     1      31.565  -9.659 -19.929  0.00  0.00    -0.006 C 
ATOM     27  C   UNL     1      32.648  -9.081 -22.011  0.00  0.00    -0.006 C 
ATOM     28  C   UNL     1      31.719 -11.013 -20.226  0.00  0.00    +0.004 C 
ATOM     29  C   UNL     1      32.802 -10.434 -22.307  0.00  0.00    +0.004 C 
ATOM     30  C   UNL     1      32.338 -11.400 -21.414  0.00  0.00    +0.054 C 
BRANCH  25  31
ATOM     31  C   UNL     1      31.866  -7.244 -20.504  0.00  0.00    -0.050 C 
BRANCH  31  32
ATOM     32  N   UNL     1      31.857  -6.420 -21.712  0.00  0.00    +0.387 N 
ATOM     33  N   UNL     1      30.680  -4.466 -23.488  0.00  0.00    +0.383 N 
ATOM     34  C   UNL     1      30.711  -6.758 -22.565  0.00  0.00    -0.100 C 
ATOM     35  C   UNL     1      31.836  -4.993 -21.370  0.00  0.00    -0.100 C 
ATOM     36  C   UNL     1      30.698  -5.894 -23.830  0.00  0.00    -0.101 C 
ATOM     37  C   UNL     1      31.826  -4.129 -22.635  0.00  0.00    -0.101 C 
ATOM     38  C   UNL     1      30.672  -3.643 -24.696  0.00  0.00    -0.101 C 
ATOM     39  H   UNL     1      32.713  -6.614 -22.232  0.00  0.00    -0.079 HD
ATOM     40  H   UNL     1      29.823  -4.271 -22.970  0.00  0.00    -0.080 HD
ENDBRANCH  31  32
ENDBRANCH  25  31
ENDBRANCH   3  30
TORSDOF 6
ENDMDL
MODEL 6
REMARK VINA RESULT:      -9.9      0.955      1.564
REMARK  Name = 10074640
REMARK  6 active torsions:
REMARK  status: ('A' for Active; 'I' for Inactive)
REMARK    1  A    between atoms: N_2  and  C_5
REMARK    2  A    between atoms: C_3  and  C_30
REMARK    3  A    between atoms: C_6  and  N_13
REMARK    4  A    between atoms: C_16  and  C_20
REMARK    5  A    between atoms: C_25  and  C_31
REMARK    6  A    between atoms: C_31  and  N_32
REMARK                            x       y       z     vdW  Elec       q    Type
REMARK                         _______ _______ _______ _____ _____    ______ ____
ROOT
ATOM      1  O   UNL     1      33.486 -23.428 -18.935  0.00  0.00    -0.270 OA
ATOM      2  N   UNL     1      33.637 -22.052 -17.040  0.00  0.00    -0.280 N 
ATOM      3  C   UNL     1      33.864 -22.382 -18.384  0.00  0.00    +0.249 C 
ATOM      4  H   UNL     1      33.998 -21.185 -16.746  0.00  0.00    +0.155 HD
ENDROOT
BRANCH   2   5
ATOM      5  C   UNL     1      32.955 -22.803 -16.052  0.00  0.00    +0.052 C 
ATOM      6  C   UNL     1      32.894 -23.765 -13.857  0.00  0.00    +0.048 C 
ATOM      7  C   UNL     1      33.567 -23.026 -14.830  0.00  0.00    +0.029 C 
ATOM      8  C   UNL     1      31.621 -24.269 -14.119  0.00  0.00    -0.008 C 
ATOM      9  C   UNL     1      31.691 -23.296 -16.329  0.00  0.00    +0.014 C 
ATOM     10  C   UNL     1      31.019 -24.035 -15.357  0.00  0.00    -0.002 C 
ATOM     11  C   UNL     1      30.879 -25.064 -13.095  0.00  0.00    +0.032 C 
BRANCH   6  13
ATOM     12  S   UNL     1      35.227 -24.729 -10.710  0.00  0.00    -0.059 S 
ATOM     13  N   UNL     1      33.518 -23.993 -12.610  0.00  0.00    -0.283 N 
ATOM     14  N   UNL     1      35.760 -24.428 -13.222  0.00  0.00    -0.384 NA
ATOM     15  C   UNL     1      34.806 -24.351 -12.326  0.00  0.00    +0.211 C 
ATOM     16  C   UNL     1      36.926 -24.817 -12.590  0.00  0.00    +0.124 C 
ATOM     17  C   UNL     1      36.834 -25.027 -11.230  0.00  0.00    +0.125 C 
ATOM     18  H   UNL     1      32.935 -23.875 -11.825  0.00  0.00    +0.155 HD
BRANCH  16  20
ATOM     19  N   UNL     1      39.612 -24.262 -15.099  0.00  0.00    -0.242 NA
ATOM     20  C   UNL     1      38.152 -24.987 -13.315  0.00  0.00    +0.046 C 
ATOM     21  C   UNL     1      39.050 -25.992 -12.977  0.00  0.00    +0.005 C 
ATOM     22  C   UNL     1      38.475 -24.156 -14.375  0.00  0.00    +0.101 C 
ATOM     23  C   UNL     1      40.230 -26.133 -13.698  0.00  0.00    +0.021 C 
ATOM     24  C   UNL     1      40.462 -25.250 -14.741  0.00  0.00    +0.099 C 
ENDBRANCH  16  20
ENDBRANCH   6  13
ENDBRANCH   2   5
BRANCH   3  30
ATOM     25  C   UNL     1      36.077 -19.564 -20.633  0.00  0.00    -0.043 C 
ATOM     26  C   UNL     1      34.690 -19.535 -20.676  0.00  0.00    -0.006 C 
ATOM     27  C   UNL     1      36.749 -20.503 -19.862  0.00  0.00    -0.006 C 
ATOM     28  C   UNL     1      33.961 -20.465 -19.933  0.00  0.00    +0.004 C 
ATOM     29  C   UNL     1      36.020 -21.431 -19.120  0.00  0.00    +0.004 C 
ATOM     30  C   UNL     1      34.626 -21.412 -19.156  0.00  0.00    +0.054 C 
BRANCH  25  31
ATOM     31  C   UNL     1      36.865 -18.560 -21.432  0.00  0.00    -0.050 C 
BRANCH  31  32
ATOM     32  N   UNL     1      36.149 -18.142 -22.636  0.00  0.00    +0.387 N 
ATOM     33  N   UNL     1      33.764 -17.372 -24.078  0.00  0.00    +0.383 N 
ATOM     34  C   UNL     1      35.130 -19.131 -23.007  0.00  0.00    -0.100 C 
ATOM     35  C   UNL     1      35.534 -16.823 -22.444  0.00  0.00    -0.100 C 
ATOM     36  C   UNL     1      34.377 -18.692 -24.267  0.00  0.00    -0.101 C 
ATOM     37  C   UNL     1      34.783 -16.383 -23.705  0.00  0.00    -0.101 C 
ATOM     38  C   UNL     1      33.049 -16.953 -25.282  0.00  0.00    -0.101 C 
ATOM     39  H   UNL     1      36.825 -18.075 -23.397  0.00  0.00    -0.079 HD
ATOM     40  H   UNL     1      33.087 -17.438 -23.317  0.00  0.00    -0.080 HD
ENDBRANCH  31  32
ENDBRANCH  25  31
ENDBRANCH   3  30
TORSDOF 6
ENDMDL
