MODEL 1
REMARK VINA RESULT:     -12.0      0.000      0.000
REMARK  Name = 44123754
REMARK  11 active torsions:
REMARK  status: ('A' for Active; 'I' for Inactive)
REMARK    1  A    between atoms: C_3  and  C_22
REMARK    2  A    between atoms: C_4  and  C_7
REMARK    3  A    between atoms: N_6  and  C_15
REMARK    4  A    between atoms: C_8  and  N_12
REMARK    5  A    between atoms: C_15  and  O_16
REMARK    6  A    between atoms: O_16  and  P_17
REMARK    7  A    between atoms: P_17  and  O_20
REMARK    8  A    between atoms: C_22  and  C_23
REMARK    9  A    between atoms: C_26  and  C_29
REMARK   10  A    between atoms: C_29  and  O_30
REMARK   11  A    between atoms: O_30  and  C_32
REMARK                            x       y       z     vdW  Elec       q    Type
REMARK                         _______ _______ _______ _____ _____    ______ ____
ROOT
ATOM      1  O   UNL     1      34.523 -24.826 -16.093  0.00  0.00    -0.354 OA
ATOM      2  N   UNL     1      33.820 -24.341 -17.190  0.00  0.00    -0.081 NA
ATOM      3  C   UNL     1      33.347 -23.154 -16.801  0.00  0.00    +0.105 C 
ATOM      4  C   UNL     1      34.453 -23.922 -15.081  0.00  0.00    +0.175 C 
ATOM      5  C   UNL     1      33.716 -22.839 -15.481  0.00  0.00    +0.058 C 
ENDROOT
BRANCH   4   7
ATOM      6  N   UNL     1      36.942 -25.315 -12.730  0.00  0.00    -0.266 N 
ATOM      7  C   UNL     1      35.141 -24.290 -13.866  0.00  0.00    +0.048 C 
ATOM      8  C   UNL     1      36.336 -24.995 -13.882  0.00  0.00    +0.156 C 
ATOM      9  C   UNL     1      34.594 -23.928 -12.639  0.00  0.00    +0.003 C 
ATOM     10  C   UNL     1      36.437 -24.979 -11.536  0.00  0.00    +0.064 C 
ATOM     11  C   UNL     1      35.245 -24.274 -11.459  0.00  0.00    +0.016 C 
BRANCH   8  12
ATOM     12  N   UNL     1      36.926 -25.382 -15.105  0.00  0.00    -0.303 NA
ATOM     13  H   UNL     1      36.418 -25.297 -15.945  0.00  0.00    +0.121 HD
ATOM     14  H   UNL     1      37.844 -25.736 -15.118  0.00  0.00    +0.121 HD
ENDBRANCH   8  12
BRANCH   6  15
ATOM     15  C   UNL     1      38.204 -26.060 -12.748  0.00  0.00    +0.251 C 
BRANCH  15  16
ATOM     16  O   UNL     1      39.260 -25.156 -13.041  0.00  0.00    -0.250 OA
BRANCH  16  17
ATOM     17  P   UNL     1      40.473 -25.636 -14.025  0.00  0.00    +0.504 P 
ATOM     18  O   UNL     1      41.127 -26.879 -13.462  0.00  0.00    -0.225 OA
ATOM     19  O   UNL     1      41.308 -24.426 -14.383  0.00  0.00    -0.116 OA
BRANCH  17  20
ATOM     20  O   UNL     1      39.601 -26.057 -15.340  0.00  0.00    -0.301 OA
ATOM     21  H   UNL     1      38.806 -25.504 -15.392  0.00  0.00    +0.222 HD
ENDBRANCH  17  20
ENDBRANCH  16  17
ENDBRANCH  15  16
ENDBRANCH   6  15
ENDBRANCH   4   7
BRANCH   3  22
ATOM     22  C   UNL     1      32.541 -22.345 -17.729  0.00  0.00    +0.075 C 
BRANCH  22  23
ATOM     23  C   UNL     1      33.352 -21.530 -18.729  0.00  0.00    -0.016 C 
ATOM     24  C   UNL     1      32.713 -20.604 -19.554  0.00  0.00    -0.004 C 
ATOM     25  C   UNL     1      34.733 -21.709 -18.818  0.00  0.00    -0.004 C 
ATOM     26  C   UNL     1      34.836 -20.037 -20.559  0.00  0.00    +0.021 C 
ATOM     27  C   UNL     1      33.455 -19.858 -20.470  0.00  0.00    -0.001 C 
ATOM     28  C   UNL     1      35.474 -20.963 -19.733  0.00  0.00    -0.001 C 
BRANCH  26  29
ATOM     29  C   UNL     1      35.629 -19.237 -21.536  0.00  0.00    +0.234 C 
BRANCH  29  30
ATOM     30  O   UNL     1      36.058 -18.029 -20.920  0.00  0.00    -0.455 OA
BRANCH  30  32
ATOM     31  N   UNL     1      34.975 -16.056 -20.357  0.00  0.00    -0.210 NA
ATOM     32  C   UNL     1      35.440 -16.876 -21.326  0.00  0.00    +0.225 C 
ATOM     33  C   UNL     1      35.329 -16.616 -22.682  0.00  0.00    +0.058 C 
ATOM     34  C   UNL     1      34.699 -15.438 -23.070  0.00  0.00    +0.006 C 
ATOM     35  C   UNL     1      34.370 -14.920 -20.771  0.00  0.00    +0.102 C 
ATOM     36  C   UNL     1      34.208 -14.568 -22.102  0.00  0.00    +0.021 C 
ENDBRANCH  30  32
ENDBRANCH  29  30
ENDBRANCH  26  29
ENDBRANCH  22  23
ENDBRANCH   3  22
TORSDOF 11
ENDMDL
MODEL 2
REMARK VINA RESULT:     -11.8      5.539     12.304
REMARK  Name = 44123754
REMARK  11 active torsions:
REMARK  status: ('A' for Active; 'I' for Inactive)
REMARK    1  A    between atoms: C_3  and  C_22
REMARK    2  A    between atoms: C_4  and  C_7
REMARK    3  A    between atoms: N_6  and  C_15
REMARK    4  A    between atoms: C_8  and  N_12
REMARK    5  A    between atoms: C_15  and  O_16
REMARK    6  A    between atoms: O_16  and  P_17
REMARK    7  A    between atoms: P_17  and  O_20
REMARK    8  A    between atoms: C_22  and  C_23
REMARK    9  A    between atoms: C_26  and  C_29
REMARK   10  A    between atoms: C_29  and  O_30
REMARK   11  A    between atoms: O_30  and  C_32
REMARK                            x       y       z     vdW  Elec       q    Type
REMARK                         _______ _______ _______ _____ _____    ______ ____
ROOT
ATOM      1  O   UNL     1      34.779 -15.556 -20.576  0.00  0.00    -0.354 OA
ATOM      2  N   UNL     1      35.330 -16.815 -20.370  0.00  0.00    -0.081 NA
ATOM      3  C   UNL     1      35.389 -17.369 -21.584  0.00  0.00    +0.105 C 
ATOM      4  C   UNL     1      34.524 -15.389 -21.900  0.00  0.00    +0.175 C 
ATOM      5  C   UNL     1      34.894 -16.515 -22.586  0.00  0.00    +0.058 C 
ENDROOT
BRANCH   4   7
ATOM      6  N   UNL     1      32.438 -12.337 -21.896  0.00  0.00    -0.266 N 
ATOM      7  C   UNL     1      33.945 -14.119 -22.270  0.00  0.00    +0.048 C 
ATOM      8  C   UNL     1      32.947 -13.517 -21.516  0.00  0.00    +0.156 C 
ATOM      9  C   UNL     1      34.399 -13.474 -23.416  0.00  0.00    +0.003 C 
ATOM     10  C   UNL     1      32.857 -11.696 -22.995  0.00  0.00    +0.064 C 
ATOM     11  C   UNL     1      33.852 -12.249 -23.787  0.00  0.00    +0.016 C 
BRANCH   8  12
ATOM     12  N   UNL     1      32.458 -14.138 -20.346  0.00  0.00    -0.303 NA
ATOM     13  H   UNL     1      32.968 -14.869 -19.927  0.00  0.00    +0.121 HD
ATOM     14  H   UNL     1      31.608 -13.839 -19.950  0.00  0.00    +0.121 HD
ENDBRANCH   8  12
BRANCH   6  15
ATOM     15  C   UNL     1      31.385 -11.703 -21.099  0.00  0.00    +0.251 C 
BRANCH  15  16
ATOM     16  O   UNL     1      31.902 -11.417 -19.807  0.00  0.00    -0.250 OA
BRANCH  16  17
ATOM     17  P   UNL     1      31.617  -9.954 -19.137  0.00  0.00    +0.504 P 
ATOM     18  O   UNL     1      32.781  -9.561 -18.253  0.00  0.00    -0.225 OA
ATOM     19  O   UNL     1      30.204  -9.942 -18.596  0.00  0.00    -0.116 OA
BRANCH  17  20
ATOM     20  O   UNL     1      31.653  -9.032 -20.484  0.00  0.00    -0.301 OA
ATOM     21  H   UNL     1      30.770  -8.664 -20.648  0.00  0.00    +0.222 HD
ENDBRANCH  17  20
ENDBRANCH  16  17
ENDBRANCH  15  16
ENDBRANCH   6  15
ENDBRANCH   4   7
BRANCH   3  22
ATOM     22  C   UNL     1      35.930 -18.728 -21.746  0.00  0.00    +0.075 C 
BRANCH  22  23
ATOM     23  C   UNL     1      35.343 -19.762 -20.793  0.00  0.00    -0.016 C 
ATOM     24  C   UNL     1      33.962 -19.940 -20.723  0.00  0.00    -0.004 C 
ATOM     25  C   UNL     1      36.187 -20.531 -19.991  0.00  0.00    -0.004 C 
ATOM     26  C   UNL     1      34.268 -21.655 -19.049  0.00  0.00    +0.021 C 
ATOM     27  C   UNL     1      33.424 -20.886 -19.851  0.00  0.00    -0.001 C 
ATOM     28  C   UNL     1      35.649 -21.477 -19.119  0.00  0.00    -0.001 C 
BRANCH  26  29
ATOM     29  C   UNL     1      33.692 -22.668 -18.118  0.00  0.00    +0.234 C 
BRANCH  29  30
ATOM     30  O   UNL     1      32.333 -22.345 -17.849  0.00  0.00    -0.455 OA
BRANCH  30  32
ATOM     31  N   UNL     1      30.501 -22.684 -16.466  0.00  0.00    -0.210 NA
ATOM     32  C   UNL     1      31.844 -22.707 -16.622  0.00  0.00    +0.225 C 
ATOM     33  C   UNL     1      32.734 -23.074 -15.625  0.00  0.00    +0.058 C 
ATOM     34  C   UNL     1      32.213 -23.439 -14.389  0.00  0.00    +0.006 C 
ATOM     35  C   UNL     1      30.031 -23.046 -15.251  0.00  0.00    +0.102 C 
ATOM     36  C   UNL     1      30.837 -23.428 -14.190  0.00  0.00    +0.021 C 
ENDBRANCH  30  32
ENDBRANCH  29  30
ENDBRANCH  26  29
ENDBRANCH  22  23
ENDBRANCH   3  22
TORSDOF 11
ENDMDL
MODEL 3
REMARK VINA RESULT:     -11.8      4.229      5.967
REMARK  Name = 44123754
REMARK  11 active torsions:
REMARK  status: ('A' for Active; 'I' for Inactive)
REMARK    1  A    between atoms: C_3  and  C_22
REMARK    2  A    between atoms: C_4  and  C_7
REMARK    3  A    between atoms: N_6  and  C_15
REMARK    4  A    between atoms: C_8  and  N_12
REMARK    5  A    between atoms: C_15  and  O_16
REMARK    6  A    between atoms: O_16  and  P_17
REMARK    7  A    between atoms: P_17  and  O_20
REMARK    8  A    between atoms: C_22  and  C_23
REMARK    9  A    between atoms: C_26  and  C_29
REMARK   10  A    between atoms: C_29  and  O_30
REMARK   11  A    between atoms: O_30  and  C_32
REMARK                            x       y       z     vdW  Elec       q    Type
REMARK                         _______ _______ _______ _____ _____    ______ ____
ROOT
ATOM      1  O   UNL     1      33.892 -23.337 -17.921  0.00  0.00    -0.354 OA
ATOM      2  N   UNL     1      34.749 -22.823 -18.887  0.00  0.00    -0.081 NA
ATOM      3  C   UNL     1      35.668 -22.135 -18.204  0.00  0.00    +0.105 C 
ATOM      4  C   UNL     1      34.317 -22.945 -16.692  0.00  0.00    +0.175 C 
ATOM      5  C   UNL     1      35.445 -22.178 -16.817  0.00  0.00    +0.058 C 
ENDROOT
BRANCH   4   7
ATOM      6  N   UNL     1      31.451 -23.635 -14.462  0.00  0.00    -0.266 N 
ATOM      7  C   UNL     1      33.521 -23.407 -15.579  0.00  0.00    +0.048 C 
ATOM      8  C   UNL     1      32.152 -23.189 -15.513  0.00  0.00    +0.156 C 
ATOM      9  C   UNL     1      34.140 -24.091 -14.538  0.00  0.00    +0.003 C 
ATOM     10  C   UNL     1      32.022 -24.296 -13.447  0.00  0.00    +0.064 C 
ATOM     11  C   UNL     1      33.387 -24.542 -13.458  0.00  0.00    +0.016 C 
BRANCH   8  12
ATOM     12  N   UNL     1      31.484 -22.499 -16.548  0.00  0.00    -0.303 NA
ATOM     13  H   UNL     1      30.859 -21.770 -16.331  0.00  0.00    +0.121 HD
ATOM     14  H   UNL     1      31.644 -22.747 -17.487  0.00  0.00    +0.121 HD
ENDBRANCH   8  12
BRANCH   6  15
ATOM     15  C   UNL     1      30.005 -23.404 -14.394  0.00  0.00    +0.251 C 
BRANCH  15  16
ATOM     16  O   UNL     1      29.380 -24.130 -15.444  0.00  0.00    -0.250 OA
BRANCH  16  17
ATOM     17  P   UNL     1      28.151 -23.440 -16.270  0.00  0.00    +0.504 P 
ATOM     18  O   UNL     1      27.507 -24.464 -17.179  0.00  0.00    -0.225 OA
ATOM     19  O   UNL     1      28.629 -22.116 -16.824  0.00  0.00    -0.116 OA
BRANCH  17  20
ATOM     20  O   UNL     1      27.133 -23.134 -15.029  0.00  0.00    -0.301 OA
ATOM     21  H   UNL     1      26.945 -23.958 -14.554  0.00  0.00    +0.222 HD
ENDBRANCH  17  20
ENDBRANCH  16  17
ENDBRANCH  15  16
ENDBRANCH   6  15
ENDBRANCH   4   7
BRANCH   3  22
ATOM     22  C   UNL     1      36.751 -21.444 -18.922  0.00  0.00    +0.075 C 
BRANCH  22  23
ATOM     23  C   UNL     1      36.282 -20.407 -19.934  0.00  0.00    -0.016 C 
ATOM     24  C   UNL     1      34.957 -20.409 -20.371  0.00  0.00    -0.004 C 
ATOM     25  C   UNL     1      37.176 -19.454 -20.423  0.00  0.00    -0.004 C 
ATOM     26  C   UNL     1      35.421 -18.507 -21.786  0.00  0.00    +0.021 C 
ATOM     27  C   UNL     1      34.527 -19.460 -21.297  0.00  0.00    -0.001 C 
ATOM     28  C   UNL     1      36.746 -18.505 -21.350  0.00  0.00    -0.001 C 
BRANCH  26  29
ATOM     29  C   UNL     1      34.960 -17.491 -22.775  0.00  0.00    +0.234 C 
BRANCH  29  30
ATOM     30  O   UNL     1      35.477 -16.215 -22.417  0.00  0.00    -0.455 OA
BRANCH  30  32
ATOM     31  N   UNL     1      33.897 -14.565 -22.824  0.00  0.00    -0.210 NA
ATOM     32  C   UNL     1      34.582 -15.303 -21.922  0.00  0.00    +0.225 C 
ATOM     33  C   UNL     1      34.429 -15.189 -20.550  0.00  0.00    +0.058 C 
ATOM     34  C   UNL     1      33.513 -14.258 -20.072  0.00  0.00    +0.006 C 
ATOM     35  C   UNL     1      33.015 -13.671 -22.323  0.00  0.00    +0.102 C 
ATOM     36  C   UNL     1      32.789 -13.481 -20.969  0.00  0.00    +0.021 C 
ENDBRANCH  30  32
ENDBRANCH  29  30
ENDBRANCH  26  29
ENDBRANCH  22  23
ENDBRANCH   3  22
TORSDOF 11
ENDMDL
MODEL 4
REMARK VINA RESULT:     -11.7      5.682     12.197
REMARK  Name = 44123754
REMARK  11 active torsions:
REMARK  status: ('A' for Active; 'I' for Inactive)
REMARK    1  A    between atoms: C_3  and  C_22
REMARK    2  A    between atoms: C_4  and  C_7
REMARK    3  A    between atoms: N_6  and  C_15
REMARK    4  A    between atoms: C_8  and  N_12
REMARK    5  A    between atoms: C_15  and  O_16
REMARK    6  A    between atoms: O_16  and  P_17
REMARK    7  A    between atoms: P_17  and  O_20
REMARK    8  A    between atoms: C_22  and  C_23
REMARK    9  A    between atoms: C_26  and  C_29
REMARK   10  A    between atoms: C_29  and  O_30
REMARK   11  A    between atoms: O_30  and  C_32
REMARK                            x       y       z     vdW  Elec       q    Type
REMARK                         _______ _______ _______ _____ _____    ______ ____
ROOT
ATOM      1  O   UNL     1      34.991 -16.185 -21.154  0.00  0.00    -0.354 OA
ATOM      2  N   UNL     1      35.604 -17.223 -20.462  0.00  0.00    -0.081 NA
ATOM      3  C   UNL     1      35.908 -18.129 -21.396  0.00  0.00    +0.105 C 
ATOM      4  C   UNL     1      34.944 -16.493 -22.476  0.00  0.00    +0.175 C 
ATOM      5  C   UNL     1      35.515 -17.721 -22.683  0.00  0.00    +0.058 C 
ENDROOT
BRANCH   4   7
ATOM      6  N   UNL     1      33.481 -13.329 -23.704  0.00  0.00    -0.266 N 
ATOM      7  C   UNL     1      34.330 -15.502 -23.327  0.00  0.00    +0.048 C 
ATOM      8  C   UNL     1      34.050 -14.218 -22.879  0.00  0.00    +0.156 C 
ATOM      9  C   UNL     1      34.007 -15.839 -24.638  0.00  0.00    +0.003 C 
ATOM     10  C   UNL     1      33.159 -13.627 -24.969  0.00  0.00    +0.064 C 
ATOM     11  C   UNL     1      33.415 -14.894 -25.472  0.00  0.00    +0.016 C 
BRANCH   8  12
ATOM     12  N   UNL     1      34.362 -13.836 -21.557  0.00  0.00    -0.303 NA
ATOM     13  H   UNL     1      34.345 -12.885 -21.302  0.00  0.00    +0.121 HD
ATOM     14  H   UNL     1      34.598 -14.520 -20.890  0.00  0.00    +0.121 HD
ENDBRANCH   8  12
BRANCH   6  15
ATOM     15  C   UNL     1      33.186 -11.974 -23.230  0.00  0.00    +0.251 C 
BRANCH  15  16
ATOM     16  O   UNL     1      31.906 -11.977 -22.613  0.00  0.00    -0.250 OA
BRANCH  16  17
ATOM     17  P   UNL     1      31.716 -11.249 -21.163  0.00  0.00    +0.504 P 
ATOM     18  O   UNL     1      32.102  -9.789 -21.268  0.00  0.00    -0.225 OA
ATOM     19  O   UNL     1      32.334 -12.131 -20.100  0.00  0.00    -0.116 OA
BRANCH  17  20
ATOM     20  O   UNL     1      30.092 -11.349 -21.024  0.00  0.00    -0.301 OA
ATOM     21  H   UNL     1      29.696 -11.436 -21.906  0.00  0.00    +0.222 HD
ENDBRANCH  17  20
ENDBRANCH  16  17
ENDBRANCH  15  16
ENDBRANCH   6  15
ENDBRANCH   4   7
BRANCH   3  22
ATOM     22  C   UNL     1      36.580 -19.381 -21.014  0.00  0.00    +0.075 C 
BRANCH  22  23
ATOM     23  C   UNL     1      35.744 -20.309 -20.141  0.00  0.00    -0.016 C 
ATOM     24  C   UNL     1      34.358 -20.349 -20.295  0.00  0.00    -0.004 C 
ATOM     25  C   UNL     1      36.364 -21.118 -19.188  0.00  0.00    -0.004 C 
ATOM     26  C   UNL     1      34.212 -22.007 -18.544  0.00  0.00    +0.021 C 
ATOM     27  C   UNL     1      33.592 -21.198 -19.497  0.00  0.00    -0.001 C 
ATOM     28  C   UNL     1      35.598 -21.966 -18.390  0.00  0.00    -0.001 C 
BRANCH  26  29
ATOM     29  C   UNL     1      33.393 -22.916 -17.692  0.00  0.00    +0.234 C 
BRANCH  29  30
ATOM     30  O   UNL     1      32.057 -22.433 -17.634  0.00  0.00    -0.455 OA
BRANCH  30  32
ATOM     31  N   UNL     1      30.013 -22.567 -16.543  0.00  0.00    -0.210 NA
ATOM     32  C   UNL     1      31.359 -22.685 -16.482  0.00  0.00    +0.225 C 
ATOM     33  C   UNL     1      32.056 -23.043 -15.339  0.00  0.00    +0.058 C 
ATOM     34  C   UNL     1      31.325 -23.295 -14.183  0.00  0.00    +0.006 C 
ATOM     35  C   UNL     1      29.336 -22.821 -15.400  0.00  0.00    +0.102 C 
ATOM     36  C   UNL     1      29.939 -23.184 -14.206  0.00  0.00    +0.021 C 
ENDBRANCH  30  32
ENDBRANCH  29  30
ENDBRANCH  26  29
ENDBRANCH  22  23
ENDBRANCH   3  22
TORSDOF 11
ENDMDL
MODEL 5
REMARK VINA RESULT:     -11.7      4.252      6.035
REMARK  Name = 44123754
REMARK  11 active torsions:
REMARK  status: ('A' for Active; 'I' for Inactive)
REMARK    1  A    between atoms: C_3  and  C_22
REMARK    2  A    between atoms: C_4  and  C_7
REMARK    3  A    between atoms: N_6  and  C_15
REMARK    4  A    between atoms: C_8  and  N_12
REMARK    5  A    between atoms: C_15  and  O_16
REMARK    6  A    between atoms: O_16  and  P_17
REMARK    7  A    between atoms: P_17  and  O_20
REMARK    8  A    between atoms: C_22  and  C_23
REMARK    9  A    between atoms: C_26  and  C_29
REMARK   10  A    between atoms: C_29  and  O_30
REMARK   11  A    between atoms: O_30  and  C_32
REMARK                            x       y       z     vdW  Elec       q    Type
REMARK                         _______ _______ _______ _____ _____    ______ ____
ROOT
ATOM      1  O   UNL     1      33.930 -23.397 -17.842  0.00  0.00    -0.354 OA
ATOM      2  N   UNL     1      34.798 -22.870 -18.791  0.00  0.00    -0.081 NA
ATOM      3  C   UNL     1      35.672 -22.140 -18.093  0.00  0.00    +0.105 C 
ATOM      4  C   UNL     1      34.303 -22.971 -16.608  0.00  0.00    +0.175 C 
ATOM      5  C   UNL     1      35.407 -22.167 -16.712  0.00  0.00    +0.058 C 
ENDROOT
BRANCH   4   7
ATOM      6  N   UNL     1      31.409 -23.632 -14.405  0.00  0.00    -0.266 N 
ATOM      7  C   UNL     1      33.488 -23.440 -15.511  0.00  0.00    +0.048 C 
ATOM      8  C   UNL     1      32.128 -23.176 -15.440  0.00  0.00    +0.156 C 
ATOM      9  C   UNL     1      34.081 -24.180 -14.493  0.00  0.00    +0.003 C 
ATOM     10  C   UNL     1      31.955 -24.346 -13.412  0.00  0.00    +0.064 C 
ATOM     11  C   UNL     1      33.310 -24.640 -13.430  0.00  0.00    +0.016 C 
BRANCH   8  12
ATOM     12  N   UNL     1      31.487 -22.429 -16.452  0.00  0.00    -0.303 NA
ATOM     13  H   UNL     1      30.534 -22.198 -16.365  0.00  0.00    +0.121 HD
ATOM     14  H   UNL     1      31.994 -22.139 -17.244  0.00  0.00    +0.121 HD
ENDBRANCH   8  12
BRANCH   6  15
ATOM     15  C   UNL     1      29.973 -23.353 -14.331  0.00  0.00    +0.251 C 
BRANCH  15  16
ATOM     16  O   UNL     1      29.316 -24.076 -15.362  0.00  0.00    -0.250 OA
BRANCH  16  17
ATOM     17  P   UNL     1      28.007 -23.422 -16.088  0.00  0.00    +0.504 P 
ATOM     18  O   UNL     1      27.011 -22.972 -15.041  0.00  0.00    -0.225 OA
ATOM     19  O   UNL     1      27.575 -24.337 -17.213  0.00  0.00    -0.116 OA
BRANCH  17  20
ATOM     20  O   UNL     1      28.701 -22.099 -16.749  0.00  0.00    -0.301 OA
ATOM     21  H   UNL     1      29.572 -21.956 -16.347  0.00  0.00    +0.222 HD
ENDBRANCH  17  20
ENDBRANCH  16  17
ENDBRANCH  15  16
ENDBRANCH   6  15
ENDBRANCH   4   7
BRANCH   3  22
ATOM     22  C   UNL     1      36.753 -21.424 -18.789  0.00  0.00    +0.075 C 
BRANCH  22  23
ATOM     23  C   UNL     1      36.282 -20.453 -19.863  0.00  0.00    -0.016 C 
ATOM     24  C   UNL     1      34.970 -20.514 -20.332  0.00  0.00    -0.004 C 
ATOM     25  C   UNL     1      37.163 -19.501 -20.378  0.00  0.00    -0.004 C 
ATOM     26  C   UNL     1      35.419 -18.673 -21.831  0.00  0.00    +0.021 C 
ATOM     27  C   UNL     1      34.538 -19.625 -21.316  0.00  0.00    -0.001 C 
ATOM     28  C   UNL     1      36.731 -18.612 -21.362  0.00  0.00    -0.001 C 
BRANCH  26  29
ATOM     29  C   UNL     1      34.956 -17.721 -22.880  0.00  0.00    +0.234 C 
BRANCH  29  30
ATOM     30  O   UNL     1      35.381 -16.405 -22.545  0.00  0.00    -0.455 OA
BRANCH  30  32
ATOM     31  N   UNL     1      34.131 -15.580 -24.318  0.00  0.00    -0.210 NA
ATOM     32  C   UNL     1      34.675 -15.369 -23.098  0.00  0.00    +0.225 C 
ATOM     33  C   UNL     1      34.556 -14.185 -22.389  0.00  0.00    +0.058 C 
ATOM     34  C   UNL     1      33.833 -13.149 -22.971  0.00  0.00    +0.006 C 
ATOM     35  C   UNL     1      33.434 -14.551 -24.850  0.00  0.00    +0.102 C 
ATOM     36  C   UNL     1      33.258 -13.328 -24.224  0.00  0.00    +0.021 C 
ENDBRANCH  30  32
ENDBRANCH  29  30
ENDBRANCH  26  29
ENDBRANCH  22  23
ENDBRANCH   3  22
TORSDOF 11
ENDMDL
MODEL 6
REMARK VINA RESULT:     -11.6      1.476      1.919
REMARK  Name = 44123754
REMARK  11 active torsions:
REMARK  status: ('A' for Active; 'I' for Inactive)
REMARK    1  A    between atoms: C_3  and  C_22
REMARK    2  A    between atoms: C_4  and  C_7
REMARK    3  A    between atoms: N_6  and  C_15
REMARK    4  A    between atoms: C_8  and  N_12
REMARK    5  A    between atoms: C_15  and  O_16
REMARK    6  A    between atoms: O_16  and  P_17
REMARK    7  A    between atoms: P_17  and  O_20
REMARK    8  A    between atoms: C_22  and  C_23
REMARK    9  A    between atoms: C_26  and  C_29
REMARK   10  A    between atoms: C_29  and  O_30
REMARK   11  A    between atoms: O_30  and  C_32
REMARK                            x       y       z     vdW  Elec       q    Type
REMARK                         _______ _______ _______ _____ _____    ______ ____
ROOT
ATOM      1  O   UNL     1      36.334 -22.786 -16.171  0.00  0.00    -0.354 OA
ATOM      2  N   UNL     1      35.863 -22.275 -17.375  0.00  0.00    -0.081 NA
ATOM      3  C   UNL     1      34.575 -22.627 -17.420  0.00  0.00    +0.105 C 
ATOM      4  C   UNL     1      35.323 -23.427 -15.530  0.00  0.00    +0.175 C 
ATOM      5  C   UNL     1      34.181 -23.354 -16.283  0.00  0.00    +0.058 C 
ENDROOT
BRANCH   4   7
ATOM      6  N   UNL     1      37.227 -24.968 -12.762  0.00  0.00    -0.266 N 
ATOM      7  C   UNL     1      35.664 -24.014 -14.256  0.00  0.00    +0.048 C 
ATOM      8  C   UNL     1      36.954 -24.429 -13.958  0.00  0.00    +0.156 C 
ATOM      9  C   UNL     1      34.671 -24.170 -13.293  0.00  0.00    +0.003 C 
ATOM     10  C   UNL     1      36.291 -25.131 -11.818  0.00  0.00    +0.064 C 
ATOM     11  C   UNL     1      34.984 -24.735 -12.060  0.00  0.00    +0.016 C 
BRANCH   8  12
ATOM     12  N   UNL     1      37.990 -24.288 -14.907  0.00  0.00    -0.303 NA
ATOM     13  H   UNL     1      38.661 -25.001 -15.013  0.00  0.00    +0.121 HD
ATOM     14  H   UNL     1      38.042 -23.477 -15.462  0.00  0.00    +0.121 HD
ENDBRANCH   8  12
BRANCH   6  15
ATOM     15  C   UNL     1      38.590 -25.406 -12.449  0.00  0.00    +0.251 C 
BRANCH  15  16
ATOM     16  O   UNL     1      39.058 -26.226 -13.511  0.00  0.00    -0.250 OA
BRANCH  16  17
ATOM     17  P   UNL     1      40.577 -26.013 -14.074  0.00  0.00    +0.504 P 
ATOM     18  O   UNL     1      41.451 -27.171 -13.643  0.00  0.00    -0.225 OA
ATOM     19  O   UNL     1      40.998 -24.588 -13.791  0.00  0.00    -0.116 OA
BRANCH  17  20
ATOM     20  O   UNL     1      40.290 -26.148 -15.677  0.00  0.00    -0.301 OA
ATOM     21  H   UNL     1      39.337 -26.069 -15.842  0.00  0.00    +0.222 HD
ENDBRANCH  17  20
ENDBRANCH  16  17
ENDBRANCH  15  16
ENDBRANCH   6  15
ENDBRANCH   4   7
BRANCH   3  22
ATOM     22  C   UNL     1      33.748 -22.245 -18.576  0.00  0.00    +0.075 C 
BRANCH  22  23
ATOM     23  C   UNL     1      34.354 -21.159 -19.457  0.00  0.00    -0.016 C 
ATOM     24  C   UNL     1      35.737 -20.989 -19.502  0.00  0.00    -0.004 C 
ATOM     25  C   UNL     1      33.524 -20.336 -20.219  0.00  0.00    -0.004 C 
ATOM     26  C   UNL     1      35.462 -19.172 -21.071  0.00  0.00    +0.021 C 
ATOM     27  C   UNL     1      36.291 -19.995 -20.309  0.00  0.00    -0.001 C 
ATOM     28  C   UNL     1      34.078 -19.342 -21.025  0.00  0.00    -0.001 C 
BRANCH  26  29
ATOM     29  C   UNL     1      36.055 -18.111 -21.935  0.00  0.00    +0.234 C 
BRANCH  29  30
ATOM     30  O   UNL     1      35.351 -18.060 -23.170  0.00  0.00    -0.455 OA
BRANCH  30  32
ATOM     31  N   UNL     1      34.160 -16.793 -24.706  0.00  0.00    -0.210 NA
ATOM     32  C   UNL     1      34.807 -16.852 -23.520  0.00  0.00    +0.225 C 
ATOM     33  C   UNL     1      34.943 -15.778 -22.656  0.00  0.00    +0.058 C 
ATOM     34  C   UNL     1      34.381 -14.563 -23.034  0.00  0.00    +0.006 C 
ATOM     35  C   UNL     1      33.625 -15.596 -25.039  0.00  0.00    +0.102 C 
ATOM     36  C   UNL     1      33.707 -14.463 -24.246  0.00  0.00    +0.021 C 
ENDBRANCH  30  32
ENDBRANCH  29  30
ENDBRANCH  26  29
ENDBRANCH  22  23
ENDBRANCH   3  22
TORSDOF 11
ENDMDL
MODEL 7
REMARK VINA RESULT:     -11.2      2.831      5.225
REMARK  Name = 44123754
REMARK  11 active torsions:
REMARK  status: ('A' for Active; 'I' for Inactive)
REMARK    1  A    between atoms: C_3  and  C_22
REMARK    2  A    between atoms: C_4  and  C_7
REMARK    3  A    between atoms: N_6  and  C_15
REMARK    4  A    between atoms: C_8  and  N_12
REMARK    5  A    between atoms: C_15  and  O_16
REMARK    6  A    between atoms: O_16  and  P_17
REMARK    7  A    between atoms: P_17  and  O_20
REMARK    8  A    between atoms: C_22  and  C_23
REMARK    9  A    between atoms: C_26  and  C_29
REMARK   10  A    between atoms: C_29  and  O_30
REMARK   11  A    between atoms: O_30  and  C_32
REMARK                            x       y       z     vdW  Elec       q    Type
REMARK                         _______ _______ _______ _____ _____    ______ ____
ROOT
ATOM      1  O   UNL     1      36.502 -20.399 -18.872  0.00  0.00    -0.354 OA
ATOM      2  N   UNL     1      36.818 -19.624 -19.981  0.00  0.00    -0.081 NA
ATOM      3  C   UNL     1      35.838 -19.860 -20.858  0.00  0.00    +0.105 C 
ATOM      4  C   UNL     1      35.350 -21.077 -19.112  0.00  0.00    +0.175 C 
ATOM      5  C   UNL     1      34.886 -20.769 -20.363  0.00  0.00    +0.058 C 
ENDROOT
BRANCH   4   7
ATOM      6  N   UNL     1      35.221 -23.016 -15.968  0.00  0.00    -0.266 N 
ATOM      7  C   UNL     1      34.892 -21.931 -18.041  0.00  0.00    +0.048 C 
ATOM      8  C   UNL     1      35.686 -22.219 -16.940  0.00  0.00    +0.156 C 
ATOM      9  C   UNL     1      33.618 -22.485 -18.112  0.00  0.00    +0.003 C 
ATOM     10  C   UNL     1      33.999 -23.563 -16.011  0.00  0.00    +0.064 C 
ATOM     11  C   UNL     1      33.162 -23.311 -17.088  0.00  0.00    +0.016 C 
BRANCH   8  12
ATOM     12  N   UNL     1      36.985 -21.677 -16.829  0.00  0.00    -0.303 NA
ATOM     13  H   UNL     1      37.439 -21.322 -17.627  0.00  0.00    +0.121 HD
ATOM     14  H   UNL     1      37.435 -21.655 -15.954  0.00  0.00    +0.121 HD
ENDBRANCH   8  12
BRANCH   6  15
ATOM     15  C   UNL     1      36.059 -23.319 -14.805  0.00  0.00    +0.251 C 
BRANCH  15  16
ATOM     16  O   UNL     1      37.049 -24.263 -15.192  0.00  0.00    -0.250 OA
BRANCH  16  17
ATOM     17  P   UNL     1      37.050 -25.746 -14.506  0.00  0.00    +0.504 P 
ATOM     18  O   UNL     1      36.101 -26.657 -15.254  0.00  0.00    -0.225 OA
ATOM     19  O   UNL     1      36.931 -25.581 -13.007  0.00  0.00    -0.116 OA
BRANCH  17  20
ATOM     20  O   UNL     1      38.582 -26.198 -14.847  0.00  0.00    -0.301 OA
ATOM     21  H   UNL     1      38.573 -26.869 -15.548  0.00  0.00    +0.222 HD
ENDBRANCH  17  20
ENDBRANCH  16  17
ENDBRANCH  15  16
ENDBRANCH   6  15
ENDBRANCH   4   7
BRANCH   3  22
ATOM     22  C   UNL     1      35.850 -19.193 -22.170  0.00  0.00    +0.075 C 
BRANCH  22  23
ATOM     23  C   UNL     1      35.401 -17.737 -22.146  0.00  0.00    -0.016 C 
ATOM     24  C   UNL     1      35.165 -17.060 -23.342  0.00  0.00    -0.004 C 
ATOM     25  C   UNL     1      35.225 -17.082 -20.926  0.00  0.00    -0.004 C 
ATOM     26  C   UNL     1      34.578 -15.073 -22.100  0.00  0.00    +0.021 C 
ATOM     27  C   UNL     1      34.754 -15.728 -23.320  0.00  0.00    -0.001 C 
ATOM     28  C   UNL     1      34.814 -15.750 -20.904  0.00  0.00    -0.001 C 
BRANCH  26  29
ATOM     29  C   UNL     1      34.135 -13.649 -22.077  0.00  0.00    +0.234 C 
BRANCH  29  30
ATOM     30  O   UNL     1      32.716 -13.596 -21.997  0.00  0.00    -0.455 OA
BRANCH  30  32
ATOM     31  N   UNL     1      31.428 -11.666 -22.031  0.00  0.00    -0.210 NA
ATOM     32  C   UNL     1      32.175 -12.538 -21.316  0.00  0.00    +0.225 C 
ATOM     33  C   UNL     1      32.416 -12.420 -19.957  0.00  0.00    +0.058 C 
ATOM     34  C   UNL     1      31.854 -11.338 -19.287  0.00  0.00    +0.006 C 
ATOM     35  C   UNL     1      30.898 -10.628 -21.346  0.00  0.00    +0.102 C 
ATOM     36  C   UNL     1      31.079 -10.420 -19.988  0.00  0.00    +0.021 C 
ENDBRANCH  30  32
ENDBRANCH  29  30
ENDBRANCH  26  29
ENDBRANCH  22  23
ENDBRANCH   3  22
TORSDOF 11
ENDMDL
MODEL 8
REMARK VINA RESULT:     -11.2      5.504     12.855
REMARK  Name = 44123754
REMARK  11 active torsions:
REMARK  status: ('A' for Active; 'I' for Inactive)
REMARK    1  A    between atoms: C_3  and  C_22
REMARK    2  A    between atoms: C_4  and  C_7
REMARK    3  A    between atoms: N_6  and  C_15
REMARK    4  A    between atoms: C_8  and  N_12
REMARK    5  A    between atoms: C_15  and  O_16
REMARK    6  A    between atoms: O_16  and  P_17
REMARK    7  A    between atoms: P_17  and  O_20
REMARK    8  A    between atoms: C_22  and  C_23
REMARK    9  A    between atoms: C_26  and  C_29
REMARK   10  A    between atoms: C_29  and  O_30
REMARK   11  A    between atoms: O_30  and  C_32
REMARK                            x       y       z     vdW  Elec       q    Type
REMARK                         _______ _______ _______ _____ _____    ______ ____
ROOT
ATOM      1  O   UNL     1      34.216 -15.578 -23.206  0.00  0.00    -0.354 OA
ATOM      2  N   UNL     1      34.997 -16.726 -23.268  0.00  0.00    -0.081 NA
ATOM      3  C   UNL     1      35.438 -16.912 -22.021  0.00  0.00    +0.105 C 
ATOM      4  C   UNL     1      34.209 -15.109 -21.932  0.00  0.00    +0.175 C 
ATOM      5  C   UNL     1      34.972 -15.922 -21.137  0.00  0.00    +0.058 C 
ENDROOT
BRANCH   4   7
ATOM      6  N   UNL     1      32.701 -11.762 -22.366  0.00  0.00    -0.266 N 
ATOM      7  C   UNL     1      33.433 -13.911 -21.710  0.00  0.00    +0.048 C 
ATOM      8  C   UNL     1      33.437 -12.855 -22.610  0.00  0.00    +0.156 C 
ATOM      9  C   UNL     1      32.655 -13.809 -20.562  0.00  0.00    +0.003 C 
ATOM     10  C   UNL     1      31.944 -11.638 -21.268  0.00  0.00    +0.064 C 
ATOM     11  C   UNL     1      31.901 -12.662 -20.334  0.00  0.00    +0.016 C 
BRANCH   8  12
ATOM     12  N   UNL     1      34.213 -12.919 -23.788  0.00  0.00    -0.303 NA
ATOM     13  H   UNL     1      33.851 -12.570 -24.635  0.00  0.00    +0.121 HD
ATOM     14  H   UNL     1      35.114 -13.312 -23.763  0.00  0.00    +0.121 HD
ENDBRANCH   8  12
BRANCH   6  15
ATOM     15  C   UNL     1      32.706 -10.648 -23.317  0.00  0.00    +0.251 C 
BRANCH  15  16
ATOM     16  O   UNL     1      33.931  -9.941 -23.182  0.00  0.00    -0.250 OA
BRANCH  16  17
ATOM     17  P   UNL     1      33.916  -8.307 -23.183  0.00  0.00    +0.504 P 
ATOM     18  O   UNL     1      32.884  -7.806 -24.170  0.00  0.00    -0.225 OA
ATOM     19  O   UNL     1      35.344  -7.814 -23.251  0.00  0.00    -0.116 OA
BRANCH  17  20
ATOM     20  O   UNL     1      33.359  -8.043 -21.670  0.00  0.00    -0.301 OA
ATOM     21  H   UNL     1      33.990  -7.487 -21.186  0.00  0.00    +0.222 HD
ENDBRANCH  17  20
ENDBRANCH  16  17
ENDBRANCH  15  16
ENDBRANCH   6  15
ENDBRANCH   4   7
BRANCH   3  22
ATOM     22  C   UNL     1      36.310 -18.057 -21.713  0.00  0.00    +0.075 C 
BRANCH  22  23
ATOM     23  C   UNL     1      35.639 -19.169 -20.917  0.00  0.00    -0.016 C 
ATOM     24  C   UNL     1      36.408 -20.019 -20.122  0.00  0.00    -0.004 C 
ATOM     25  C   UNL     1      34.255 -19.337 -20.983  0.00  0.00    -0.004 C 
ATOM     26  C   UNL     1      34.410 -21.205 -19.459  0.00  0.00    +0.021 C 
ATOM     27  C   UNL     1      35.794 -21.038 -19.394  0.00  0.00    -0.001 C 
ATOM     28  C   UNL     1      33.641 -20.355 -20.254  0.00  0.00    -0.001 C 
BRANCH  26  29
ATOM     29  C   UNL     1      33.754 -22.293 -18.678  0.00  0.00    +0.234 C 
BRANCH  29  30
ATOM     30  O   UNL     1      34.675 -22.815 -17.728  0.00  0.00    -0.455 OA
BRANCH  30  32
ATOM     31  N   UNL     1      35.023 -23.772 -15.643  0.00  0.00    -0.210 NA
ATOM     32  C   UNL     1      34.156 -23.235 -16.531  0.00  0.00    +0.225 C 
ATOM     33  C   UNL     1      32.798 -23.088 -16.300  0.00  0.00    +0.058 C 
ATOM     34  C   UNL     1      32.296 -23.521 -15.077  0.00  0.00    +0.006 C 
ATOM     35  C   UNL     1      34.498 -24.181 -14.466  0.00  0.00    +0.102 C 
ATOM     36  C   UNL     1      33.156 -24.078 -14.137  0.00  0.00    +0.021 C 
ENDBRANCH  30  32
ENDBRANCH  29  30
ENDBRANCH  26  29
ENDBRANCH  22  23
ENDBRANCH   3  22
TORSDOF 11
ENDMDL
MODEL 9
REMARK VINA RESULT:     -11.2      4.266      6.550
REMARK  Name = 44123754
REMARK  11 active torsions:
REMARK  status: ('A' for Active; 'I' for Inactive)
REMARK    1  A    between atoms: C_3  and  C_22
REMARK    2  A    between atoms: C_4  and  C_7
REMARK    3  A    between atoms: N_6  and  C_15
REMARK    4  A    between atoms: C_8  and  N_12
REMARK    5  A    between atoms: C_15  and  O_16
REMARK    6  A    between atoms: O_16  and  P_17
REMARK    7  A    between atoms: P_17  and  O_20
REMARK    8  A    between atoms: C_22  and  C_23
REMARK    9  A    between atoms: C_26  and  C_29
REMARK   10  A    between atoms: C_29  and  O_30
REMARK   11  A    between atoms: O_30  and  C_32
REMARK                            x       y       z     vdW  Elec       q    Type
REMARK                         _______ _______ _______ _____ _____    ______ ____
ROOT
ATOM      1  O   UNL     1      33.874 -20.583 -19.752  0.00  0.00    -0.354 OA
ATOM      2  N   UNL     1      33.930 -19.878 -20.949  0.00  0.00    -0.081 NA
ATOM      3  C   UNL     1      35.227 -19.839 -21.266  0.00  0.00    +0.105 C 
ATOM      4  C   UNL     1      35.130 -20.944 -19.386  0.00  0.00    +0.175 C 
ATOM      5  C   UNL     1      36.029 -20.495 -20.316  0.00  0.00    +0.058 C 
ENDROOT
BRANCH   4   7
ATOM      6  N   UNL     1      34.308 -23.107 -16.502  0.00  0.00    -0.266 N 
ATOM      7  C   UNL     1      35.232 -21.689 -18.152  0.00  0.00    +0.048 C 
ATOM      8  C   UNL     1      34.171 -22.429 -17.651  0.00  0.00    +0.156 C 
ATOM      9  C   UNL     1      36.428 -21.667 -17.442  0.00  0.00    +0.003 C 
ATOM     10  C   UNL     1      35.448 -23.102 -15.799  0.00  0.00    +0.064 C 
ATOM     11  C   UNL     1      36.542 -22.379 -16.252  0.00  0.00    +0.016 C 
BRANCH   8  12
ATOM     12  N   UNL     1      32.940 -22.479 -18.340  0.00  0.00    -0.303 NA
ATOM     13  H   UNL     1      32.915 -22.330 -19.313  0.00  0.00    +0.121 HD
ATOM     14  H   UNL     1      32.108 -22.663 -17.848  0.00  0.00    +0.121 HD
ENDBRANCH   8  12
BRANCH   6  15
ATOM     15  C   UNL     1      33.188 -23.888 -15.974  0.00  0.00    +0.251 C 
BRANCH  15  16
ATOM     16  O   UNL     1      32.325 -23.017 -15.255  0.00  0.00    -0.250 OA
BRANCH  16  17
ATOM     17  P   UNL     1      30.709 -23.249 -15.333  0.00  0.00    +0.504 P 
ATOM     18  O   UNL     1      30.030 -22.494 -14.211  0.00  0.00    -0.225 OA
ATOM     19  O   UNL     1      30.446 -24.726 -15.533  0.00  0.00    -0.116 OA
BRANCH  17  20
ATOM     20  O   UNL     1      30.396 -22.483 -16.741  0.00  0.00    -0.301 OA
ATOM     21  H   UNL     1      30.156 -23.135 -17.418  0.00  0.00    +0.222 HD
ENDBRANCH  17  20
ENDBRANCH  16  17
ENDBRANCH  15  16
ENDBRANCH   6  15
ENDBRANCH   4   7
BRANCH   3  22
ATOM     22  C   UNL     1      35.662 -19.157 -22.496  0.00  0.00    +0.075 C 
BRANCH  22  23
ATOM     23  C   UNL     1      35.245 -17.696 -22.593  0.00  0.00    -0.016 C 
ATOM     24  C   UNL     1      35.269 -16.887 -21.457  0.00  0.00    -0.004 C 
ATOM     25  C   UNL     1      34.840 -17.165 -23.819  0.00  0.00    -0.004 C 
ATOM     26  C   UNL     1      34.482 -15.018 -22.771  0.00  0.00    +0.021 C 
ATOM     27  C   UNL     1      34.887 -15.549 -21.545  0.00  0.00    -0.001 C 
ATOM     28  C   UNL     1      34.458 -15.827 -23.907  0.00  0.00    -0.001 C 
BRANCH  26  29
ATOM     29  C   UNL     1      34.076 -13.587 -22.865  0.00  0.00    +0.234 C 
BRANCH  29  30
ATOM     30  O   UNL     1      32.672 -13.479 -22.662  0.00  0.00    -0.455 OA
BRANCH  30  32
ATOM     31  N   UNL     1      31.636 -11.446 -22.242  0.00  0.00    -0.210 NA
ATOM     32  C   UNL     1      32.250 -12.546 -21.752  0.00  0.00    +0.225 C 
ATOM     33  C   UNL     1      32.469 -12.776 -20.403  0.00  0.00    +0.058 C 
ATOM     34  C   UNL     1      32.030 -11.815 -19.499  0.00  0.00    +0.006 C 
ATOM     35  C   UNL     1      31.222 -10.534 -21.333  0.00  0.00    +0.102 C 
ATOM     36  C   UNL     1      31.393 -10.670 -19.965  0.00  0.00    +0.021 C 
ENDBRANCH  30  32
ENDBRANCH  29  30
ENDBRANCH  26  29
ENDBRANCH  22  23
ENDBRANCH   3  22
TORSDOF 11
ENDMDL
