MODEL 1
REMARK VINA RESULT:     -11.8      0.000      0.000
REMARK  Name = 24871491
REMARK  6 active torsions:
REMARK  status: ('A' for Active; 'I' for Inactive)
REMARK    1  A    between atoms: N_1  and  C_11
REMARK    2  A    between atoms: N_2  and  C_18
REMARK    3  A    between atoms: C_6  and  C_31
REMARK    4  A    between atoms: C_19  and  C_24
REMARK    5  A    between atoms: C_24  and  C_26
REMARK    6  A    between atoms: C_26  and  O_27
REMARK                            x       y       z     vdW  Elec       q    Type
REMARK                         _______ _______ _______ _____ _____    ______ ____
ROOT
ATOM      1  N   UNL     1      32.219 -23.161 -17.135  0.00  0.00    -0.287 N 
ATOM      2  N   UNL     1      34.091 -24.449 -13.005  0.00  0.00    -0.247 N 
ATOM      3  N   UNL     1      33.172 -23.808 -15.064  0.00  0.00    -0.322 NA
ATOM      4  N   UNL     1      31.761 -24.255 -13.163  0.00  0.00    -0.169 NA
ATOM      5  C   UNL     1      32.060 -23.535 -15.778  0.00  0.00    +0.202 C 
ATOM      6  C   UNL     1      30.782 -23.598 -15.261  0.00  0.00    +0.118 C 
ATOM      7  C   UNL     1      32.952 -24.157 -13.781  0.00  0.00    +0.150 C 
ATOM      8  C   UNL     1      30.692 -23.968 -13.935  0.00  0.00    +0.120 C 
ATOM      9  H   UNL     1      31.462 -23.418 -17.709  0.00  0.00    +0.155 HD
ATOM     10  H   UNL     1      33.882 -24.697 -12.076  0.00  0.00    +0.165 HD
ENDROOT
BRANCH   1  11
ATOM     11  C   UNL     1      33.247 -22.494 -17.820  0.00  0.00    +0.050 C 
ATOM     12  C   UNL     1      32.938 -21.622 -18.865  0.00  0.00    +0.010 C 
ATOM     13  C   UNL     1      33.960 -20.960 -19.545  0.00  0.00    -0.021 C 
ATOM     14  C   UNL     1      34.577 -22.702 -17.457  0.00  0.00    +0.015 C 
ATOM     15  C   UNL     1      35.290 -21.168 -19.182  0.00  0.00    -0.004 C 
ATOM     16  C   UNL     1      35.599 -22.041 -18.138  0.00  0.00    +0.001 C 
ATOM     17  C   UNL     1      33.630 -20.029 -20.663  0.00  0.00    +0.031 C 
ENDBRANCH   1  11
BRANCH   2  18
ATOM     18  C   UNL     1      35.470 -24.455 -13.296  0.00  0.00    +0.058 C 
ATOM     19  C   UNL     1      38.199 -24.466 -13.874  0.00  0.00    -0.011 C 
ATOM     20  C   UNL     1      36.328 -23.585 -12.626  0.00  0.00    +0.015 C 
ATOM     21  C   UNL     1      35.976 -25.331 -14.257  0.00  0.00    +0.015 C 
ATOM     22  C   UNL     1      37.694 -23.590 -12.914  0.00  0.00    -0.002 C 
ATOM     23  C   UNL     1      37.341 -25.337 -14.546  0.00  0.00    -0.002 C 
BRANCH  19  24
ATOM     24  C   UNL     1      39.659 -24.472 -14.182  0.00  0.00    +0.136 C 
BRANCH  24  26
ATOM     25  O   UNL     1      40.404 -26.703 -13.551  0.00  0.00    -0.250 OA
ATOM     26  C   UNL     1      40.221 -25.860 -14.419  0.00  0.00    +0.318 C 
BRANCH  26  27
ATOM     27  O   UNL     1      40.509 -26.073 -15.730  0.00  0.00    -0.480 OA
ATOM     28  H   UNL     1      40.431 -26.934 -16.093  0.00  0.00    +0.295 HD
ENDBRANCH  26  27
ENDBRANCH  24  26
ENDBRANCH  19  24
ENDBRANCH   2  18
BRANCH   6  31
ATOM     29  O   UNL     1      29.437 -22.217 -16.614  0.00  0.00    -0.270 OA
ATOM     30  N   UNL     1      28.607 -24.293 -16.107  0.00  0.00    -0.325 N 
ATOM     31  C   UNL     1      29.583 -23.305 -16.029  0.00  0.00    +0.248 C 
ATOM     32  H   UNL     1      27.781 -24.130 -16.618  0.00  0.00    +0.145 HD
ATOM     33  H   UNL     1      28.741 -25.155 -15.651  0.00  0.00    +0.145 HD
ENDBRANCH   6  31
TORSDOF 6
ENDMDL
MODEL 2
REMARK VINA RESULT:     -11.4      2.147      7.407
REMARK  Name = 24871491
REMARK  6 active torsions:
REMARK  status: ('A' for Active; 'I' for Inactive)
REMARK    1  A    between atoms: N_1  and  C_11
REMARK    2  A    between atoms: N_2  and  C_18
REMARK    3  A    between atoms: C_6  and  C_31
REMARK    4  A    between atoms: C_19  and  C_24
REMARK    5  A    between atoms: C_24  and  C_26
REMARK    6  A    between atoms: C_26  and  O_27
REMARK                            x       y       z     vdW  Elec       q    Type
REMARK                         _______ _______ _______ _____ _____    ______ ____
ROOT
ATOM      1  N   UNL     1      35.679 -22.562 -15.172  0.00  0.00    -0.287 N 
ATOM      2  N   UNL     1      31.893 -24.539 -13.178  0.00  0.00    -0.247 N 
ATOM      3  N   UNL     1      33.767 -23.551 -14.179  0.00  0.00    -0.322 NA
ATOM      4  N   UNL     1      33.966 -24.771 -12.111  0.00  0.00    -0.169 NA
ATOM      5  C   UNL     1      35.096 -23.316 -14.125  0.00  0.00    +0.202 C 
ATOM      6  C   UNL     1      35.914 -23.771 -13.111  0.00  0.00    +0.118 C 
ATOM      7  C   UNL     1      33.277 -24.274 -13.154  0.00  0.00    +0.150 C 
ATOM      8  C   UNL     1      35.288 -24.499 -12.120  0.00  0.00    +0.120 C 
ATOM      9  H   UNL     1      36.465 -22.038 -14.894  0.00  0.00    +0.155 HD
ATOM     10  H   UNL     1      31.579 -25.070 -12.411  0.00  0.00    +0.165 HD
ENDROOT
BRANCH   1  11
ATOM     11  C   UNL     1      35.353 -22.414 -16.530  0.00  0.00    +0.050 C 
ATOM     12  C   UNL     1      36.219 -21.733 -17.385  0.00  0.00    +0.010 C 
ATOM     13  C   UNL     1      35.895 -21.587 -18.734  0.00  0.00    -0.021 C 
ATOM     14  C   UNL     1      34.164 -22.950 -17.024  0.00  0.00    +0.015 C 
ATOM     15  C   UNL     1      34.706 -22.123 -19.228  0.00  0.00    -0.004 C 
ATOM     16  C   UNL     1      33.839 -22.804 -18.373  0.00  0.00    +0.001 C 
ATOM     17  C   UNL     1      36.820 -20.857 -19.649  0.00  0.00    +0.031 C 
ENDBRANCH   1  11
BRANCH   2  18
ATOM     18  C   UNL     1      30.869 -24.193 -14.083  0.00  0.00    +0.058 C 
ATOM     19  C   UNL     1      28.844 -23.509 -15.875  0.00  0.00    -0.011 C 
ATOM     20  C   UNL     1      30.053 -25.185 -14.624  0.00  0.00    +0.015 C 
ATOM     21  C   UNL     1      30.674 -22.858 -14.439  0.00  0.00    +0.015 C 
ATOM     22  C   UNL     1      29.040 -24.844 -15.521  0.00  0.00    -0.002 C 
ATOM     23  C   UNL     1      29.662 -22.516 -15.335  0.00  0.00    -0.002 C 
BRANCH  19  24
ATOM     24  C   UNL     1      27.761 -23.143 -16.834  0.00  0.00    +0.136 C 
BRANCH  24  26
ATOM     25  O   UNL     1      26.129 -22.340 -15.216  0.00  0.00    -0.250 OA
ATOM     26  C   UNL     1      26.747 -22.175 -16.259  0.00  0.00    +0.318 C 
BRANCH  26  27
ATOM     27  O   UNL     1      26.592 -21.077 -17.046  0.00  0.00    -0.480 OA
ATOM     28  H   UNL     1      26.983 -20.263 -16.796  0.00  0.00    +0.295 HD
ENDBRANCH  26  27
ENDBRANCH  24  26
ENDBRANCH  19  24
ENDBRANCH   2  18
BRANCH   6  31
ATOM     29  O   UNL     1      38.075 -23.686 -14.043  0.00  0.00    -0.270 OA
ATOM     30  N   UNL     1      37.871 -23.061 -11.847  0.00  0.00    -0.325 N 
ATOM     31  C   UNL     1      37.344 -23.518 -13.051  0.00  0.00    +0.248 C 
ATOM     32  H   UNL     1      38.836 -22.880 -11.768  0.00  0.00    +0.145 HD
ATOM     33  H   UNL     1      37.280 -22.920 -11.073  0.00  0.00    +0.145 HD
ENDBRANCH   6  31
TORSDOF 6
ENDMDL
MODEL 3
REMARK VINA RESULT:     -11.2      3.116      6.671
REMARK  Name = 24871491
REMARK  6 active torsions:
REMARK  status: ('A' for Active; 'I' for Inactive)
REMARK    1  A    between atoms: N_1  and  C_11
REMARK    2  A    between atoms: N_2  and  C_18
REMARK    3  A    between atoms: C_6  and  C_31
REMARK    4  A    between atoms: C_19  and  C_24
REMARK    5  A    between atoms: C_24  and  C_26
REMARK    6  A    between atoms: C_26  and  O_27
REMARK                            x       y       z     vdW  Elec       q    Type
REMARK                         _______ _______ _______ _____ _____    ______ ____
ROOT
ATOM      1  N   UNL     1      34.229 -23.642 -14.091  0.00  0.00    -0.287 N 
ATOM      2  N   UNL     1      32.158 -22.215 -18.078  0.00  0.00    -0.247 N 
ATOM      3  N   UNL     1      33.199 -22.919 -16.099  0.00  0.00    -0.322 NA
ATOM      4  N   UNL     1      30.862 -23.354 -16.492  0.00  0.00    -0.169 NA
ATOM      5  C   UNL     1      33.078 -23.544 -14.910  0.00  0.00    +0.202 C 
ATOM      6  C   UNL     1      31.898 -24.093 -14.449  0.00  0.00    +0.118 C 
ATOM      7  C   UNL     1      32.068 -22.860 -16.829  0.00  0.00    +0.150 C 
ATOM      8  C   UNL     1      30.811 -23.966 -15.290  0.00  0.00    +0.120 C 
ATOM      9  H   UNL     1      34.031 -23.659 -13.127  0.00  0.00    +0.155 HD
ATOM     10  H   UNL     1      31.309 -22.197 -18.575  0.00  0.00    +0.165 HD
ENDROOT
BRANCH   1  11
ATOM     11  C   UNL     1      35.599 -23.719 -14.387  0.00  0.00    +0.050 C 
ATOM     12  C   UNL     1      36.334 -24.842 -14.004  0.00  0.00    +0.010 C 
ATOM     13  C   UNL     1      37.695 -24.918 -14.299  0.00  0.00    -0.021 C 
ATOM     14  C   UNL     1      36.226 -22.675 -15.066  0.00  0.00    +0.015 C 
ATOM     15  C   UNL     1      38.322 -23.873 -14.978  0.00  0.00    -0.004 C 
ATOM     16  C   UNL     1      37.588 -22.750 -15.360  0.00  0.00    +0.001 C 
ATOM     17  C   UNL     1      38.481 -26.117 -13.888  0.00  0.00    +0.031 C 
ENDBRANCH   1  11
BRANCH   2  18
ATOM     18  C   UNL     1      33.225 -21.589 -18.755  0.00  0.00    +0.058 C 
ATOM     19  C   UNL     1      35.335 -20.352 -20.096  0.00  0.00    -0.011 C 
ATOM     20  C   UNL     1      32.965 -20.588 -19.690  0.00  0.00    +0.015 C 
ATOM     21  C   UNL     1      34.540 -21.973 -18.491  0.00  0.00    +0.015 C 
ATOM     22  C   UNL     1      34.021 -19.968 -20.361  0.00  0.00    -0.002 C 
ATOM     23  C   UNL     1      35.595 -21.354 -19.161  0.00  0.00    -0.002 C 
BRANCH  19  24
ATOM     24  C   UNL     1      36.463 -19.690 -20.813  0.00  0.00    +0.136 C 
BRANCH  24  26
ATOM     25  O   UNL     1      35.717 -17.378 -20.651  0.00  0.00    -0.250 OA
ATOM     26  C   UNL     1      36.121 -18.309 -21.335  0.00  0.00    +0.318 C 
BRANCH  26  27
ATOM     27  O   UNL     1      36.314 -18.211 -22.677  0.00  0.00    -0.480 OA
ATOM     28  H   UNL     1      37.079 -18.586 -23.068  0.00  0.00    +0.295 HD
ENDBRANCH  26  27
ENDBRANCH  24  26
ENDBRANCH  19  24
ENDBRANCH   2  18
BRANCH   6  31
ATOM     29  O   UNL     1      32.761 -25.063 -12.484  0.00  0.00    -0.270 OA
ATOM     30  N   UNL     1      30.480 -25.053 -12.717  0.00  0.00    -0.325 N 
ATOM     31  C   UNL     1      31.764 -24.766 -13.167  0.00  0.00    +0.248 C 
ATOM     32  H   UNL     1      30.350 -25.508 -11.854  0.00  0.00    +0.145 HD
ATOM     33  H   UNL     1      29.699 -24.800 -13.262  0.00  0.00    +0.145 HD
ENDBRANCH   6  31
TORSDOF 6
ENDMDL
MODEL 4
REMARK VINA RESULT:      -9.1      2.068      7.021
REMARK  Name = 24871491
REMARK  6 active torsions:
REMARK  status: ('A' for Active; 'I' for Inactive)
REMARK    1  A    between atoms: N_1  and  C_11
REMARK    2  A    between atoms: N_2  and  C_18
REMARK    3  A    between atoms: C_6  and  C_31
REMARK    4  A    between atoms: C_19  and  C_24
REMARK    5  A    between atoms: C_24  and  C_26
REMARK    6  A    between atoms: C_26  and  O_27
REMARK                            x       y       z     vdW  Elec       q    Type
REMARK                         _______ _______ _______ _____ _____    ______ ____
ROOT
ATOM      1  N   UNL     1      36.875 -22.989 -15.239  0.00  0.00    -0.287 N 
ATOM      2  N   UNL     1      33.424 -24.982 -12.722  0.00  0.00    -0.247 N 
ATOM      3  N   UNL     1      35.131 -23.983 -13.979  0.00  0.00    -0.322 NA
ATOM      4  N   UNL     1      35.635 -25.622 -12.287  0.00  0.00    -0.169 NA
ATOM      5  C   UNL     1      36.454 -23.889 -14.230  0.00  0.00    +0.202 C 
ATOM      6  C   UNL     1      37.414 -24.619 -13.560  0.00  0.00    +0.118 C 
ATOM      7  C   UNL     1      34.797 -24.856 -13.009  0.00  0.00    +0.150 C 
ATOM      8  C   UNL     1      36.943 -25.478 -12.588  0.00  0.00    +0.120 C 
ATOM      9  H   UNL     1      37.771 -22.610 -15.084  0.00  0.00    +0.155 HD
ATOM     10  H   UNL     1      33.227 -25.630 -12.008  0.00  0.00    +0.165 HD
ENDROOT
BRANCH   1  11
ATOM     11  C   UNL     1      36.263 -22.531 -16.417  0.00  0.00    +0.050 C 
ATOM     12  C   UNL     1      34.900 -22.746 -16.624  0.00  0.00    +0.010 C 
ATOM     13  C   UNL     1      34.293 -22.291 -17.794  0.00  0.00    -0.021 C 
ATOM     14  C   UNL     1      37.018 -21.862 -17.380  0.00  0.00    +0.015 C 
ATOM     15  C   UNL     1      35.047 -21.621 -18.757  0.00  0.00    -0.004 C 
ATOM     16  C   UNL     1      36.410 -21.408 -18.551  0.00  0.00    +0.001 C 
ATOM     17  C   UNL     1      32.836 -22.521 -18.016  0.00  0.00    +0.031 C 
ENDBRANCH   1  11
BRANCH   2  18
ATOM     18  C   UNL     1      32.275 -24.361 -13.254  0.00  0.00    +0.058 C 
ATOM     19  C   UNL     1      30.004 -23.134 -14.309  0.00  0.00    -0.011 C 
ATOM     20  C   UNL     1      31.077 -25.069 -13.341  0.00  0.00    +0.015 C 
ATOM     21  C   UNL     1      32.338 -23.039 -13.696  0.00  0.00    +0.015 C 
ATOM     22  C   UNL     1      29.941 -24.455 -13.869  0.00  0.00    -0.002 C 
ATOM     23  C   UNL     1      31.202 -22.425 -14.223  0.00  0.00    -0.002 C 
BRANCH  19  24
ATOM     24  C   UNL     1      28.789 -22.477 -14.873  0.00  0.00    +0.136 C 
BRANCH  24  26
ATOM     25  O   UNL     1      27.257 -23.174 -16.634  0.00  0.00    -0.250 OA
ATOM     26  C   UNL     1      28.404 -22.994 -16.245  0.00  0.00    +0.318 C 
BRANCH  26  27
ATOM     27  O   UNL     1      29.495 -23.246 -17.016  0.00  0.00    -0.480 OA
ATOM     28  H   UNL     1      29.922 -22.544 -17.466  0.00  0.00    +0.295 HD
ENDBRANCH  26  27
ENDBRANCH  24  26
ENDBRANCH  19  24
ENDBRANCH   2  18
BRANCH   6  31
ATOM     29  O   UNL     1      39.665 -24.380 -12.906  0.00  0.00    -0.270 OA
ATOM     30  N   UNL     1      39.258 -24.598 -15.152  0.00  0.00    -0.325 N 
ATOM     31  C   UNL     1      38.840 -24.517 -13.827  0.00  0.00    +0.248 C 
ATOM     32  H   UNL     1      40.216 -24.533 -15.371  0.00  0.00    +0.145 HD
ATOM     33  H   UNL     1      38.596 -24.720 -15.870  0.00  0.00    +0.145 HD
ENDBRANCH   6  31
TORSDOF 6
ENDMDL
