MODEL 1
REMARK VINA RESULT:     -11.6      0.000      0.000
REMARK  Name = 54674461
REMARK  5 active torsions:
REMARK  status: ('A' for Active; 'I' for Inactive)
REMARK    1  A    between atoms: N_2  and  C_29
REMARK    2  A    between atoms: C_7  and  C_14
REMARK    3  A    between atoms: C_15  and  N_21
REMARK    4  A    between atoms: C_22  and  O_24
REMARK    5  A    between atoms: C_29  and  C_31
REMARK                            x       y       z     vdW  Elec       q    Type
REMARK                         _______ _______ _______ _____ _____    ______ ____
ROOT
ATOM      1  F   UNL     1      29.405 -22.832 -15.004  0.00  0.00    -0.207 F 
ATOM      2  N   UNL     1      34.546 -24.391 -15.012  0.00  0.00    -0.193 N 
ATOM      3  N   UNL     1      35.107 -23.793 -16.078  0.00  0.00    -0.168 NA
ATOM      4  N   UNL     1      32.413 -24.558 -13.883  0.00  0.00    -0.251 NA
ATOM      5  C   UNL     1      32.891 -23.249 -15.896  0.00  0.00    +0.133 C 
ATOM      6  C   UNL     1      33.222 -24.102 -14.855  0.00  0.00    +0.133 C 
ATOM      7  C   UNL     1      34.096 -23.098 -16.612  0.00  0.00    +0.172 C 
ATOM      8  C   UNL     1      31.571 -22.791 -15.975  0.00  0.00    +0.015 C 
ATOM      9  C   UNL     1      30.683 -23.230 -14.992  0.00  0.00    +0.139 C 
ATOM     10  C   UNL     1      31.148 -24.088 -14.001  0.00  0.00    +0.182 C 
ENDROOT
BRANCH   7  14
ATOM     11  N   UNL     1      35.588 -22.110 -18.168  0.00  0.00    -0.326 NA
ATOM     12  N   UNL     1      33.206 -21.842 -18.415  0.00  0.00    -0.326 NA
ATOM     13  N   UNL     1      37.074 -21.121 -19.724  0.00  0.00    -0.334 N 
ATOM     14  C   UNL     1      34.308 -22.307 -17.797  0.00  0.00    +0.156 C 
ATOM     15  C   UNL     1      34.705 -20.829 -20.004  0.00  0.00    +0.210 C 
ATOM     16  C   UNL     1      35.750 -21.364 -19.280  0.00  0.00    +0.193 C 
ATOM     17  C   UNL     1      33.441 -21.103 -19.520  0.00  0.00    +0.193 C 
ATOM     18  H   UNL     1      37.837 -21.493 -19.224  0.00  0.00    +0.144 HD
ATOM     19  H   UNL     1      37.231 -20.582 -20.532  0.00  0.00    +0.144 HD
ATOM     20  N   UNL     1      32.322 -20.583 -20.215  0.00  0.00    -0.334 N 
ATOM     21  H   UNL     1      31.412 -20.765 -19.889  0.00  0.00    +0.144 HD
ATOM     22  H   UNL     1      32.456 -20.038 -21.025  0.00  0.00    +0.144 HD
BRANCH  15  24
ATOM     23  O   UNL     1      36.212 -18.260 -20.397  0.00  0.00    -0.226 OA
ATOM     24  N   UNL     1      34.910 -20.058 -21.150  0.00  0.00    -0.258 N 
ATOM     25  C   UNL     1      35.621 -18.869 -21.280  0.00  0.00    +0.402 C 
ATOM     26  H   UNL     1      34.498 -20.401 -21.976  0.00  0.00    +0.154 HD
BRANCH  25  27
ATOM     27  O   UNL     1      35.569 -18.452 -22.583  0.00  0.00    -0.431 OA
ATOM     28  C   UNL     1      34.568 -19.069 -23.401  0.00  0.00    +0.257 C 
ENDBRANCH  25  27
ENDBRANCH  15  24
ENDBRANCH   7  14
BRANCH   2  29
ATOM     29  C   UNL     1      35.351 -25.245 -14.170  0.00  0.00    +0.146 C 
BRANCH  29  31
ATOM     30  F   UNL     1      37.698 -23.660 -14.257  0.00  0.00    -0.204 F 
ATOM     31  C   UNL     1      35.911 -24.536 -12.963  0.00  0.00    +0.027 C 
ATOM     32  C   UNL     1      37.072 -23.771 -13.077  0.00  0.00    +0.138 C 
ATOM     33  C   UNL     1      35.267 -24.645 -11.730  0.00  0.00    -0.000 C 
ATOM     34  C   UNL     1      37.589 -23.116 -11.959  0.00  0.00    +0.029 C 
ATOM     35  C   UNL     1      35.784 -23.990 -10.612  0.00  0.00    -0.000 C 
ATOM     36  C   UNL     1      36.945 -23.226 -10.726  0.00  0.00    +0.002 C 
ENDBRANCH  29  31
ENDBRANCH   2  29
TORSDOF 5
ENDMDL
MODEL 2
REMARK VINA RESULT:     -11.2      1.311      4.617
REMARK  Name = 54674461
REMARK  5 active torsions:
REMARK  status: ('A' for Active; 'I' for Inactive)
REMARK    1  A    between atoms: N_2  and  C_29
REMARK    2  A    between atoms: C_7  and  C_14
REMARK    3  A    between atoms: C_15  and  N_21
REMARK    4  A    between atoms: C_22  and  O_24
REMARK    5  A    between atoms: C_29  and  C_31
REMARK                            x       y       z     vdW  Elec       q    Type
REMARK                         _______ _______ _______ _____ _____    ______ ____
ROOT
ATOM      1  F   UNL     1      37.940 -23.647 -13.652  0.00  0.00    -0.207 F 
ATOM      2  N   UNL     1      32.775 -24.126 -15.050  0.00  0.00    -0.193 N 
ATOM      3  N   UNL     1      32.658 -23.495 -16.232  0.00  0.00    -0.168 NA
ATOM      4  N   UNL     1      34.447 -24.649 -13.381  0.00  0.00    -0.251 NA
ATOM      5  C   UNL     1      34.809 -23.403 -15.458  0.00  0.00    +0.133 C 
ATOM      6  C   UNL     1      34.041 -24.102 -14.540  0.00  0.00    +0.133 C 
ATOM      7  C   UNL     1      33.898 -23.058 -16.476  0.00  0.00    +0.172 C 
ATOM      8  C   UNL     1      36.169 -23.228 -15.176  0.00  0.00    +0.015 C 
ATOM      9  C   UNL     1      36.651 -23.775 -13.986  0.00  0.00    +0.139 C 
ATOM     10  C   UNL     1      35.768 -24.454 -13.152  0.00  0.00    +0.182 C 
ENDROOT
BRANCH   7  14
ATOM     11  N   UNL     1      35.479 -22.199 -18.021  0.00  0.00    -0.326 NA
ATOM     12  N   UNL     1      33.121 -21.820 -18.342  0.00  0.00    -0.326 NA
ATOM     13  N   UNL     1      37.053 -21.339 -19.567  0.00  0.00    -0.334 N 
ATOM     14  C   UNL     1      34.181 -22.319 -17.680  0.00  0.00    +0.156 C 
ATOM     15  C   UNL     1      34.709 -20.938 -19.921  0.00  0.00    +0.210 C 
ATOM     16  C   UNL     1      35.707 -21.500 -19.152  0.00  0.00    +0.193 C 
ATOM     17  C   UNL     1      33.422 -21.132 -19.464  0.00  0.00    +0.193 C 
ATOM     18  H   UNL     1      37.782 -21.731 -19.034  0.00  0.00    +0.144 HD
ATOM     19  H   UNL     1      37.258 -20.837 -20.388  0.00  0.00    +0.144 HD
ATOM     20  N   UNL     1      32.349 -20.579 -20.206  0.00  0.00    -0.334 N 
ATOM     21  H   UNL     1      31.422 -20.705 -19.899  0.00  0.00    +0.144 HD
ATOM     22  H   UNL     1      32.531 -20.070 -21.029  0.00  0.00    +0.144 HD
BRANCH  15  24
ATOM     23  O   UNL     1      36.285 -18.415 -20.344  0.00  0.00    -0.226 OA
ATOM     24  N   UNL     1      34.983 -20.217 -21.086  0.00  0.00    -0.258 N 
ATOM     25  C   UNL     1      35.723 -19.048 -21.229  0.00  0.00    +0.402 C 
ATOM     26  H   UNL     1      34.603 -20.586 -21.916  0.00  0.00    +0.154 HD
BRANCH  25  27
ATOM     27  O   UNL     1      35.740 -18.682 -22.548  0.00  0.00    -0.431 OA
ATOM     28  C   UNL     1      34.620 -19.108 -23.333  0.00  0.00    +0.257 C 
ENDBRANCH  25  27
ENDBRANCH  15  24
ENDBRANCH   7  14
BRANCH   2  29
ATOM     29  C   UNL     1      31.613 -24.741 -14.452  0.00  0.00    +0.146 C 
BRANCH  29  31
ATOM     30  F   UNL     1      30.795 -22.118 -13.757  0.00  0.00    -0.204 F 
ATOM     31  C   UNL     1      30.313 -24.134 -14.915  0.00  0.00    +0.027 C 
ATOM     32  C   UNL     1      29.972 -22.835 -14.534  0.00  0.00    +0.138 C 
ATOM     33  C   UNL     1      29.449 -24.872 -15.724  0.00  0.00    -0.000 C 
ATOM     34  C   UNL     1      28.769 -22.276 -14.964  0.00  0.00    +0.029 C 
ATOM     35  C   UNL     1      28.245 -24.312 -16.153  0.00  0.00    -0.000 C 
ATOM     36  C   UNL     1      27.905 -23.014 -15.773  0.00  0.00    +0.002 C 
ENDBRANCH  29  31
ENDBRANCH   2  29
TORSDOF 5
ENDMDL
MODEL 3
REMARK VINA RESULT:     -10.2      9.446     14.307
REMARK  Name = 54674461
REMARK  5 active torsions:
REMARK  status: ('A' for Active; 'I' for Inactive)
REMARK    1  A    between atoms: N_2  and  C_29
REMARK    2  A    between atoms: C_7  and  C_14
REMARK    3  A    between atoms: C_15  and  N_21
REMARK    4  A    between atoms: C_22  and  O_24
REMARK    5  A    between atoms: C_29  and  C_31
REMARK                            x       y       z     vdW  Elec       q    Type
REMARK                         _______ _______ _______ _____ _____    ______ ____
ROOT
ATOM      1  F   UNL     1      31.675 -11.189 -17.592  0.00  0.00    -0.207 F 
ATOM      2  N   UNL     1      32.127  -9.455 -22.657  0.00  0.00    -0.193 N 
ATOM      3  N   UNL     1      32.591 -10.503 -23.360  0.00  0.00    -0.168 NA
ATOM      4  N   UNL     1      31.502  -8.866 -20.395  0.00  0.00    -0.251 NA
ATOM      5  C   UNL     1      32.326 -11.043 -21.153  0.00  0.00    +0.133 C 
ATOM      6  C   UNL     1      31.950  -9.721 -21.330  0.00  0.00    +0.133 C 
ATOM      7  C   UNL     1      32.710 -11.467 -22.441  0.00  0.00    +0.172 C 
ATOM      8  C   UNL     1      32.242 -11.582 -19.863  0.00  0.00    +0.015 C 
ATOM      9  C   UNL     1      31.782 -10.741 -18.849  0.00  0.00    +0.139 C 
ATOM     10  C   UNL     1      31.437  -9.431 -19.166  0.00  0.00    +0.182 C 
ENDROOT
BRANCH   7  14
ATOM     11  N   UNL     1      33.038 -13.117 -24.112  0.00  0.00    -0.326 NA
ATOM     12  N   UNL     1      33.738 -13.517 -21.841  0.00  0.00    -0.326 NA
ATOM     13  N   UNL     1      33.368 -14.769 -25.776  0.00  0.00    -0.334 N 
ATOM     14  C   UNL     1      33.189 -12.772 -22.819  0.00  0.00    +0.156 C 
ATOM     15  C   UNL     1      34.078 -15.206 -23.522  0.00  0.00    +0.210 C 
ATOM     16  C   UNL     1      33.496 -14.345 -24.430  0.00  0.00    +0.193 C 
ATOM     17  C   UNL     1      34.174 -14.734 -22.229  0.00  0.00    +0.193 C 
ATOM     18  H   UNL     1      32.955 -14.172 -26.443  0.00  0.00    +0.144 HD
ATOM     19  H   UNL     1      33.692 -15.658 -26.046  0.00  0.00    +0.144 HD
ATOM     20  N   UNL     1      34.762 -15.568 -21.245  0.00  0.00    -0.334 N 
ATOM     21  H   UNL     1      34.841 -15.252 -20.316  0.00  0.00    +0.144 HD
ATOM     22  H   UNL     1      35.090 -16.463 -21.492  0.00  0.00    +0.144 HD
BRANCH  15  24
ATOM     23  O   UNL     1      32.751 -17.403 -25.085  0.00  0.00    -0.226 OA
ATOM     24  N   UNL     1      34.539 -16.473 -23.887  0.00  0.00    -0.258 N 
ATOM     25  C   UNL     1      33.881 -17.459 -24.615  0.00  0.00    +0.402 C 
ATOM     26  H   UNL     1      35.450 -16.699 -23.589  0.00  0.00    +0.154 HD
BRANCH  25  27
ATOM     27  O   UNL     1      34.700 -18.548 -24.744  0.00  0.00    -0.431 OA
ATOM     28  C   UNL     1      34.845 -19.367 -23.578  0.00  0.00    +0.257 C 
ENDBRANCH  25  27
ENDBRANCH  15  24
ENDBRANCH   7  14
BRANCH   2  29
ATOM     29  C   UNL     1      31.871  -8.203 -23.329  0.00  0.00    +0.146 C 
BRANCH  29  31
ATOM     30  F   UNL     1      32.008  -6.338 -25.459  0.00  0.00    -0.204 F 
ATOM     31  C   UNL     1      33.127  -7.447 -23.682  0.00  0.00    +0.027 C 
ATOM     32  C   UNL     1      33.124  -6.542 -24.744  0.00  0.00    +0.138 C 
ATOM     33  C   UNL     1      34.293  -7.651 -22.944  0.00  0.00    -0.000 C 
ATOM     34  C   UNL     1      34.286  -5.843 -25.068  0.00  0.00    +0.029 C 
ATOM     35  C   UNL     1      35.456  -6.952 -23.269  0.00  0.00    -0.000 C 
ATOM     36  C   UNL     1      35.453  -6.049 -24.332  0.00  0.00    +0.002 C 
ENDBRANCH  29  31
ENDBRANCH   2  29
TORSDOF 5
ENDMDL
MODEL 4
REMARK VINA RESULT:     -10.1      9.467     14.292
REMARK  Name = 54674461
REMARK  5 active torsions:
REMARK  status: ('A' for Active; 'I' for Inactive)
REMARK    1  A    between atoms: N_2  and  C_29
REMARK    2  A    between atoms: C_7  and  C_14
REMARK    3  A    between atoms: C_15  and  N_21
REMARK    4  A    between atoms: C_22  and  O_24
REMARK    5  A    between atoms: C_29  and  C_31
REMARK                            x       y       z     vdW  Elec       q    Type
REMARK                         _______ _______ _______ _____ _____    ______ ____
ROOT
ATOM      1  F   UNL     1      31.735 -11.157 -17.563  0.00  0.00    -0.207 F 
ATOM      2  N   UNL     1      32.134  -9.427 -22.633  0.00  0.00    -0.193 N 
ATOM      3  N   UNL     1      32.586 -10.477 -23.342  0.00  0.00    -0.168 NA
ATOM      4  N   UNL     1      31.537  -8.834 -20.365  0.00  0.00    -0.251 NA
ATOM      5  C   UNL     1      32.345 -11.015 -21.131  0.00  0.00    +0.133 C 
ATOM      6  C   UNL     1      31.972  -9.692 -21.305  0.00  0.00    +0.133 C 
ATOM      7  C   UNL     1      32.712 -11.441 -22.423  0.00  0.00    +0.172 C 
ATOM      8  C   UNL     1      32.274 -11.553 -19.841  0.00  0.00    +0.015 C 
ATOM      9  C   UNL     1      31.829 -10.710 -18.821  0.00  0.00    +0.139 C 
ATOM     10  C   UNL     1      31.485  -9.399 -19.135  0.00  0.00    +0.182 C 
ENDROOT
BRANCH   7  14
ATOM     11  N   UNL     1      33.743 -13.494 -21.835  0.00  0.00    -0.326 NA
ATOM     12  N   UNL     1      33.015 -13.093 -24.097  0.00  0.00    -0.326 NA
ATOM     13  N   UNL     1      34.771 -15.546 -21.252  0.00  0.00    -0.334 N 
ATOM     14  C   UNL     1      33.182 -12.748 -22.806  0.00  0.00    +0.156 C 
ATOM     15  C   UNL     1      34.061 -15.183 -23.519  0.00  0.00    +0.210 C 
ATOM     16  C   UNL     1      34.173 -14.710 -22.228  0.00  0.00    +0.193 C 
ATOM     17  C   UNL     1      33.468 -14.322 -24.421  0.00  0.00    +0.193 C 
ATOM     18  H   UNL     1      34.862 -15.230 -20.323  0.00  0.00    +0.144 HD
ATOM     19  H   UNL     1      35.095 -16.441 -21.502  0.00  0.00    +0.144 HD
ATOM     20  N   UNL     1      33.324 -14.744 -25.766  0.00  0.00    -0.334 N 
ATOM     21  H   UNL     1      32.904 -14.147 -26.426  0.00  0.00    +0.144 HD
ATOM     22  H   UNL     1      33.644 -15.634 -26.039  0.00  0.00    +0.144 HD
BRANCH  15  24
ATOM     23  O   UNL     1      32.720 -17.382 -25.065  0.00  0.00    -0.226 OA
ATOM     24  N   UNL     1      34.521 -16.448 -23.892  0.00  0.00    -0.258 N 
ATOM     25  C   UNL     1      33.856 -17.435 -24.612  0.00  0.00    +0.402 C 
ATOM     26  H   UNL     1      35.437 -16.670 -23.608  0.00  0.00    +0.154 HD
BRANCH  25  27
ATOM     27  O   UNL     1      34.677 -18.521 -24.754  0.00  0.00    -0.431 OA
ATOM     28  C   UNL     1      34.841 -19.342 -23.591  0.00  0.00    +0.257 C 
ENDBRANCH  25  27
ENDBRANCH  15  24
ENDBRANCH   7  14
BRANCH   2  29
ATOM     29  C   UNL     1      31.875  -8.174 -23.304  0.00  0.00    +0.146 C 
BRANCH  29  31
ATOM     30  F   UNL     1      31.983  -6.262 -25.393  0.00  0.00    -0.204 F 
ATOM     31  C   UNL     1      33.129  -7.419 -23.665  0.00  0.00    +0.027 C 
ATOM     32  C   UNL     1      33.111  -6.490 -24.706  0.00  0.00    +0.138 C 
ATOM     33  C   UNL     1      34.308  -7.649 -22.956  0.00  0.00    -0.000 C 
ATOM     34  C   UNL     1      34.272  -5.793 -25.038  0.00  0.00    +0.029 C 
ATOM     35  C   UNL     1      35.470  -6.952 -23.289  0.00  0.00    -0.000 C 
ATOM     36  C   UNL     1      35.452  -6.024 -24.330  0.00  0.00    +0.002 C 
ENDBRANCH  29  31
ENDBRANCH   2  29
TORSDOF 5
ENDMDL
MODEL 5
REMARK VINA RESULT:      -9.9      3.787      7.225
REMARK  Name = 54674461
REMARK  5 active torsions:
REMARK  status: ('A' for Active; 'I' for Inactive)
REMARK    1  A    between atoms: N_2  and  C_29
REMARK    2  A    between atoms: C_7  and  C_14
REMARK    3  A    between atoms: C_15  and  N_21
REMARK    4  A    between atoms: C_22  and  O_24
REMARK    5  A    between atoms: C_29  and  C_31
REMARK                            x       y       z     vdW  Elec       q    Type
REMARK                         _______ _______ _______ _____ _____    ______ ____
ROOT
ATOM      1  F   UNL     1      35.760 -20.796 -20.406  0.00  0.00    -0.207 F 
ATOM      2  N   UNL     1      32.518 -22.893 -16.670  0.00  0.00    -0.193 N 
ATOM      3  N   UNL     1      33.326 -23.530 -15.804  0.00  0.00    -0.168 NA
ATOM      4  N   UNL     1      32.636 -21.591 -18.706  0.00  0.00    -0.251 NA
ATOM      5  C   UNL     1      34.529 -22.558 -17.490  0.00  0.00    +0.133 C 
ATOM      6  C   UNL     1      33.184 -22.293 -17.699  0.00  0.00    +0.133 C 
ATOM      7  C   UNL     1      34.548 -23.323 -16.307  0.00  0.00    +0.172 C 
ATOM      8  C   UNL     1      35.449 -22.051 -18.415  0.00  0.00    +0.015 C 
ATOM      9  C   UNL     1      34.939 -21.312 -19.483  0.00  0.00    +0.139 C 
ATOM     10  C   UNL     1      33.564 -21.121 -19.573  0.00  0.00    +0.182 C 
ENDROOT
BRANCH   7  14
ATOM     11  N   UNL     1      36.862 -23.193 -15.806  0.00  0.00    -0.326 NA
ATOM     12  N   UNL     1      35.516 -24.988 -14.924  0.00  0.00    -0.326 NA
ATOM     13  N   UNL     1      39.172 -23.068 -15.302  0.00  0.00    -0.334 N 
ATOM     14  C   UNL     1      35.706 -23.865 -15.642  0.00  0.00    +0.156 C 
ATOM     15  C   UNL     1      37.864 -24.874 -14.405  0.00  0.00    +0.210 C 
ATOM     16  C   UNL     1      37.925 -23.728 -15.171  0.00  0.00    +0.193 C 
ATOM     17  C   UNL     1      36.621 -25.468 -14.316  0.00  0.00    +0.193 C 
ATOM     18  H   UNL     1      39.240 -22.248 -15.843  0.00  0.00    +0.144 HD
ATOM     19  H   UNL     1      39.970 -23.428 -14.851  0.00  0.00    +0.144 HD
ATOM     20  N   UNL     1      36.489 -26.650 -13.546  0.00  0.00    -0.334 N 
ATOM     21  H   UNL     1      35.612 -27.091 -13.468  0.00  0.00    +0.144 HD
ATOM     22  H   UNL     1      37.274 -27.030 -13.089  0.00  0.00    +0.144 HD
BRANCH  15  24
ATOM     23  O   UNL     1      40.401 -26.032 -15.524  0.00  0.00    -0.226 OA
ATOM     24  N   UNL     1      38.987 -25.402 -13.763  0.00  0.00    -0.258 N 
ATOM     25  C   UNL     1      40.143 -25.928 -14.331  0.00  0.00    +0.402 C 
ATOM     26  H   UNL     1      38.957 -25.400 -12.779  0.00  0.00    +0.154 HD
BRANCH  25  27
ATOM     27  O   UNL     1      40.992 -26.333 -13.335  0.00  0.00    -0.431 OA
ATOM     28  C   UNL     1      41.636 -27.597 -13.533  0.00  0.00    +0.257 C 
ENDBRANCH  25  27
ENDBRANCH  15  24
ENDBRANCH   7  14
BRANCH   2  29
ATOM     29  C   UNL     1      31.092 -22.898 -16.449  0.00  0.00    +0.146 C 
BRANCH  29  31
ATOM     30  F   UNL     1      31.605 -22.022 -13.804  0.00  0.00    -0.204 F 
ATOM     31  C   UNL     1      30.679 -23.680 -15.228  0.00  0.00    +0.027 C 
ATOM     32  C   UNL     1      30.964 -23.189 -13.953  0.00  0.00    +0.138 C 
ATOM     33  C   UNL     1      30.012 -24.896 -15.373  0.00  0.00    -0.000 C 
ATOM     34  C   UNL     1      30.582 -23.914 -12.825  0.00  0.00    +0.029 C 
ATOM     35  C   UNL     1      29.630 -25.622 -14.244  0.00  0.00    -0.000 C 
ATOM     36  C   UNL     1      29.915 -25.132 -12.970  0.00  0.00    +0.002 C 
ENDBRANCH  29  31
ENDBRANCH   2  29
TORSDOF 5
ENDMDL
MODEL 6
REMARK VINA RESULT:      -9.7      1.611      2.255
REMARK  Name = 54674461
REMARK  5 active torsions:
REMARK  status: ('A' for Active; 'I' for Inactive)
REMARK    1  A    between atoms: N_2  and  C_29
REMARK    2  A    between atoms: C_7  and  C_14
REMARK    3  A    between atoms: C_15  and  N_21
REMARK    4  A    between atoms: C_22  and  O_24
REMARK    5  A    between atoms: C_29  and  C_31
REMARK                            x       y       z     vdW  Elec       q    Type
REMARK                         _______ _______ _______ _____ _____    ______ ____
ROOT
ATOM      1  F   UNL     1      31.280 -24.013 -15.551  0.00  0.00    -0.207 F 
ATOM      2  N   UNL     1      36.527 -22.862 -15.474  0.00  0.00    -0.193 N 
ATOM      3  N   UNL     1      36.756 -22.135 -16.583  0.00  0.00    -0.168 NA
ATOM      4  N   UNL     1      34.712 -23.975 -14.325  0.00  0.00    -0.251 NA
ATOM      5  C   UNL     1      34.553 -22.731 -16.429  0.00  0.00    +0.133 C 
ATOM      6  C   UNL     1      35.226 -23.246 -15.332  0.00  0.00    +0.133 C 
ATOM      7  C   UNL     1      35.552 -22.058 -17.159  0.00  0.00    +0.172 C 
ATOM      8  C   UNL     1      33.179 -22.982 -16.533  0.00  0.00    +0.015 C 
ATOM      9  C   UNL     1      32.589 -23.735 -15.517  0.00  0.00    +0.139 C 
ATOM     10  C   UNL     1      33.383 -24.191 -14.470  0.00  0.00    +0.182 C 
ENDROOT
BRANCH   7  14
ATOM     11  N   UNL     1      36.492 -20.767 -18.912  0.00  0.00    -0.326 NA
ATOM     12  N   UNL     1      34.145 -21.317 -18.918  0.00  0.00    -0.326 NA
ATOM     13  N   UNL     1      37.425 -19.476 -20.665  0.00  0.00    -0.334 N 
ATOM     14  C   UNL     1      35.387 -21.341 -18.399  0.00  0.00    +0.156 C 
ATOM     15  C   UNL     1      35.080 -20.003 -20.705  0.00  0.00    +0.210 C 
ATOM     16  C   UNL     1      36.301 -20.103 -20.071  0.00  0.00    +0.193 C 
ATOM     17  C   UNL     1      34.027 -20.636 -20.077  0.00  0.00    +0.193 C 
ATOM     18  H   UNL     1      38.307 -19.534 -20.230  0.00  0.00    +0.144 HD
ATOM     19  H   UNL     1      37.324 -18.984 -21.511  0.00  0.00    +0.144 HD
ATOM     20  N   UNL     1      32.743 -20.571 -20.675  0.00  0.00    -0.334 N 
ATOM     21  H   UNL     1      31.977 -21.015 -20.245  0.00  0.00    +0.144 HD
ATOM     22  H   UNL     1      32.619 -20.081 -21.520  0.00  0.00    +0.144 HD
BRANCH  15  24
ATOM     23  O   UNL     1      35.388 -17.080 -21.331  0.00  0.00    -0.226 OA
ATOM     24  N   UNL     1      34.918 -19.304 -21.904  0.00  0.00    -0.258 N 
ATOM     25  C   UNL     1      35.074 -17.942 -22.143  0.00  0.00    +0.402 C 
ATOM     26  H   UNL     1      34.661 -19.847 -22.684  0.00  0.00    +0.154 HD
BRANCH  25  27
ATOM     27  O   UNL     1      34.819 -17.682 -23.462  0.00  0.00    -0.431 OA
ATOM     28  C   UNL     1      34.143 -18.716 -24.187  0.00  0.00    +0.257 C 
ENDBRANCH  25  27
ENDBRANCH  15  24
ENDBRANCH   7  14
BRANCH   2  29
ATOM     29  C   UNL     1      37.620 -23.158 -14.578  0.00  0.00    +0.146 C 
BRANCH  29  31
ATOM     30  F   UNL     1      37.323 -23.514 -11.782  0.00  0.00    -0.204 F 
ATOM     31  C   UNL     1      37.508 -24.514 -13.928  0.00  0.00    +0.027 C 
ATOM     32  C   UNL     1      37.363 -24.617 -12.544  0.00  0.00    +0.138 C 
ATOM     33  C   UNL     1      37.548 -25.667 -14.712  0.00  0.00    -0.000 C 
ATOM     34  C   UNL     1      37.259 -25.871 -11.945  0.00  0.00    +0.029 C 
ATOM     35  C   UNL     1      37.444 -26.923 -14.112  0.00  0.00    -0.000 C 
ATOM     36  C   UNL     1      37.301 -27.025 -12.729  0.00  0.00    +0.002 C 
ENDBRANCH  29  31
ENDBRANCH   2  29
TORSDOF 5
ENDMDL
MODEL 7
REMARK VINA RESULT:      -9.3      1.151      2.128
REMARK  Name = 54674461
REMARK  5 active torsions:
REMARK  status: ('A' for Active; 'I' for Inactive)
REMARK    1  A    between atoms: N_2  and  C_29
REMARK    2  A    between atoms: C_7  and  C_14
REMARK    3  A    between atoms: C_15  and  N_21
REMARK    4  A    between atoms: C_22  and  O_24
REMARK    5  A    between atoms: C_29  and  C_31
REMARK                            x       y       z     vdW  Elec       q    Type
REMARK                         _______ _______ _______ _____ _____    ______ ____
ROOT
ATOM      1  F   UNL     1      29.367 -22.887 -15.419  0.00  0.00    -0.207 F 
ATOM      2  N   UNL     1      34.582 -24.177 -15.470  0.00  0.00    -0.193 N 
ATOM      3  N   UNL     1      35.125 -23.459 -16.470  0.00  0.00    -0.168 NA
ATOM      4  N   UNL     1      32.446 -24.549 -14.398  0.00  0.00    -0.251 NA
ATOM      5  C   UNL     1      32.882 -23.047 -16.281  0.00  0.00    +0.133 C 
ATOM      6  C   UNL     1      33.243 -23.969 -15.312  0.00  0.00    +0.133 C 
ATOM      7  C   UNL     1      34.086 -22.773 -16.960  0.00  0.00    +0.172 C 
ATOM      8  C   UNL     1      31.541 -22.651 -16.344  0.00  0.00    +0.015 C 
ATOM      9  C   UNL     1      30.664 -23.219 -15.419  0.00  0.00    +0.139 C 
ATOM     10  C   UNL     1      31.160 -24.136 -14.497  0.00  0.00    +0.182 C 
ENDROOT
BRANCH   7  14
ATOM     11  N   UNL     1      33.170 -21.542 -18.768  0.00  0.00    -0.326 NA
ATOM     12  N   UNL     1      35.531 -21.449 -18.294  0.00  0.00    -0.326 NA
ATOM     13  N   UNL     1      32.260 -20.311 -20.575  0.00  0.00    -0.334 N 
ATOM     14  C   UNL     1      34.273 -21.871 -18.068  0.00  0.00    +0.156 C 
ATOM     15  C   UNL     1      34.621 -20.194 -20.135  0.00  0.00    +0.210 C 
ATOM     16  C   UNL     1      33.381 -20.698 -19.798  0.00  0.00    +0.193 C 
ATOM     17  C   UNL     1      35.670 -20.608 -19.340  0.00  0.00    +0.193 C 
ATOM     18  H   UNL     1      31.366 -20.658 -20.354  0.00  0.00    +0.144 HD
ATOM     19  H   UNL     1      32.376 -19.695 -21.333  0.00  0.00    +0.144 HD
ATOM     20  N   UNL     1      36.971 -20.128 -19.632  0.00  0.00    -0.334 N 
ATOM     21  H   UNL     1      37.735 -20.410 -19.079  0.00  0.00    +0.144 HD
ATOM     22  H   UNL     1      37.111 -19.514 -20.389  0.00  0.00    +0.144 HD
BRANCH  15  24
ATOM     23  O   UNL     1      35.115 -20.748 -23.047  0.00  0.00    -0.226 OA
ATOM     24  N   UNL     1      34.803 -19.323 -21.212  0.00  0.00    -0.258 N 
ATOM     25  C   UNL     1      35.030 -19.632 -22.550  0.00  0.00    +0.402 C 
ATOM     26  H   UNL     1      34.765 -18.363 -20.997  0.00  0.00    +0.154 HD
BRANCH  25  27
ATOM     27  O   UNL     1      35.150 -18.473 -23.267  0.00  0.00    -0.431 OA
ATOM     28  C   UNL     1      35.373 -17.281 -22.505  0.00  0.00    +0.257 C 
ENDBRANCH  25  27
ENDBRANCH  15  24
ENDBRANCH   7  14
BRANCH   2  29
ATOM     29  C   UNL     1      35.419 -25.059 -14.691  0.00  0.00    +0.146 C 
BRANCH  29  31
ATOM     30  F   UNL     1      34.090 -25.070 -12.188  0.00  0.00    -0.204 F 
ATOM     31  C   UNL     1      35.985 -24.407 -13.455  0.00  0.00    +0.027 C 
ATOM     32  C   UNL     1      35.276 -24.450 -12.253  0.00  0.00    +0.138 C 
ATOM     33  C   UNL     1      37.219 -23.759 -13.512  0.00  0.00    -0.000 C 
ATOM     34  C   UNL     1      35.802 -23.847 -11.111  0.00  0.00    +0.029 C 
ATOM     35  C   UNL     1      37.745 -23.156 -12.369  0.00  0.00    -0.000 C 
ATOM     36  C   UNL     1      37.036 -23.199 -11.169  0.00  0.00    +0.002 C 
ENDBRANCH  29  31
ENDBRANCH   2  29
TORSDOF 5
ENDMDL
MODEL 8
REMARK VINA RESULT:      -9.2      4.091      7.416
REMARK  Name = 54674461
REMARK  5 active torsions:
REMARK  status: ('A' for Active; 'I' for Inactive)
REMARK    1  A    between atoms: N_2  and  C_29
REMARK    2  A    between atoms: C_7  and  C_14
REMARK    3  A    between atoms: C_15  and  N_21
REMARK    4  A    between atoms: C_22  and  O_24
REMARK    5  A    between atoms: C_29  and  C_31
REMARK                            x       y       z     vdW  Elec       q    Type
REMARK                         _______ _______ _______ _____ _____    ______ ____
ROOT
ATOM      1  F   UNL     1      35.205 -20.746 -20.677  0.00  0.00    -0.207 F 
ATOM      2  N   UNL     1      32.099 -22.654 -16.731  0.00  0.00    -0.193 N 
ATOM      3  N   UNL     1      32.923 -23.342 -15.920  0.00  0.00    -0.168 NA
ATOM      4  N   UNL     1      32.159 -21.356 -18.771  0.00  0.00    -0.251 NA
ATOM      5  C   UNL     1      34.067 -22.439 -17.684  0.00  0.00    +0.133 C 
ATOM      6  C   UNL     1      32.730 -22.093 -17.802  0.00  0.00    +0.133 C 
ATOM      7  C   UNL     1      34.119 -23.208 -16.504  0.00  0.00    +0.172 C 
ATOM      8  C   UNL     1      34.952 -21.986 -18.669  0.00  0.00    +0.015 C 
ATOM      9  C   UNL     1      34.418 -21.214 -19.701  0.00  0.00    +0.139 C 
ATOM     10  C   UNL     1      33.054 -20.940 -19.699  0.00  0.00    +0.182 C 
ENDROOT
BRANCH   7  14
ATOM     11  N   UNL     1      35.126 -25.064 -15.425  0.00  0.00    -0.326 NA
ATOM     12  N   UNL     1      36.413 -23.087 -15.918  0.00  0.00    -0.326 NA
ATOM     13  N   UNL     1      36.137 -26.915 -14.347  0.00  0.00    -0.334 N 
ATOM     14  C   UNL     1      35.284 -23.820 -15.917  0.00  0.00    +0.156 C 
ATOM     15  C   UNL     1      37.453 -24.960 -14.820  0.00  0.00    +0.210 C 
ATOM     16  C   UNL     1      36.236 -25.606 -14.882  0.00  0.00    +0.193 C 
ATOM     17  C   UNL     1      37.484 -23.690 -15.359  0.00  0.00    +0.193 C 
ATOM     18  H   UNL     1      35.278 -27.396 -14.379  0.00  0.00    +0.144 HD
ATOM     19  H   UNL     1      36.926 -27.343 -13.944  0.00  0.00    +0.144 HD
ATOM     20  N   UNL     1      38.703 -22.969 -15.328  0.00  0.00    -0.334 N 
ATOM     21  H   UNL     1      38.748 -22.062 -15.706  0.00  0.00    +0.144 HD
ATOM     22  H   UNL     1      39.505 -23.377 -14.927  0.00  0.00    +0.144 HD
BRANCH  15  24
ATOM     23  O   UNL     1      38.075 -25.641 -11.961  0.00  0.00    -0.226 OA
ATOM     24  N   UNL     1      38.582 -25.551 -14.247  0.00  0.00    -0.258 N 
ATOM     25  C   UNL     1      38.822 -25.847 -12.909  0.00  0.00    +0.402 C 
ATOM     26  H   UNL     1      39.303 -25.790 -14.874  0.00  0.00    +0.154 HD
BRANCH  25  27
ATOM     27  O   UNL     1      40.057 -26.424 -12.789  0.00  0.00    -0.431 OA
ATOM     28  C   UNL     1      40.861 -26.443 -13.974  0.00  0.00    +0.257 C 
ENDBRANCH  25  27
ENDBRANCH  15  24
ENDBRANCH   7  14
BRANCH   2  29
ATOM     29  C   UNL     1      30.693 -22.574 -16.415  0.00  0.00    +0.146 C 
BRANCH  29  31
ATOM     30  F   UNL     1      28.549 -24.409 -16.680  0.00  0.00    -0.204 F 
ATOM     31  C   UNL     1      30.273 -23.516 -15.314  0.00  0.00    +0.027 C 
ATOM     32  C   UNL     1      29.208 -24.394 -15.513  0.00  0.00    +0.138 C 
ATOM     33  C   UNL     1      30.952 -23.508 -14.095  0.00  0.00    -0.000 C 
ATOM     34  C   UNL     1      28.822 -25.264 -14.494  0.00  0.00    +0.029 C 
ATOM     35  C   UNL     1      30.566 -24.379 -13.076  0.00  0.00    -0.000 C 
ATOM     36  C   UNL     1      29.500 -25.256 -13.274  0.00  0.00    +0.002 C 
ENDBRANCH  29  31
ENDBRANCH   2  29
TORSDOF 5
ENDMDL
MODEL 9
REMARK VINA RESULT:      -9.1      9.044     13.718
REMARK  Name = 54674461
REMARK  5 active torsions:
REMARK  status: ('A' for Active; 'I' for Inactive)
REMARK    1  A    between atoms: N_2  and  C_29
REMARK    2  A    between atoms: C_7  and  C_14
REMARK    3  A    between atoms: C_15  and  N_21
REMARK    4  A    between atoms: C_22  and  O_24
REMARK    5  A    between atoms: C_29  and  C_31
REMARK                            x       y       z     vdW  Elec       q    Type
REMARK                         _______ _______ _______ _____ _____    ______ ____
ROOT
ATOM      1  F   UNL     1      31.632 -10.840 -17.439  0.00  0.00    -0.207 F 
ATOM      2  N   UNL     1      31.959 -10.350 -22.779  0.00  0.00    -0.193 N 
ATOM      3  N   UNL     1      32.611 -11.446 -23.206  0.00  0.00    -0.168 NA
ATOM      4  N   UNL     1      31.173  -9.337 -20.727  0.00  0.00    -0.251 NA
ATOM      5  C   UNL     1      32.366 -11.466 -20.931  0.00  0.00    +0.133 C 
ATOM      6  C   UNL     1      31.786 -10.309 -21.426  0.00  0.00    +0.133 C 
ATOM      7  C   UNL     1      32.856 -12.122 -22.078  0.00  0.00    +0.172 C 
ATOM      8  C   UNL     1      32.329 -11.678 -19.547  0.00  0.00    +0.015 C 
ATOM      9  C   UNL     1      31.706 -10.703 -18.768  0.00  0.00    +0.139 C 
ATOM     10  C   UNL     1      31.162  -9.587 -19.396  0.00  0.00    +0.182 C 
ENDROOT
BRANCH   7  14
ATOM     11  N   UNL     1      33.992 -13.871 -20.950  0.00  0.00    -0.326 NA
ATOM     12  N   UNL     1      33.699 -13.943 -23.341  0.00  0.00    -0.326 NA
ATOM     13  N   UNL     1      35.127 -15.621 -19.828  0.00  0.00    -0.334 N 
ATOM     14  C   UNL     1      33.554 -13.382 -22.125  0.00  0.00    +0.156 C 
ATOM     15  C   UNL     1      34.857 -15.727 -22.214  0.00  0.00    +0.210 C 
ATOM     16  C   UNL     1      34.641 -15.051 -21.031  0.00  0.00    +0.193 C 
ATOM     17  C   UNL     1      34.359 -15.120 -23.349  0.00  0.00    +0.193 C 
ATOM     18  H   UNL     1      34.985 -15.157 -18.972  0.00  0.00    +0.144 HD
ATOM     19  H   UNL     1      35.605 -16.481 -19.849  0.00  0.00    +0.144 HD
ATOM     20  N   UNL     1      34.547 -15.761 -24.599  0.00  0.00    -0.334 N 
ATOM     21  H   UNL     1      34.200 -15.346 -25.421  0.00  0.00    +0.144 HD
ATOM     22  H   UNL     1      35.025 -16.621 -24.644  0.00  0.00    +0.144 HD
BRANCH  15  24
ATOM     23  O   UNL     1      34.414 -18.284 -20.699  0.00  0.00    -0.226 OA
ATOM     24  N   UNL     1      35.538 -16.946 -22.262  0.00  0.00    -0.258 N 
ATOM     25  C   UNL     1      35.291 -18.107 -21.535  0.00  0.00    +0.402 C 
ATOM     26  H   UNL     1      36.292 -16.990 -22.894  0.00  0.00    +0.154 HD
BRANCH  25  27
ATOM     27  O   UNL     1      36.199 -19.066 -21.895  0.00  0.00    -0.431 OA
ATOM     28  C   UNL     1      37.485 -18.980 -21.271  0.00  0.00    +0.257 C 
ENDBRANCH  25  27
ENDBRANCH  15  24
ENDBRANCH   7  14
BRANCH   2  29
ATOM     29  C   UNL     1      31.524  -9.362 -23.737  0.00  0.00    +0.146 C 
BRANCH  29  31
ATOM     30  F   UNL     1      34.270  -8.676 -23.596  0.00  0.00    -0.204 F 
ATOM     31  C   UNL     1      32.010  -7.970 -23.422  0.00  0.00    +0.027 C 
ATOM     32  C   UNL     1      33.378  -7.702 -23.368  0.00  0.00    +0.138 C 
ATOM     33  C   UNL     1      31.090  -6.948 -23.185  0.00  0.00    -0.000 C 
ATOM     34  C   UNL     1      33.826  -6.413 -23.078  0.00  0.00    +0.029 C 
ATOM     35  C   UNL     1      31.538  -5.659 -22.893  0.00  0.00    -0.000 C 
ATOM     36  C   UNL     1      32.906  -5.392 -22.839  0.00  0.00    +0.002 C 
ENDBRANCH  29  31
ENDBRANCH   2  29
TORSDOF 5
ENDMDL
