MODEL 1
REMARK VINA RESULT:     -10.2      0.000      0.000
REMARK  Name = 44422489
REMARK  2 active torsions:
REMARK  status: ('A' for Active; 'I' for Inactive)
REMARK    1  A    between atoms: N_2  and  C_12
REMARK    2  A    between atoms: C_7  and  C_20
REMARK                            x       y       z     vdW  Elec       q    Type
REMARK                         _______ _______ _______ _____ _____    ______ ____
ROOT
ATOM      1  N   UNL     1      32.705 -12.058 -22.116  0.00  0.00    -0.243 N 
ATOM      2  N   UNL     1      32.535  -8.396 -22.698  0.00  0.00    -0.297 N 
ATOM      3  N   UNL     1      33.517 -10.117 -23.929  0.00  0.00    -0.226 NA
ATOM      4  N   UNL     1      31.542 -11.962 -20.220  0.00  0.00    -0.224 NA
ATOM      5  C   UNL     1      32.397 -10.733 -21.915  0.00  0.00    +0.108 C 
ATOM      6  C   UNL     1      32.829  -9.730 -22.874  0.00  0.00    +0.148 C 
ATOM      7  C   UNL     1      33.433 -12.445 -23.238  0.00  0.00    +0.076 C 
ATOM      8  C   UNL     1      33.805 -11.462 -24.089  0.00  0.00    +0.115 C 
ATOM      9  C   UNL     1      31.683 -10.699 -20.740  0.00  0.00    +0.118 C 
ATOM     10  C   UNL     1      32.161 -12.756 -21.068  0.00  0.00    +0.172 C 
ATOM     11  H   UNL     1      32.018  -8.160 -21.894  0.00  0.00    +0.154 HD
ENDROOT
BRANCH   2  12
ATOM     12  C   UNL     1      32.892  -7.348 -23.541  0.00  0.00    +0.041 C 
ATOM     13  C   UNL     1      31.954  -6.812 -24.423  0.00  0.00    -0.009 C 
ATOM     14  C   UNL     1      34.188  -6.833 -23.502  0.00  0.00    -0.009 C 
ATOM     15  C   UNL     1      32.312  -5.761 -25.268  0.00  0.00    -0.003 C 
ATOM     16  C   UNL     1      34.546  -5.783 -24.347  0.00  0.00    -0.003 C 
ATOM     17  C   UNL     1      30.559  -7.342 -24.486  0.00  0.00    +0.032 C 
ATOM     18  C   UNL     1      35.214  -7.388 -22.568  0.00  0.00    +0.032 C 
ATOM     19  C   UNL     1      33.608  -5.246 -25.229  0.00  0.00    -0.001 C 
ENDBRANCH   2  12
BRANCH   7  20
ATOM     20  C   UNL     1      33.809 -13.840 -23.509  0.00  0.00    +0.016 C 
ATOM     21  C   UNL     1      33.311 -14.490 -24.638  0.00  0.00    +0.001 C 
ATOM     22  C   UNL     1      34.666 -14.514 -22.638  0.00  0.00    +0.001 C 
ATOM     23  C   UNL     1      33.667 -15.814 -24.896  0.00  0.00    +0.000 C 
ATOM     24  C   UNL     1      35.023 -15.837 -22.896  0.00  0.00    +0.000 C 
ATOM     25  C   UNL     1      34.524 -16.487 -24.024  0.00  0.00    +0.000 C 
ENDBRANCH   7  20
TORSDOF 2
ENDMDL
MODEL 2
REMARK VINA RESULT:     -10.2      0.002      1.757
REMARK  Name = 44422489
REMARK  2 active torsions:
REMARK  status: ('A' for Active; 'I' for Inactive)
REMARK    1  A    between atoms: N_2  and  C_12
REMARK    2  A    between atoms: C_7  and  C_20
REMARK                            x       y       z     vdW  Elec       q    Type
REMARK                         _______ _______ _______ _____ _____    ______ ____
ROOT
ATOM      1  N   UNL     1      32.705 -12.058 -22.116  0.00  0.00    -0.243 N 
ATOM      2  N   UNL     1      32.535  -8.397 -22.699  0.00  0.00    -0.297 N 
ATOM      3  N   UNL     1      33.518 -10.117 -23.929  0.00  0.00    -0.226 NA
ATOM      4  N   UNL     1      31.541 -11.961 -20.221  0.00  0.00    -0.224 NA
ATOM      5  C   UNL     1      32.397 -10.733 -21.916  0.00  0.00    +0.108 C 
ATOM      6  C   UNL     1      32.830  -9.730 -22.874  0.00  0.00    +0.148 C 
ATOM      7  C   UNL     1      33.433 -12.445 -23.237  0.00  0.00    +0.076 C 
ATOM      8  C   UNL     1      33.806 -11.463 -24.089  0.00  0.00    +0.115 C 
ATOM      9  C   UNL     1      31.683 -10.699 -20.741  0.00  0.00    +0.118 C 
ATOM     10  C   UNL     1      32.161 -12.755 -21.068  0.00  0.00    +0.172 C 
ATOM     11  H   UNL     1      32.018  -8.160 -21.896  0.00  0.00    +0.154 HD
ENDROOT
BRANCH   2  12
ATOM     12  C   UNL     1      32.893  -7.349 -23.542  0.00  0.00    +0.041 C 
ATOM     13  C   UNL     1      34.189  -6.835 -23.505  0.00  0.00    -0.009 C 
ATOM     14  C   UNL     1      31.955  -6.813 -24.425  0.00  0.00    -0.009 C 
ATOM     15  C   UNL     1      34.547  -5.784 -24.349  0.00  0.00    -0.003 C 
ATOM     16  C   UNL     1      32.313  -5.763 -25.270  0.00  0.00    -0.003 C 
ATOM     17  C   UNL     1      35.214  -7.389 -22.570  0.00  0.00    +0.032 C 
ATOM     18  C   UNL     1      30.559  -7.343 -24.488  0.00  0.00    +0.032 C 
ATOM     19  C   UNL     1      33.610  -5.249 -25.232  0.00  0.00    -0.001 C 
ENDBRANCH   2  12
BRANCH   7  20
ATOM     20  C   UNL     1      33.809 -13.841 -23.508  0.00  0.00    +0.016 C 
ATOM     21  C   UNL     1      33.310 -14.491 -24.637  0.00  0.00    +0.001 C 
ATOM     22  C   UNL     1      34.666 -14.514 -22.637  0.00  0.00    +0.001 C 
ATOM     23  C   UNL     1      33.667 -15.815 -24.894  0.00  0.00    +0.000 C 
ATOM     24  C   UNL     1      35.022 -15.838 -22.894  0.00  0.00    +0.000 C 
ATOM     25  C   UNL     1      34.524 -16.488 -24.023  0.00  0.00    +0.000 C 
ENDBRANCH   7  20
TORSDOF 2
ENDMDL
MODEL 3
REMARK VINA RESULT:     -10.1     11.394     16.287
REMARK  Name = 44422489
REMARK  2 active torsions:
REMARK  status: ('A' for Active; 'I' for Inactive)
REMARK    1  A    between atoms: N_2  and  C_12
REMARK    2  A    between atoms: C_7  and  C_20
REMARK                            x       y       z     vdW  Elec       q    Type
REMARK                         _______ _______ _______ _____ _____    ______ ____
ROOT
ATOM      1  N   UNL     1      33.352 -22.909 -16.642  0.00  0.00    -0.243 N 
ATOM      2  N   UNL     1      35.087 -24.743 -13.921  0.00  0.00    -0.297 N 
ATOM      3  N   UNL     1      35.904 -23.499 -15.716  0.00  0.00    -0.226 NA
ATOM      4  N   UNL     1      31.319 -23.437 -15.904  0.00  0.00    -0.224 NA
ATOM      5  C   UNL     1      33.534 -23.678 -15.515  0.00  0.00    +0.108 C 
ATOM      6  C   UNL     1      34.876 -23.977 -15.045  0.00  0.00    +0.148 C 
ATOM      7  C   UNL     1      34.453 -22.415 -17.336  0.00  0.00    +0.076 C 
ATOM      8  C   UNL     1      35.673 -22.731 -16.845  0.00  0.00    +0.115 C 
ATOM      9  C   UNL     1      32.267 -23.992 -15.082  0.00  0.00    +0.118 C 
ATOM     10  C   UNL     1      31.999 -22.790 -16.828  0.00  0.00    +0.172 C 
ATOM     11  H   UNL     1      34.285 -25.075 -13.455  0.00  0.00    +0.154 HD
ENDROOT
BRANCH   2  12
ATOM     12  C   UNL     1      36.317 -25.097 -13.374  0.00  0.00    +0.041 C 
ATOM     13  C   UNL     1      37.048 -26.148 -13.926  0.00  0.00    -0.009 C 
ATOM     14  C   UNL     1      36.819 -24.398 -12.276  0.00  0.00    -0.009 C 
ATOM     15  C   UNL     1      38.281 -26.503 -13.378  0.00  0.00    -0.003 C 
ATOM     16  C   UNL     1      38.052 -24.753 -11.728  0.00  0.00    -0.003 C 
ATOM     17  C   UNL     1      36.537 -26.914 -15.102  0.00  0.00    +0.032 C 
ATOM     18  C   UNL     1      36.058 -23.267 -11.664  0.00  0.00    +0.032 C 
ATOM     19  C   UNL     1      38.783 -25.805 -12.280  0.00  0.00    -0.001 C 
ENDBRANCH   2  12
BRANCH   7  20
ATOM     20  C   UNL     1      34.334 -21.599 -18.553  0.00  0.00    +0.016 C 
ATOM     21  C   UNL     1      35.483 -21.166 -19.217  0.00  0.00    +0.001 C 
ATOM     22  C   UNL     1      33.075 -21.259 -19.046  0.00  0.00    +0.001 C 
ATOM     23  C   UNL     1      35.370 -20.392 -20.372  0.00  0.00    +0.000 C 
ATOM     24  C   UNL     1      32.962 -20.485 -20.201  0.00  0.00    +0.000 C 
ATOM     25  C   UNL     1      34.109 -20.052 -20.865  0.00  0.00    +0.000 C 
ENDBRANCH   7  20
TORSDOF 2
ENDMDL
MODEL 4
REMARK VINA RESULT:     -10.1     11.394     16.304
REMARK  Name = 44422489
REMARK  2 active torsions:
REMARK  status: ('A' for Active; 'I' for Inactive)
REMARK    1  A    between atoms: N_2  and  C_12
REMARK    2  A    between atoms: C_7  and  C_20
REMARK                            x       y       z     vdW  Elec       q    Type
REMARK                         _______ _______ _______ _____ _____    ______ ____
ROOT
ATOM      1  N   UNL     1      33.353 -22.909 -16.642  0.00  0.00    -0.243 N 
ATOM      2  N   UNL     1      35.087 -24.743 -13.920  0.00  0.00    -0.297 N 
ATOM      3  N   UNL     1      35.904 -23.499 -15.716  0.00  0.00    -0.226 NA
ATOM      4  N   UNL     1      31.320 -23.437 -15.904  0.00  0.00    -0.224 NA
ATOM      5  C   UNL     1      33.534 -23.678 -15.515  0.00  0.00    +0.108 C 
ATOM      6  C   UNL     1      34.876 -23.977 -15.044  0.00  0.00    +0.148 C 
ATOM      7  C   UNL     1      34.453 -22.415 -17.336  0.00  0.00    +0.076 C 
ATOM      8  C   UNL     1      35.673 -22.731 -16.845  0.00  0.00    +0.115 C 
ATOM      9  C   UNL     1      32.268 -23.993 -15.082  0.00  0.00    +0.118 C 
ATOM     10  C   UNL     1      31.999 -22.791 -16.828  0.00  0.00    +0.172 C 
ATOM     11  H   UNL     1      34.286 -25.075 -13.455  0.00  0.00    +0.154 HD
ENDROOT
BRANCH   2  12
ATOM     12  C   UNL     1      36.317 -25.097 -13.374  0.00  0.00    +0.041 C 
ATOM     13  C   UNL     1      36.819 -24.399 -12.276  0.00  0.00    -0.009 C 
ATOM     14  C   UNL     1      37.048 -26.150 -13.925  0.00  0.00    -0.009 C 
ATOM     15  C   UNL     1      38.052 -24.753 -11.728  0.00  0.00    -0.003 C 
ATOM     16  C   UNL     1      38.281 -26.504 -13.377  0.00  0.00    -0.003 C 
ATOM     17  C   UNL     1      36.059 -23.268 -11.664  0.00  0.00    +0.032 C 
ATOM     18  C   UNL     1      36.536 -26.916 -15.101  0.00  0.00    +0.032 C 
ATOM     19  C   UNL     1      38.782 -25.806 -12.278  0.00  0.00    -0.001 C 
ENDBRANCH   2  12
BRANCH   7  20
ATOM     20  C   UNL     1      34.335 -21.599 -18.553  0.00  0.00    +0.016 C 
ATOM     21  C   UNL     1      35.483 -21.167 -19.217  0.00  0.00    +0.001 C 
ATOM     22  C   UNL     1      33.075 -21.258 -19.044  0.00  0.00    +0.001 C 
ATOM     23  C   UNL     1      35.371 -20.393 -20.372  0.00  0.00    +0.000 C 
ATOM     24  C   UNL     1      32.963 -20.484 -20.199  0.00  0.00    +0.000 C 
ATOM     25  C   UNL     1      34.110 -20.052 -20.864  0.00  0.00    +0.000 C 
ENDBRANCH   7  20
TORSDOF 2
ENDMDL
MODEL 5
REMARK VINA RESULT:      -9.9      1.272      7.283
REMARK  Name = 44422489
REMARK  2 active torsions:
REMARK  status: ('A' for Active; 'I' for Inactive)
REMARK    1  A    between atoms: N_2  and  C_12
REMARK    2  A    between atoms: C_7  and  C_20
REMARK                            x       y       z     vdW  Elec       q    Type
REMARK                         _______ _______ _______ _____ _____    ______ ____
ROOT
ATOM      1  N   UNL     1      32.519 -10.006 -22.482  0.00  0.00    -0.243 N 
ATOM      2  N   UNL     1      33.009 -13.681 -22.298  0.00  0.00    -0.297 N 
ATOM      3  N   UNL     1      34.199 -12.014 -23.412  0.00  0.00    -0.226 NA
ATOM      4  N   UNL     1      30.729 -10.028 -21.160  0.00  0.00    -0.224 NA
ATOM      5  C   UNL     1      32.308 -11.321 -22.135  0.00  0.00    +0.108 C 
ATOM      6  C   UNL     1      33.196 -12.358 -22.630  0.00  0.00    +0.148 C 
ATOM      7  C   UNL     1      33.585  -9.665 -23.311  0.00  0.00    +0.076 C 
ATOM      8  C   UNL     1      34.372 -10.678 -23.737  0.00  0.00    +0.115 C 
ATOM      9  C   UNL     1      31.198 -11.308 -21.322  0.00  0.00    +0.118 C 
ATOM     10  C   UNL     1      31.542  -9.270 -21.863  0.00  0.00    +0.172 C 
ATOM     11  H   UNL     1      32.246 -13.885 -21.710  0.00  0.00    +0.154 HD
ENDROOT
BRANCH   2  12
ATOM     12  C   UNL     1      33.787 -14.760 -22.707  0.00  0.00    +0.041 C 
ATOM     13  C   UNL     1      34.580 -15.438 -21.783  0.00  0.00    -0.009 C 
ATOM     14  C   UNL     1      33.772 -15.162 -24.043  0.00  0.00    -0.009 C 
ATOM     15  C   UNL     1      35.361 -16.519 -22.193  0.00  0.00    -0.003 C 
ATOM     16  C   UNL     1      34.553 -16.243 -24.453  0.00  0.00    -0.003 C 
ATOM     17  C   UNL     1      34.615 -15.030 -20.346  0.00  0.00    +0.032 C 
ATOM     18  C   UNL     1      32.933 -14.455 -25.057  0.00  0.00    +0.032 C 
ATOM     19  C   UNL     1      35.346 -16.922 -23.528  0.00  0.00    -0.001 C 
ENDBRANCH   2  12
BRANCH   7  20
ATOM     20  C   UNL     1      33.862  -8.285 -23.733  0.00  0.00    +0.016 C 
ATOM     21  C   UNL     1      35.102  -7.707 -23.458  0.00  0.00    +0.001 C 
ATOM     22  C   UNL     1      32.887  -7.553 -24.411  0.00  0.00    +0.001 C 
ATOM     23  C   UNL     1      35.366  -6.397 -23.859  0.00  0.00    +0.000 C 
ATOM     24  C   UNL     1      33.151  -6.243 -24.812  0.00  0.00    +0.000 C 
ATOM     25  C   UNL     1      34.390  -5.665 -24.536  0.00  0.00    +0.000 C 
ENDBRANCH   7  20
TORSDOF 2
ENDMDL
MODEL 6
REMARK VINA RESULT:      -9.1      2.203      4.155
REMARK  Name = 44422489
REMARK  2 active torsions:
REMARK  status: ('A' for Active; 'I' for Inactive)
REMARK    1  A    between atoms: N_2  and  C_12
REMARK    2  A    between atoms: C_7  and  C_20
REMARK                            x       y       z     vdW  Elec       q    Type
REMARK                         _______ _______ _______ _____ _____    ______ ____
ROOT
ATOM      1  N   UNL     1      33.880 -14.910 -24.055  0.00  0.00    -0.243 N 
ATOM      2  N   UNL     1      33.049 -11.296 -23.905  0.00  0.00    -0.297 N 
ATOM      3  N   UNL     1      34.037 -12.724 -22.349  0.00  0.00    -0.226 NA
ATOM      4  N   UNL     1      33.106 -15.155 -26.128  0.00  0.00    -0.224 NA
ATOM      5  C   UNL     1      33.416 -13.676 -24.446  0.00  0.00    +0.108 C 
ATOM      6  C   UNL     1      33.506 -12.542 -23.541  0.00  0.00    +0.148 C 
ATOM      7  C   UNL     1      34.438 -15.080 -22.791  0.00  0.00    +0.076 C 
ATOM      8  C   UNL     1      34.490 -13.985 -21.999  0.00  0.00    +0.115 C 
ATOM      9  C   UNL     1      32.941 -13.854 -25.724  0.00  0.00    +0.118 C 
ATOM     10  C   UNL     1      33.674 -15.764 -25.108  0.00  0.00    +0.172 C 
ATOM     11  H   UNL     1      32.662 -11.214 -24.806  0.00  0.00    +0.154 HD
ENDROOT
BRANCH   2  12
ATOM     12  C   UNL     1      33.079 -10.140 -23.131  0.00  0.00    +0.041 C 
ATOM     13  C   UNL     1      34.163  -9.268 -23.222  0.00  0.00    -0.009 C 
ATOM     14  C   UNL     1      32.024  -9.854 -22.264  0.00  0.00    -0.009 C 
ATOM     15  C   UNL     1      34.194  -8.109 -22.446  0.00  0.00    -0.003 C 
ATOM     16  C   UNL     1      32.055  -8.696 -21.487  0.00  0.00    -0.003 C 
ATOM     17  C   UNL     1      35.306  -9.547 -24.143  0.00  0.00    +0.032 C 
ATOM     18  C   UNL     1      30.850 -10.770 -22.144  0.00  0.00    +0.032 C 
ATOM     19  C   UNL     1      33.140  -7.823 -21.579  0.00  0.00    -0.001 C 
ENDBRANCH   2  12
BRANCH   7  20
ATOM     20  C   UNL     1      34.942 -16.372 -22.302  0.00  0.00    +0.016 C 
ATOM     21  C   UNL     1      35.180 -17.412 -23.201  0.00  0.00    +0.001 C 
ATOM     22  C   UNL     1      35.183 -16.557 -20.941  0.00  0.00    +0.001 C 
ATOM     23  C   UNL     1      35.657 -18.638 -22.738  0.00  0.00    +0.000 C 
ATOM     24  C   UNL     1      35.661 -17.783 -20.478  0.00  0.00    +0.000 C 
ATOM     25  C   UNL     1      35.899 -18.823 -21.376  0.00  0.00    +0.000 C 
ENDBRANCH   7  20
TORSDOF 2
ENDMDL
MODEL 7
REMARK VINA RESULT:      -9.1      2.201      3.898
REMARK  Name = 44422489
REMARK  2 active torsions:
REMARK  status: ('A' for Active; 'I' for Inactive)
REMARK    1  A    between atoms: N_2  and  C_12
REMARK    2  A    between atoms: C_7  and  C_20
REMARK                            x       y       z     vdW  Elec       q    Type
REMARK                         _______ _______ _______ _____ _____    ______ ____
ROOT
ATOM      1  N   UNL     1      33.888 -14.903 -24.040  0.00  0.00    -0.243 N 
ATOM      2  N   UNL     1      33.048 -11.290 -23.893  0.00  0.00    -0.297 N 
ATOM      3  N   UNL     1      34.042 -12.715 -22.336  0.00  0.00    -0.226 NA
ATOM      4  N   UNL     1      33.113 -15.151 -26.112  0.00  0.00    -0.224 NA
ATOM      5  C   UNL     1      33.421 -13.670 -24.431  0.00  0.00    +0.108 C 
ATOM      6  C   UNL     1      33.509 -12.535 -23.527  0.00  0.00    +0.148 C 
ATOM      7  C   UNL     1      34.448 -15.070 -22.777  0.00  0.00    +0.076 C 
ATOM      8  C   UNL     1      34.499 -13.975 -21.985  0.00  0.00    +0.115 C 
ATOM      9  C   UNL     1      32.945 -13.850 -25.709  0.00  0.00    +0.118 C 
ATOM     10  C   UNL     1      33.683 -15.758 -25.093  0.00  0.00    +0.172 C 
ATOM     11  H   UNL     1      32.660 -11.210 -24.793  0.00  0.00    +0.154 HD
ENDROOT
BRANCH   2  12
ATOM     12  C   UNL     1      33.077 -10.134 -23.119  0.00  0.00    +0.041 C 
ATOM     13  C   UNL     1      32.023  -9.850 -22.251  0.00  0.00    -0.009 C 
ATOM     14  C   UNL     1      34.160  -9.260 -23.212  0.00  0.00    -0.009 C 
ATOM     15  C   UNL     1      32.051  -8.690 -21.476  0.00  0.00    -0.003 C 
ATOM     16  C   UNL     1      34.188  -8.100 -22.437  0.00  0.00    -0.003 C 
ATOM     17  C   UNL     1      30.850 -10.767 -22.130  0.00  0.00    +0.032 C 
ATOM     18  C   UNL     1      35.303  -9.537 -24.133  0.00  0.00    +0.032 C 
ATOM     19  C   UNL     1      33.134  -7.816 -21.568  0.00  0.00    -0.001 C 
ENDBRANCH   2  12
BRANCH   7  20
ATOM     20  C   UNL     1      34.955 -16.360 -22.287  0.00  0.00    +0.016 C 
ATOM     21  C   UNL     1      35.206 -17.397 -23.187  0.00  0.00    +0.001 C 
ATOM     22  C   UNL     1      35.188 -16.547 -20.925  0.00  0.00    +0.001 C 
ATOM     23  C   UNL     1      35.687 -18.621 -22.723  0.00  0.00    +0.000 C 
ATOM     24  C   UNL     1      35.669 -17.772 -20.461  0.00  0.00    +0.000 C 
ATOM     25  C   UNL     1      35.919 -18.809 -21.360  0.00  0.00    +0.000 C 
ENDBRANCH   7  20
TORSDOF 2
ENDMDL
MODEL 8
REMARK VINA RESULT:      -9.0     13.683     17.104
REMARK  Name = 44422489
REMARK  2 active torsions:
REMARK  status: ('A' for Active; 'I' for Inactive)
REMARK    1  A    between atoms: N_2  and  C_12
REMARK    2  A    between atoms: C_7  and  C_20
REMARK                            x       y       z     vdW  Elec       q    Type
REMARK                         _______ _______ _______ _____ _____    ______ ____
ROOT
ATOM      1  N   UNL     1      32.854 -23.093 -16.363  0.00  0.00    -0.243 N 
ATOM      2  N   UNL     1      36.142 -24.143 -14.998  0.00  0.00    -0.297 N 
ATOM      3  N   UNL     1      33.973 -24.394 -14.179  0.00  0.00    -0.226 NA
ATOM      4  N   UNL     1      33.736 -22.182 -18.192  0.00  0.00    -0.224 NA
ATOM      5  C   UNL     1      34.215 -23.270 -16.268  0.00  0.00    +0.108 C 
ATOM      6  C   UNL     1      34.784 -23.953 -15.119  0.00  0.00    +0.148 C 
ATOM      7  C   UNL     1      32.016 -23.568 -15.357  0.00  0.00    +0.076 C 
ATOM      8  C   UNL     1      32.610 -24.193 -14.316  0.00  0.00    +0.115 C 
ATOM      9  C   UNL     1      34.735 -22.697 -17.405  0.00  0.00    +0.118 C 
ATOM     10  C   UNL     1      32.619 -22.437 -17.544  0.00  0.00    +0.172 C 
ATOM     11  H   UNL     1      36.703 -23.795 -15.728  0.00  0.00    +0.154 HD
ENDROOT
BRANCH   2  12
ATOM     12  C   UNL     1      36.803 -24.777 -13.951  0.00  0.00    +0.041 C 
ATOM     13  C   UNL     1      37.246 -24.037 -12.855  0.00  0.00    -0.009 C 
ATOM     14  C   UNL     1      37.022 -26.155 -13.997  0.00  0.00    -0.009 C 
ATOM     15  C   UNL     1      37.908 -24.673 -11.806  0.00  0.00    -0.003 C 
ATOM     16  C   UNL     1      37.685 -26.791 -12.948  0.00  0.00    -0.003 C 
ATOM     17  C   UNL     1      37.025 -22.562 -12.778  0.00  0.00    +0.032 C 
ATOM     18  C   UNL     1      36.560 -26.974 -15.158  0.00  0.00    +0.032 C 
ATOM     19  C   UNL     1      38.127 -26.050 -11.851  0.00  0.00    -0.001 C 
ENDBRANCH   2  12
BRANCH   7  20
ATOM     20  C   UNL     1      30.555 -23.404 -15.386  0.00  0.00    +0.016 C 
ATOM     21  C   UNL     1      29.769 -24.279 -16.136  0.00  0.00    +0.001 C 
ATOM     22  C   UNL     1      29.954 -22.374 -14.662  0.00  0.00    +0.001 C 
ATOM     23  C   UNL     1      28.383 -24.123 -16.163  0.00  0.00    +0.000 C 
ATOM     24  C   UNL     1      28.569 -22.218 -14.689  0.00  0.00    +0.000 C 
ATOM     25  C   UNL     1      27.783 -23.093 -15.439  0.00  0.00    +0.000 C 
ENDBRANCH   7  20
TORSDOF 2
ENDMDL
MODEL 9
REMARK VINA RESULT:      -9.0     13.683     17.082
REMARK  Name = 44422489
REMARK  2 active torsions:
REMARK  status: ('A' for Active; 'I' for Inactive)
REMARK    1  A    between atoms: N_2  and  C_12
REMARK    2  A    between atoms: C_7  and  C_20
REMARK                            x       y       z     vdW  Elec       q    Type
REMARK                         _______ _______ _______ _____ _____    ______ ____
ROOT
ATOM      1  N   UNL     1      32.854 -23.093 -16.362  0.00  0.00    -0.243 N 
ATOM      2  N   UNL     1      36.142 -24.145 -15.000  0.00  0.00    -0.297 N 
ATOM      3  N   UNL     1      33.974 -24.397 -14.180  0.00  0.00    -0.226 NA
ATOM      4  N   UNL     1      33.735 -22.181 -18.191  0.00  0.00    -0.224 NA
ATOM      5  C   UNL     1      34.215 -23.270 -16.268  0.00  0.00    +0.108 C 
ATOM      6  C   UNL     1      34.784 -23.954 -15.120  0.00  0.00    +0.148 C 
ATOM      7  C   UNL     1      32.016 -23.569 -15.357  0.00  0.00    +0.076 C 
ATOM      8  C   UNL     1      32.610 -24.195 -14.317  0.00  0.00    +0.115 C 
ATOM      9  C   UNL     1      34.735 -22.697 -17.405  0.00  0.00    +0.118 C 
ATOM     10  C   UNL     1      32.619 -22.437 -17.543  0.00  0.00    +0.172 C 
ATOM     11  H   UNL     1      36.704 -23.796 -15.730  0.00  0.00    +0.154 HD
ENDROOT
BRANCH   2  12
ATOM     12  C   UNL     1      36.803 -24.780 -13.953  0.00  0.00    +0.041 C 
ATOM     13  C   UNL     1      37.024 -26.156 -14.001  0.00  0.00    -0.009 C 
ATOM     14  C   UNL     1      37.246 -24.040 -12.857  0.00  0.00    -0.009 C 
ATOM     15  C   UNL     1      37.687 -26.794 -12.952  0.00  0.00    -0.003 C 
ATOM     16  C   UNL     1      37.909 -24.678 -11.807  0.00  0.00    -0.003 C 
ATOM     17  C   UNL     1      36.563 -26.975 -15.163  0.00  0.00    +0.032 C 
ATOM     18  C   UNL     1      37.024 -22.565 -12.777  0.00  0.00    +0.032 C 
ATOM     19  C   UNL     1      38.130 -26.055 -11.856  0.00  0.00    -0.001 C 
ENDBRANCH   2  12
BRANCH   7  20
ATOM     20  C   UNL     1      30.555 -23.405 -15.385  0.00  0.00    +0.016 C 
ATOM     21  C   UNL     1      29.769 -24.280 -16.135  0.00  0.00    +0.001 C 
ATOM     22  C   UNL     1      29.955 -22.375 -14.661  0.00  0.00    +0.001 C 
ATOM     23  C   UNL     1      28.383 -24.124 -16.162  0.00  0.00    +0.000 C 
ATOM     24  C   UNL     1      28.569 -22.219 -14.688  0.00  0.00    +0.000 C 
ATOM     25  C   UNL     1      27.783 -23.093 -15.437  0.00  0.00    +0.000 C 
ENDBRANCH   7  20
TORSDOF 2
ENDMDL
