MODEL 1
REMARK VINA RESULT:     -12.0      0.000      0.000
REMARK  Name = 9924495
REMARK  4 active torsions:
REMARK  status: ('A' for Active; 'I' for Inactive)
REMARK    1  A    between atoms: N_2  and  C_22
REMARK    2  A    between atoms: C_3  and  C_14
REMARK    3  A    between atoms: C_4  and  C_9
REMARK    4  A    between atoms: C_15  and  C_21
REMARK                            x       y       z     vdW  Elec       q    Type
REMARK                         _______ _______ _______ _____ _____    ______ ____
ROOT
ATOM      1  O   UNL     1      36.765 -23.005 -16.055  0.00  0.00    -0.269 OA
ATOM      2  N   UNL     1      34.510 -22.777 -16.701  0.00  0.00    -0.233 N 
ATOM      3  C   UNL     1      35.165 -23.847 -14.553  0.00  0.00    +0.055 C 
ATOM      4  C   UNL     1      32.843 -23.803 -15.293  0.00  0.00    +0.033 C 
ATOM      5  C   UNL     1      35.563 -23.152 -15.830  0.00  0.00    +0.257 C 
ATOM      6  C   UNL     1      33.874 -24.145 -14.341  0.00  0.00    +0.007 C 
ATOM      7  C   UNL     1      33.194 -23.135 -16.404  0.00  0.00    +0.074 C 
ENDROOT
BRANCH   4   9
ATOM      8  N   UNL     1      31.161 -25.167 -14.264  0.00  0.00    -0.244 NA
ATOM      9  C   UNL     1      31.417 -24.115 -15.073  0.00  0.00    +0.083 C 
ATOM     10  C   UNL     1      30.440 -23.348 -15.683  0.00  0.00    +0.019 C 
ATOM     11  C   UNL     1      29.111 -23.681 -15.447  0.00  0.00    +0.003 C 
ATOM     12  C   UNL     1      29.858 -25.461 -14.058  0.00  0.00    +0.099 C 
ATOM     13  C   UNL     1      28.806 -24.755 -14.620  0.00  0.00    +0.021 C 
ENDBRANCH   4   9
BRANCH   3  14
ATOM     14  C   UNL     1      36.172 -24.200 -13.536  0.00  0.00    +0.014 C 
ATOM     15  C   UNL     1      36.906 -25.383 -13.604  0.00  0.00    +0.069 C 
ATOM     16  C   UNL     1      36.381 -23.309 -12.483  0.00  0.00    +0.001 C 
ATOM     17  C   UNL     1      37.849 -25.677 -12.619  0.00  0.00    +0.010 C 
ATOM     18  C   UNL     1      37.325 -23.602 -11.498  0.00  0.00    +0.000 C 
ATOM     19  C   UNL     1      38.059 -24.786 -11.566  0.00  0.00    +0.001 C 
BRANCH  15  21
ATOM     20  N   UNL     1      36.567 -27.083 -15.530  0.00  0.00    -0.191 NA
ATOM     21  C   UNL     1      36.718 -26.323 -14.669  0.00  0.00    +0.100 C 
ENDBRANCH  15  21
ENDBRANCH   3  14
BRANCH   2  22
ATOM     22  C   UNL     1      34.812 -22.046 -17.917  0.00  0.00    +0.058 C 
ATOM     23  C   UNL     1      33.779 -21.662 -18.763  0.00  0.00    +0.015 C 
ATOM     24  C   UNL     1      36.132 -21.736 -18.222  0.00  0.00    +0.015 C 
ATOM     25  C   UNL     1      34.071 -20.959 -19.932  0.00  0.00    +0.001 C 
ATOM     26  C   UNL     1      36.424 -21.033 -19.390  0.00  0.00    +0.001 C 
ATOM     27  C   UNL     1      35.393 -20.644 -20.246  0.00  0.00    +0.000 C 
ENDBRANCH   2  22
TORSDOF 4
ENDMDL
MODEL 2
REMARK VINA RESULT:     -11.9      1.190      5.184
REMARK  Name = 9924495
REMARK  4 active torsions:
REMARK  status: ('A' for Active; 'I' for Inactive)
REMARK    1  A    between atoms: N_2  and  C_22
REMARK    2  A    between atoms: C_3  and  C_14
REMARK    3  A    between atoms: C_4  and  C_9
REMARK    4  A    between atoms: C_15  and  C_21
REMARK                            x       y       z     vdW  Elec       q    Type
REMARK                         _______ _______ _______ _____ _____    ______ ____
ROOT
ATOM      1  O   UNL     1      33.399 -24.514 -12.941  0.00  0.00    -0.269 OA
ATOM      2  N   UNL     1      32.765 -23.765 -15.083  0.00  0.00    -0.233 N 
ATOM      3  C   UNL     1      35.140 -23.787 -14.344  0.00  0.00    +0.055 C 
ATOM      4  C   UNL     1      34.485 -22.822 -16.484  0.00  0.00    +0.033 C 
ATOM      5  C   UNL     1      33.689 -24.078 -14.056  0.00  0.00    +0.257 C 
ATOM      6  C   UNL     1      35.474 -23.186 -15.496  0.00  0.00    +0.007 C 
ATOM      7  C   UNL     1      33.199 -23.133 -16.248  0.00  0.00    +0.074 C 
ENDROOT
BRANCH   4   9
ATOM      8  N   UNL     1      36.153 -21.977 -17.984  0.00  0.00    -0.244 NA
ATOM      9  C   UNL     1      34.835 -22.168 -17.760  0.00  0.00    +0.083 C 
ATOM     10  C   UNL     1      33.834 -21.788 -18.638  0.00  0.00    +0.019 C 
ATOM     11  C   UNL     1      34.212 -21.174 -19.828  0.00  0.00    +0.003 C 
ATOM     12  C   UNL     1      36.483 -21.377 -19.150  0.00  0.00    +0.099 C 
ATOM     13  C   UNL     1      35.559 -20.961 -20.095  0.00  0.00    +0.021 C 
ENDBRANCH   4   9
BRANCH   3  14
ATOM     14  C   UNL     1      36.193 -24.157 -13.381  0.00  0.00    +0.014 C 
ATOM     15  C   UNL     1      36.911 -25.347 -13.493  0.00  0.00    +0.069 C 
ATOM     16  C   UNL     1      36.463 -23.275 -12.334  0.00  0.00    +0.001 C 
ATOM     17  C   UNL     1      37.898 -25.657 -12.558  0.00  0.00    +0.010 C 
ATOM     18  C   UNL     1      37.451 -23.584 -11.399  0.00  0.00    +0.000 C 
ATOM     19  C   UNL     1      38.169 -24.775 -11.511  0.00  0.00    +0.001 C 
BRANCH  15  21
ATOM     20  N   UNL     1      36.460 -27.027 -15.413  0.00  0.00    -0.191 NA
ATOM     21  C   UNL     1      36.661 -26.277 -14.554  0.00  0.00    +0.100 C 
ENDBRANCH  15  21
ENDBRANCH   3  14
BRANCH   2  22
ATOM     22  C   UNL     1      31.360 -24.078 -14.902  0.00  0.00    +0.058 C 
ATOM     23  C   UNL     1      30.991 -25.322 -14.405  0.00  0.00    +0.015 C 
ATOM     24  C   UNL     1      30.397 -23.129 -15.227  0.00  0.00    +0.015 C 
ATOM     25  C   UNL     1      29.640 -25.622 -14.231  0.00  0.00    +0.001 C 
ATOM     26  C   UNL     1      29.046 -23.429 -15.053  0.00  0.00    +0.001 C 
ATOM     27  C   UNL     1      28.667 -24.676 -14.555  0.00  0.00    +0.000 C 
ENDBRANCH   2  22
TORSDOF 4
ENDMDL
MODEL 3
REMARK VINA RESULT:      -9.8      1.918      5.514
REMARK  Name = 9924495
REMARK  4 active torsions:
REMARK  status: ('A' for Active; 'I' for Inactive)
REMARK    1  A    between atoms: N_2  and  C_22
REMARK    2  A    between atoms: C_3  and  C_14
REMARK    3  A    between atoms: C_4  and  C_9
REMARK    4  A    between atoms: C_15  and  C_21
REMARK                            x       y       z     vdW  Elec       q    Type
REMARK                         _______ _______ _______ _____ _____    ______ ____
ROOT
ATOM      1  O   UNL     1      33.455 -24.698 -14.016  0.00  0.00    -0.269 OA
ATOM      2  N   UNL     1      32.441 -23.585 -15.828  0.00  0.00    -0.233 N 
ATOM      3  C   UNL     1      34.910 -23.828 -15.645  0.00  0.00    +0.055 C 
ATOM      4  C   UNL     1      33.894 -22.501 -17.418  0.00  0.00    +0.033 C 
ATOM      5  C   UNL     1      33.535 -24.100 -15.089  0.00  0.00    +0.257 C 
ATOM      6  C   UNL     1      35.038 -23.063 -16.739  0.00  0.00    +0.007 C 
ATOM      7  C   UNL     1      32.667 -22.791 -16.953  0.00  0.00    +0.074 C 
ENDROOT
BRANCH   4   9
ATOM      8  N   UNL     1      32.855 -21.198 -19.142  0.00  0.00    -0.244 NA
ATOM      9  C   UNL     1      34.015 -21.664 -18.627  0.00  0.00    +0.083 C 
ATOM     10  C   UNL     1      35.264 -21.403 -19.165  0.00  0.00    +0.019 C 
ATOM     11  C   UNL     1      35.327 -20.610 -20.306  0.00  0.00    +0.003 C 
ATOM     12  C   UNL     1      32.956 -20.432 -20.251  0.00  0.00    +0.099 C 
ATOM     13  C   UNL     1      34.157 -20.112 -20.865  0.00  0.00    +0.021 C 
ENDBRANCH   4   9
BRANCH   3  14
ATOM     14  C   UNL     1      36.111 -24.394 -15.005  0.00  0.00    +0.014 C 
ATOM     15  C   UNL     1      37.315 -23.693 -14.943  0.00  0.00    +0.069 C 
ATOM     16  C   UNL     1      36.019 -25.671 -14.450  0.00  0.00    +0.001 C 
ATOM     17  C   UNL     1      38.427 -24.267 -14.328  0.00  0.00    +0.010 C 
ATOM     18  C   UNL     1      37.131 -26.246 -13.835  0.00  0.00    +0.000 C 
ATOM     19  C   UNL     1      38.335 -25.544 -13.773  0.00  0.00    +0.001 C 
BRANCH  15  21
ATOM     20  N   UNL     1      37.555 -21.318 -15.951  0.00  0.00    -0.191 NA
ATOM     21  C   UNL     1      37.447 -22.380 -15.501  0.00  0.00    +0.100 C 
ENDBRANCH  15  21
ENDBRANCH   3  14
BRANCH   2  22
ATOM     22  C   UNL     1      31.087 -23.863 -15.390  0.00  0.00    +0.058 C 
ATOM     23  C   UNL     1      30.102 -22.895 -15.543  0.00  0.00    +0.015 C 
ATOM     24  C   UNL     1      30.788 -25.096 -14.823  0.00  0.00    +0.015 C 
ATOM     25  C   UNL     1      28.800 -23.163 -15.122  0.00  0.00    +0.001 C 
ATOM     26  C   UNL     1      29.485 -25.365 -14.402  0.00  0.00    +0.001 C 
ATOM     27  C   UNL     1      28.491 -24.398 -14.552  0.00  0.00    +0.000 C 
ENDBRANCH   2  22
TORSDOF 4
ENDMDL
MODEL 4
REMARK VINA RESULT:      -9.6      1.617      2.149
REMARK  Name = 9924495
REMARK  4 active torsions:
REMARK  status: ('A' for Active; 'I' for Inactive)
REMARK    1  A    between atoms: N_2  and  C_22
REMARK    2  A    between atoms: C_3  and  C_14
REMARK    3  A    between atoms: C_4  and  C_9
REMARK    4  A    between atoms: C_15  and  C_21
REMARK                            x       y       z     vdW  Elec       q    Type
REMARK                         _______ _______ _______ _____ _____    ______ ____
ROOT
ATOM      1  O   UNL     1      36.266 -22.582 -17.049  0.00  0.00    -0.269 OA
ATOM      2  N   UNL     1      34.012 -22.204 -17.623  0.00  0.00    -0.233 N 
ATOM      3  C   UNL     1      34.659 -23.421 -15.552  0.00  0.00    +0.055 C 
ATOM      4  C   UNL     1      32.326 -23.217 -16.229  0.00  0.00    +0.033 C 
ATOM      5  C   UNL     1      35.063 -22.679 -16.801  0.00  0.00    +0.257 C 
ATOM      6  C   UNL     1      33.359 -23.663 -15.323  0.00  0.00    +0.007 C 
ATOM      7  C   UNL     1      32.687 -22.508 -17.312  0.00  0.00    +0.074 C 
ENDROOT
BRANCH   4   9
ATOM      8  N   UNL     1      30.036 -22.598 -16.571  0.00  0.00    -0.244 NA
ATOM      9  C   UNL     1      30.891 -23.467 -15.989  0.00  0.00    +0.083 C 
ATOM     10  C   UNL     1      30.498 -24.538 -15.205  0.00  0.00    +0.019 C 
ATOM     11  C   UNL     1      29.135 -24.732 -15.007  0.00  0.00    +0.003 C 
ATOM     12  C   UNL     1      28.719 -22.818 -16.355  0.00  0.00    +0.099 C 
ATOM     13  C   UNL     1      28.223 -23.860 -15.589  0.00  0.00    +0.021 C 
ENDBRANCH   4   9
BRANCH   3  14
ATOM     14  C   UNL     1      35.669 -23.880 -14.582  0.00  0.00    +0.014 C 
ATOM     15  C   UNL     1      35.330 -24.244 -13.280  0.00  0.00    +0.069 C 
ATOM     16  C   UNL     1      36.999 -23.944 -15.001  0.00  0.00    +0.001 C 
ATOM     17  C   UNL     1      36.320 -24.672 -12.394  0.00  0.00    +0.010 C 
ATOM     18  C   UNL     1      37.988 -24.373 -14.116  0.00  0.00    +0.000 C 
ATOM     19  C   UNL     1      37.649 -24.737 -12.813  0.00  0.00    +0.001 C 
BRANCH  15  21
ATOM     20  N   UNL     1      32.882 -24.148 -12.437  0.00  0.00    -0.191 NA
ATOM     21  C   UNL     1      33.976 -24.191 -12.814  0.00  0.00    +0.100 C 
ENDBRANCH  15  21
ENDBRANCH   3  14
BRANCH   2  22
ATOM     22  C   UNL     1      34.324 -21.424 -18.806  0.00  0.00    +0.058 C 
ATOM     23  C   UNL     1      33.294 -20.881 -19.564  0.00  0.00    +0.015 C 
ATOM     24  C   UNL     1      35.652 -21.227 -19.167  0.00  0.00    +0.015 C 
ATOM     25  C   UNL     1      33.596 -20.132 -20.701  0.00  0.00    +0.001 C 
ATOM     26  C   UNL     1      35.953 -20.477 -20.304  0.00  0.00    +0.001 C 
ATOM     27  C   UNL     1      34.925 -19.929 -21.071  0.00  0.00    +0.000 C 
ENDBRANCH   2  22
TORSDOF 4
ENDMDL
MODEL 5
REMARK VINA RESULT:      -9.6      1.545      6.368
REMARK  Name = 9924495
REMARK  4 active torsions:
REMARK  status: ('A' for Active; 'I' for Inactive)
REMARK    1  A    between atoms: N_2  and  C_22
REMARK    2  A    between atoms: C_3  and  C_14
REMARK    3  A    between atoms: C_4  and  C_9
REMARK    4  A    between atoms: C_15  and  C_21
REMARK                            x       y       z     vdW  Elec       q    Type
REMARK                         _______ _______ _______ _____ _____    ______ ____
ROOT
ATOM      1  O   UNL     1      32.129 -22.526 -17.602  0.00  0.00    -0.269 OA
ATOM      2  N   UNL     1      32.379 -23.626 -15.533  0.00  0.00    -0.233 N 
ATOM      3  C   UNL     1      34.333 -22.798 -16.830  0.00  0.00    +0.055 C 
ATOM      4  C   UNL     1      34.622 -24.109 -14.796  0.00  0.00    +0.033 C 
ATOM      5  C   UNL     1      32.839 -22.949 -16.689  0.00  0.00    +0.257 C 
ATOM      6  C   UNL     1      35.140 -23.367 -15.922  0.00  0.00    +0.007 C 
ATOM      7  C   UNL     1      33.290 -24.194 -14.643  0.00  0.00    +0.074 C 
ENDROOT
BRANCH   4   9
ATOM      8  N   UNL     1      36.386 -25.637 -14.248  0.00  0.00    -0.244 NA
ATOM      9  C   UNL     1      35.495 -24.734 -13.783  0.00  0.00    +0.083 C 
ATOM     10  C   UNL     1      35.366 -24.385 -12.450  0.00  0.00    +0.019 C 
ATOM     11  C   UNL     1      36.209 -25.002 -11.532  0.00  0.00    +0.003 C 
ATOM     12  C   UNL     1      37.189 -26.216 -13.327  0.00  0.00    +0.099 C 
ATOM     13  C   UNL     1      37.140 -25.935 -11.971  0.00  0.00    +0.021 C 
ENDBRANCH   4   9
BRANCH   3  14
ATOM     14  C   UNL     1      34.915 -22.033 -17.948  0.00  0.00    +0.014 C 
ATOM     15  C   UNL     1      36.221 -21.547 -17.908  0.00  0.00    +0.069 C 
ATOM     16  C   UNL     1      34.118 -21.800 -19.068  0.00  0.00    +0.001 C 
ATOM     17  C   UNL     1      36.731 -20.827 -18.988  0.00  0.00    +0.010 C 
ATOM     18  C   UNL     1      34.627 -21.080 -20.150  0.00  0.00    +0.000 C 
ATOM     19  C   UNL     1      35.934 -20.594 -20.110  0.00  0.00    +0.001 C 
BRANCH  15  21
ATOM     20  N   UNL     1      37.755 -21.942 -15.858  0.00  0.00    -0.191 NA
ATOM     21  C   UNL     1      37.069 -21.767 -16.774  0.00  0.00    +0.100 C 
ENDBRANCH  15  21
ENDBRANCH   3  14
BRANCH   2  22
ATOM     22  C   UNL     1      30.953 -23.752 -15.297  0.00  0.00    +0.058 C 
ATOM     23  C   UNL     1      30.115 -22.674 -15.557  0.00  0.00    +0.015 C 
ATOM     24  C   UNL     1      30.439 -24.950 -14.815  0.00  0.00    +0.015 C 
ATOM     25  C   UNL     1      28.744 -22.796 -15.330  0.00  0.00    +0.001 C 
ATOM     26  C   UNL     1      29.068 -25.072 -14.589  0.00  0.00    +0.001 C 
ATOM     27  C   UNL     1      28.220 -23.994 -14.847  0.00  0.00    +0.000 C 
ENDBRANCH   2  22
TORSDOF 4
ENDMDL
MODEL 6
REMARK VINA RESULT:      -9.5      1.767      5.485
REMARK  Name = 9924495
REMARK  4 active torsions:
REMARK  status: ('A' for Active; 'I' for Inactive)
REMARK    1  A    between atoms: N_2  and  C_22
REMARK    2  A    between atoms: C_3  and  C_14
REMARK    3  A    between atoms: C_4  and  C_9
REMARK    4  A    between atoms: C_15  and  C_21
REMARK                            x       y       z     vdW  Elec       q    Type
REMARK                         _______ _______ _______ _____ _____    ______ ____
ROOT
ATOM      1  O   UNL     1      32.912 -25.068 -13.662  0.00  0.00    -0.269 OA
ATOM      2  N   UNL     1      32.398 -23.787 -15.572  0.00  0.00    -0.233 N 
ATOM      3  C   UNL     1      34.735 -24.408 -14.990  0.00  0.00    +0.055 C 
ATOM      4  C   UNL     1      34.244 -22.916 -16.853  0.00  0.00    +0.033 C 
ATOM      5  C   UNL     1      33.261 -24.474 -14.683  0.00  0.00    +0.257 C 
ATOM      6  C   UNL     1      35.160 -23.655 -16.016  0.00  0.00    +0.007 C 
ATOM      7  C   UNL     1      32.927 -23.021 -16.610  0.00  0.00    +0.074 C 
ENDROOT
BRANCH   4   9
ATOM      8  N   UNL     1      36.027 -21.905 -18.098  0.00  0.00    -0.244 NA
ATOM      9  C   UNL     1      34.692 -22.090 -17.992  0.00  0.00    +0.083 C 
ATOM     10  C   UNL     1      33.762 -21.557 -18.867  0.00  0.00    +0.019 C 
ATOM     11  C   UNL     1      34.232 -20.784 -19.924  0.00  0.00    +0.003 C 
ATOM     12  C   UNL     1      36.446 -21.148 -19.137  0.00  0.00    +0.099 C 
ATOM     13  C   UNL     1      35.597 -20.572 -20.068  0.00  0.00    +0.021 C 
ENDBRANCH   4   9
BRANCH   3  14
ATOM     14  C   UNL     1      35.713 -25.160 -14.183  0.00  0.00    +0.014 C 
ATOM     15  C   UNL     1      35.872 -24.933 -12.816  0.00  0.00    +0.069 C 
ATOM     16  C   UNL     1      36.492 -26.123 -14.825  0.00  0.00    +0.001 C 
ATOM     17  C   UNL     1      36.810 -25.667 -12.091  0.00  0.00    +0.010 C 
ATOM     18  C   UNL     1      37.430 -26.858 -14.100  0.00  0.00    +0.000 C 
ATOM     19  C   UNL     1      37.588 -26.631 -12.733  0.00  0.00    +0.001 C 
BRANCH  15  21
ATOM     20  N   UNL     1      34.457 -23.160 -11.564  0.00  0.00    -0.191 NA
ATOM     21  C   UNL     1      35.090 -23.953 -12.123  0.00  0.00    +0.100 C 
ENDBRANCH  15  21
ENDBRANCH   3  14
BRANCH   2  22
ATOM     22  C   UNL     1      30.963 -23.861 -15.376  0.00  0.00    +0.058 C 
ATOM     23  C   UNL     1      30.169 -22.762 -15.684  0.00  0.00    +0.015 C 
ATOM     24  C   UNL     1      30.395 -25.031 -14.884  0.00  0.00    +0.015 C 
ATOM     25  C   UNL     1      28.789 -22.834 -15.496  0.00  0.00    +0.001 C 
ATOM     26  C   UNL     1      29.015 -25.102 -14.696  0.00  0.00    +0.001 C 
ATOM     27  C   UNL     1      28.212 -24.004 -15.002  0.00  0.00    +0.000 C 
ENDBRANCH   2  22
TORSDOF 4
ENDMDL
MODEL 7
REMARK VINA RESULT:      -9.2      1.560      5.625
REMARK  Name = 9924495
REMARK  4 active torsions:
REMARK  status: ('A' for Active; 'I' for Inactive)
REMARK    1  A    between atoms: N_2  and  C_22
REMARK    2  A    between atoms: C_3  and  C_14
REMARK    3  A    between atoms: C_4  and  C_9
REMARK    4  A    between atoms: C_15  and  C_21
REMARK                            x       y       z     vdW  Elec       q    Type
REMARK                         _______ _______ _______ _____ _____    ______ ____
ROOT
ATOM      1  O   UNL     1      31.824 -22.270 -17.331  0.00  0.00    -0.269 OA
ATOM      2  N   UNL     1      34.158 -22.571 -17.212  0.00  0.00    -0.233 N 
ATOM      3  C   UNL     1      32.602 -23.694 -15.630  0.00  0.00    +0.055 C 
ATOM      4  C   UNL     1      35.019 -23.857 -15.364  0.00  0.00    +0.033 C 
ATOM      5  C   UNL     1      32.815 -22.792 -16.819  0.00  0.00    +0.257 C 
ATOM      6  C   UNL     1      33.666 -24.168 -14.965  0.00  0.00    +0.007 C 
ATOM      7  C   UNL     1      35.206 -23.099 -16.457  0.00  0.00    +0.074 C 
ENDROOT
BRANCH   4   9
ATOM      8  N   UNL     1      36.627 -25.603 -15.028  0.00  0.00    -0.244 NA
ATOM      9  C   UNL     1      36.202 -24.377 -14.651  0.00  0.00    +0.083 C 
ATOM     10  C   UNL     1      36.800 -23.618 -13.660  0.00  0.00    +0.019 C 
ATOM     11  C   UNL     1      37.912 -24.150 -13.015  0.00  0.00    +0.003 C 
ATOM     12  C   UNL     1      37.709 -26.088 -14.378  0.00  0.00    +0.099 C 
ATOM     13  C   UNL     1      38.380 -25.408 -13.375  0.00  0.00    +0.021 C 
ENDBRANCH   4   9
BRANCH   3  14
ATOM     14  C   UNL     1      31.244 -24.062 -15.191  0.00  0.00    +0.014 C 
ATOM     15  C   UNL     1      30.807 -23.850 -13.884  0.00  0.00    +0.069 C 
ATOM     16  C   UNL     1      30.385 -24.638 -16.128  0.00  0.00    +0.001 C 
ATOM     17  C   UNL     1      29.513 -24.214 -13.512  0.00  0.00    +0.010 C 
ATOM     18  C   UNL     1      29.091 -25.002 -15.758  0.00  0.00    +0.000 C 
ATOM     19  C   UNL     1      28.654 -24.790 -14.450  0.00  0.00    +0.001 C 
BRANCH  15  21
ATOM     20  N   UNL     1      32.350 -22.786 -12.095  0.00  0.00    -0.191 NA
ATOM     21  C   UNL     1      31.660 -23.261 -12.895  0.00  0.00    +0.100 C 
ENDBRANCH  15  21
ENDBRANCH   3  14
BRANCH   2  22
ATOM     22  C   UNL     1      34.437 -21.768 -18.387  0.00  0.00    +0.058 C 
ATOM     23  C   UNL     1      33.385 -21.253 -19.135  0.00  0.00    +0.015 C 
ATOM     24  C   UNL     1      35.755 -21.519 -18.753  0.00  0.00    +0.015 C 
ATOM     25  C   UNL     1      33.654 -20.480 -20.264  0.00  0.00    +0.001 C 
ATOM     26  C   UNL     1      36.024 -20.746 -19.882  0.00  0.00    +0.001 C 
ATOM     27  C   UNL     1      34.973 -20.226 -20.638  0.00  0.00    +0.000 C 
ENDBRANCH   2  22
TORSDOF 4
ENDMDL
