MODEL 1
REMARK VINA RESULT:     -10.7      0.000      0.000
REMARK  Name = 25134257
REMARK  3 active torsions:
REMARK  status: ('A' for Active; 'I' for Inactive)
REMARK    1  A    between atoms: C_1  and  N_9
REMARK    2  A    between atoms: C_3  and  C_19
REMARK    3  A    between atoms: C_4  and  O_25
REMARK                            x       y       z     vdW  Elec       q    Type
REMARK                         _______ _______ _______ _____ _____    ______ ____
ROOT
ATOM      1  C   UNL     1      32.416 -10.417 -22.348  0.00  0.00    +0.095 C 
ATOM      2  C   UNL     1      32.945 -11.519 -23.022  0.00  0.00    +0.018 C 
ATOM      3  C   UNL     1      32.907 -12.782 -22.430  0.00  0.00    +0.001 C 
ATOM      4  C   UNL     1      31.852 -10.578 -21.084  0.00  0.00    +0.148 C 
ATOM      5  C   UNL     1      32.341 -12.942 -21.165  0.00  0.00    +0.003 C 
ATOM      6  C   UNL     1      31.814 -11.841 -20.491  0.00  0.00    +0.038 C 
ENDROOT
BRANCH   1   9
ATOM      7  O   UNL     1      34.809  -8.741 -23.177  0.00  0.00    -0.269 OA
ATOM      8  O   UNL     1      30.149  -8.587 -23.205  0.00  0.00    -0.269 OA
ATOM      9  N   UNL     1      32.463  -9.126 -22.968  0.00  0.00    -0.198 N 
ATOM     10  C   UNL     1      33.223  -7.180 -23.891  0.00  0.00    +0.055 C 
ATOM     11  C   UNL     1      31.843  -7.149 -23.929  0.00  0.00    +0.058 C 
ATOM     12  C   UNL     1      33.633  -8.444 -23.285  0.00  0.00    +0.259 C 
ATOM     13  C   UNL     1      31.344  -8.385 -23.334  0.00  0.00    +0.259 C 
ATOM     14  C   UNL     1      33.991  -6.142 -24.381  0.00  0.00    -0.017 C 
ATOM     15  C   UNL     1      31.152  -6.075 -24.452  0.00  0.00    +0.005 C 
ATOM     16  C   UNL     1      33.314  -5.043 -24.918  0.00  0.00    -0.004 C 
ATOM     17  C   UNL     1      31.906  -5.010 -24.954  0.00  0.00    -0.000 C 
ATOM     18  C   UNL     1      35.479  -6.162 -24.353  0.00  0.00    +0.031 C 
ENDBRANCH   1   9
BRANCH   3  19
ATOM     19  C   UNL     1      33.453 -13.924 -23.128  0.00  0.00    +0.000 C 
ATOM     20  C   UNL     1      34.381 -14.751 -22.494  0.00  0.00    +0.000 C 
ATOM     21  C   UNL     1      33.053 -14.200 -24.435  0.00  0.00    +0.000 C 
ATOM     22  C   UNL     1      34.907 -15.854 -23.166  0.00  0.00    +0.000 C 
ATOM     23  C   UNL     1      33.579 -15.303 -25.108  0.00  0.00    +0.000 C 
ATOM     24  C   UNL     1      34.507 -16.130 -24.473  0.00  0.00    +0.000 C 
ENDBRANCH   3  19
BRANCH   4  25
ATOM     25  O   UNL     1      31.328  -9.515 -20.409  0.00  0.00    -0.504 OA
ATOM     26  H   UNL     1      30.501  -9.158 -20.669  0.00  0.00    +0.292 HD
ENDBRANCH   4  25
TORSDOF 3
ENDMDL
MODEL 2
REMARK VINA RESULT:     -10.6      0.577      2.100
REMARK  Name = 25134257
REMARK  3 active torsions:
REMARK  status: ('A' for Active; 'I' for Inactive)
REMARK    1  A    between atoms: C_1  and  N_9
REMARK    2  A    between atoms: C_3  and  C_19
REMARK    3  A    between atoms: C_4  and  O_25
REMARK                            x       y       z     vdW  Elec       q    Type
REMARK                         _______ _______ _______ _____ _____    ______ ____
ROOT
ATOM      1  C   UNL     1      32.745 -10.416 -22.583  0.00  0.00    +0.095 C 
ATOM      2  C   UNL     1      33.249 -11.569 -23.185  0.00  0.00    +0.018 C 
ATOM      3  C   UNL     1      32.983 -12.820 -22.628  0.00  0.00    +0.001 C 
ATOM      4  C   UNL     1      31.978 -10.514 -21.422  0.00  0.00    +0.148 C 
ATOM      5  C   UNL     1      32.215 -12.917 -21.467  0.00  0.00    +0.003 C 
ATOM      6  C   UNL     1      31.714 -11.764 -20.863  0.00  0.00    +0.038 C 
ENDROOT
BRANCH   1   9
ATOM      7  O   UNL     1      30.852  -8.174 -23.365  0.00  0.00    -0.269 OA
ATOM      8  O   UNL     1      35.403  -9.186 -23.386  0.00  0.00    -0.269 OA
ATOM      9  N   UNL     1      33.026  -9.137 -23.167  0.00  0.00    -0.198 N 
ATOM     10  C   UNL     1      32.779  -7.053 -24.066  0.00  0.00    +0.055 C 
ATOM     11  C   UNL     1      34.129  -7.340 -24.043  0.00  0.00    +0.058 C 
ATOM     12  C   UNL     1      32.062  -8.193 -23.501  0.00  0.00    +0.259 C 
ATOM     13  C   UNL     1      34.300  -8.674 -23.476  0.00  0.00    +0.259 C 
ATOM     14  C   UNL     1      32.295  -5.855 -24.554  0.00  0.00    -0.017 C 
ATOM     15  C   UNL     1      35.073  -6.448 -24.511  0.00  0.00    +0.005 C 
ATOM     16  C   UNL     1      33.230  -4.934 -25.033  0.00  0.00    -0.004 C 
ATOM     17  C   UNL     1      34.608  -5.227 -25.011  0.00  0.00    -0.000 C 
ATOM     18  C   UNL     1      30.843  -5.528 -24.582  0.00  0.00    +0.031 C 
ENDBRANCH   1   9
BRANCH   3  19
ATOM     19  C   UNL     1      33.504 -14.016 -23.252  0.00  0.00    +0.000 C 
ATOM     20  C   UNL     1      34.410 -14.824 -22.565  0.00  0.00    +0.000 C 
ATOM     21  C   UNL     1      33.100 -14.362 -24.542  0.00  0.00    +0.000 C 
ATOM     22  C   UNL     1      34.912 -15.978 -23.167  0.00  0.00    +0.000 C 
ATOM     23  C   UNL     1      33.601 -15.516 -25.143  0.00  0.00    +0.000 C 
ATOM     24  C   UNL     1      34.508 -16.324 -24.456  0.00  0.00    +0.000 C 
ENDBRANCH   3  19
BRANCH   4  25
ATOM     25  O   UNL     1      31.475  -9.399 -20.819  0.00  0.00    -0.504 OA
ATOM     26  H   UNL     1      31.569  -8.562 -21.229  0.00  0.00    +0.292 HD
ENDBRANCH   4  25
TORSDOF 3
ENDMDL
MODEL 3
REMARK VINA RESULT:     -10.6      2.039      7.426
REMARK  Name = 25134257
REMARK  3 active torsions:
REMARK  status: ('A' for Active; 'I' for Inactive)
REMARK    1  A    between atoms: C_1  and  N_9
REMARK    2  A    between atoms: C_3  and  C_19
REMARK    3  A    between atoms: C_4  and  O_25
REMARK                            x       y       z     vdW  Elec       q    Type
REMARK                         _______ _______ _______ _____ _____    ______ ____
ROOT
ATOM      1  C   UNL     1      32.793 -11.680 -22.501  0.00  0.00    +0.095 C 
ATOM      2  C   UNL     1      33.388 -10.569 -23.101  0.00  0.00    +0.018 C 
ATOM      3  C   UNL     1      32.906  -9.289 -22.828  0.00  0.00    +0.001 C 
ATOM      4  C   UNL     1      31.717 -11.510 -21.632  0.00  0.00    +0.148 C 
ATOM      5  C   UNL     1      31.829  -9.120 -21.957  0.00  0.00    +0.003 C 
ATOM      6  C   UNL     1      31.234 -10.229 -21.360  0.00  0.00    +0.038 C 
ENDROOT
BRANCH   1   9
ATOM      7  O   UNL     1      34.034 -13.741 -20.648  0.00  0.00    -0.269 OA
ATOM      8  O   UNL     1      32.924 -13.175 -25.141  0.00  0.00    -0.269 OA
ATOM      9  N   UNL     1      33.299 -12.990 -22.791  0.00  0.00    -0.198 N 
ATOM     10  C   UNL     1      34.245 -15.056 -22.569  0.00  0.00    +0.055 C 
ATOM     11  C   UNL     1      33.887 -14.901 -23.893  0.00  0.00    +0.058 C 
ATOM     12  C   UNL     1      33.867 -13.842 -21.851  0.00  0.00    +0.259 C 
ATOM     13  C   UNL     1      33.287 -13.579 -24.050  0.00  0.00    +0.259 C 
ATOM     14  C   UNL     1      34.845 -16.210 -22.105  0.00  0.00    -0.017 C 
ATOM     15  C   UNL     1      34.114 -15.888 -24.831  0.00  0.00    +0.005 C 
ATOM     16  C   UNL     1      35.085 -17.225 -23.034  0.00  0.00    -0.004 C 
ATOM     17  C   UNL     1      34.722 -17.067 -24.386  0.00  0.00    -0.000 C 
ATOM     18  C   UNL     1      35.233 -16.395 -20.680  0.00  0.00    +0.031 C 
ENDBRANCH   1   9
BRANCH   3  19
ATOM     19  C   UNL     1      33.523  -8.137 -23.449  0.00  0.00    +0.000 C 
ATOM     20  C   UNL     1      32.824  -7.403 -24.408  0.00  0.00    +0.000 C 
ATOM     21  C   UNL     1      34.816  -7.759 -23.088  0.00  0.00    +0.000 C 
ATOM     22  C   UNL     1      33.418  -6.292 -25.005  0.00  0.00    +0.000 C 
ATOM     23  C   UNL     1      35.410  -6.647 -23.685  0.00  0.00    +0.000 C 
ATOM     24  C   UNL     1      34.711  -5.913 -24.644  0.00  0.00    +0.000 C 
ENDBRANCH   3  19
BRANCH   4  25
ATOM     25  O   UNL     1      31.123 -12.582 -21.033  0.00  0.00    -0.504 OA
ATOM     26  H   UNL     1      30.223 -12.534 -20.774  0.00  0.00    +0.292 HD
ENDBRANCH   4  25
TORSDOF 3
ENDMDL
MODEL 4
REMARK VINA RESULT:     -10.2      1.847      7.333
REMARK  Name = 25134257
REMARK  3 active torsions:
REMARK  status: ('A' for Active; 'I' for Inactive)
REMARK    1  A    between atoms: C_1  and  N_9
REMARK    2  A    between atoms: C_3  and  C_19
REMARK    3  A    between atoms: C_4  and  O_25
REMARK                            x       y       z     vdW  Elec       q    Type
REMARK                         _______ _______ _______ _____ _____    ______ ____
ROOT
ATOM      1  C   UNL     1      32.502 -11.127 -22.423  0.00  0.00    +0.095 C 
ATOM      2  C   UNL     1      33.252 -10.099 -22.996  0.00  0.00    +0.018 C 
ATOM      3  C   UNL     1      32.668  -8.852 -23.222  0.00  0.00    +0.001 C 
ATOM      4  C   UNL     1      31.169 -10.909 -22.079  0.00  0.00    +0.148 C 
ATOM      5  C   UNL     1      31.334  -8.635 -22.876  0.00  0.00    +0.003 C 
ATOM      6  C   UNL     1      30.584  -9.663 -22.306  0.00  0.00    +0.038 C 
ENDROOT
BRANCH   1   9
ATOM      7  O   UNL     1      33.629 -13.125 -24.413  0.00  0.00    -0.269 OA
ATOM      8  O   UNL     1      33.043 -12.591 -19.819  0.00  0.00    -0.269 OA
ATOM      9  N   UNL     1      33.116 -12.403 -22.197  0.00  0.00    -0.198 N 
ATOM     10  C   UNL     1      34.120 -14.426 -22.534  0.00  0.00    +0.055 C 
ATOM     11  C   UNL     1      33.975 -14.253 -21.172  0.00  0.00    +0.058 C 
ATOM     12  C   UNL     1      33.580 -13.244 -23.201  0.00  0.00    +0.259 C 
ATOM     13  C   UNL     1      33.327 -12.965 -20.943  0.00  0.00    +0.259 C 
ATOM     14  C   UNL     1      34.701 -15.558 -23.069  0.00  0.00    -0.017 C 
ATOM     15  C   UNL     1      34.397 -15.206 -20.267  0.00  0.00    +0.005 C 
ATOM     16  C   UNL     1      35.138 -16.538 -22.173  0.00  0.00    -0.004 C 
ATOM     17  C   UNL     1      34.988 -16.363 -20.784  0.00  0.00    -0.000 C 
ATOM     18  C   UNL     1      34.869 -15.758 -24.534  0.00  0.00    +0.031 C 
ENDBRANCH   1   9
BRANCH   3  19
ATOM     19  C   UNL     1      33.445  -7.786 -23.814  0.00  0.00    +0.000 C 
ATOM     20  C   UNL     1      32.919  -7.044 -24.872  0.00  0.00    +0.000 C 
ATOM     21  C   UNL     1      34.720  -7.499 -23.327  0.00  0.00    +0.000 C 
ATOM     22  C   UNL     1      33.667  -6.015 -25.442  0.00  0.00    +0.000 C 
ATOM     23  C   UNL     1      35.468  -6.470 -23.898  0.00  0.00    +0.000 C 
ATOM     24  C   UNL     1      34.942  -5.727 -24.956  0.00  0.00    +0.000 C 
ENDBRANCH   3  19
BRANCH   4  25
ATOM     25  O   UNL     1      30.419 -11.899 -21.517  0.00  0.00    -0.504 OA
ATOM     26  H   UNL     1      30.765 -12.768 -21.451  0.00  0.00    +0.292 HD
ENDBRANCH   4  25
TORSDOF 3
ENDMDL
MODEL 5
REMARK VINA RESULT:     -10.1      1.817      2.452
REMARK  Name = 25134257
REMARK  3 active torsions:
REMARK  status: ('A' for Active; 'I' for Inactive)
REMARK    1  A    between atoms: C_1  and  N_9
REMARK    2  A    between atoms: C_3  and  C_19
REMARK    3  A    between atoms: C_4  and  O_25
REMARK                            x       y       z     vdW  Elec       q    Type
REMARK                         _______ _______ _______ _____ _____    ______ ____
ROOT
ATOM      1  C   UNL     1      32.188 -10.756 -20.969  0.00  0.00    +0.095 C 
ATOM      2  C   UNL     1      32.713 -11.618 -21.932  0.00  0.00    +0.018 C 
ATOM      3  C   UNL     1      32.825 -12.981 -21.660  0.00  0.00    +0.001 C 
ATOM      4  C   UNL     1      31.777 -11.257 -19.734  0.00  0.00    +0.148 C 
ATOM      5  C   UNL     1      32.412 -13.482 -20.425  0.00  0.00    +0.003 C 
ATOM      6  C   UNL     1      31.889 -12.621 -19.462  0.00  0.00    +0.038 C 
ENDROOT
BRANCH   1   9
ATOM      7  O   UNL     1      31.075  -9.363 -23.427  0.00  0.00    -0.269 OA
ATOM      8  O   UNL     1      33.005  -8.350 -19.305  0.00  0.00    -0.269 OA
ATOM      9  N   UNL     1      32.079  -9.357 -21.262  0.00  0.00    -0.198 N 
ATOM     10  C   UNL     1      31.643  -7.382 -22.324  0.00  0.00    +0.055 C 
ATOM     11  C   UNL     1      32.185  -7.082 -21.090  0.00  0.00    +0.058 C 
ATOM     12  C   UNL     1      31.563  -8.835 -22.443  0.00  0.00    +0.259 C 
ATOM     13  C   UNL     1      32.475  -8.337 -20.403  0.00  0.00    +0.259 C 
ATOM     14  C   UNL     1      31.265  -6.398 -23.214  0.00  0.00    -0.017 C 
ATOM     15  C   UNL     1      32.386  -5.780 -20.678  0.00  0.00    +0.005 C 
ATOM     16  C   UNL     1      31.458  -5.070 -22.821  0.00  0.00    -0.004 C 
ATOM     17  C   UNL     1      32.013  -4.764 -21.563  0.00  0.00    -0.000 C 
ATOM     18  C   UNL     1      30.675  -6.703 -24.546  0.00  0.00    +0.031 C 
ENDBRANCH   1   9
BRANCH   3  19
ATOM     19  C   UNL     1      33.368 -13.875 -22.659  0.00  0.00    +0.000 C 
ATOM     20  C   UNL     1      34.367 -14.786 -22.311  0.00  0.00    +0.000 C 
ATOM     21  C   UNL     1      32.893 -13.829 -23.969  0.00  0.00    +0.000 C 
ATOM     22  C   UNL     1      34.890 -15.649 -23.273  0.00  0.00    +0.000 C 
ATOM     23  C   UNL     1      33.416 -14.693 -24.931  0.00  0.00    +0.000 C 
ATOM     24  C   UNL     1      34.415 -15.603 -24.583  0.00  0.00    +0.000 C 
ENDBRANCH   3  19
BRANCH   4  25
ATOM     25  O   UNL     1      31.258 -10.432 -18.780  0.00  0.00    -0.504 OA
ATOM     26  H   UNL     1      31.068 -10.767 -17.926  0.00  0.00    +0.292 HD
ENDBRANCH   4  25
TORSDOF 3
ENDMDL
MODEL 6
REMARK VINA RESULT:     -10.0      6.219      9.470
REMARK  Name = 25134257
REMARK  3 active torsions:
REMARK  status: ('A' for Active; 'I' for Inactive)
REMARK    1  A    between atoms: C_1  and  N_9
REMARK    2  A    between atoms: C_3  and  C_19
REMARK    3  A    between atoms: C_4  and  O_25
REMARK                            x       y       z     vdW  Elec       q    Type
REMARK                         _______ _______ _______ _____ _____    ______ ____
ROOT
ATOM      1  C   UNL     1      35.730 -18.880 -21.050  0.00  0.00    +0.095 C 
ATOM      2  C   UNL     1      34.836 -19.650 -20.306  0.00  0.00    +0.018 C 
ATOM      3  C   UNL     1      35.312 -20.672 -19.484  0.00  0.00    +0.001 C 
ATOM      4  C   UNL     1      37.099 -19.134 -20.973  0.00  0.00    +0.148 C 
ATOM      5  C   UNL     1      36.682 -20.924 -19.407  0.00  0.00    +0.003 C 
ATOM      6  C   UNL     1      37.576 -20.157 -20.152  0.00  0.00    +0.038 C 
ENDROOT
BRANCH   1   9
ATOM      7  O   UNL     1      35.180 -15.964 -20.408  0.00  0.00    -0.269 OA
ATOM      8  O   UNL     1      34.915 -18.956 -23.974  0.00  0.00    -0.269 OA
ATOM      9  N   UNL     1      35.227 -17.834 -21.890  0.00  0.00    -0.198 N 
ATOM     10  C   UNL     1      34.487 -15.806 -22.634  0.00  0.00    +0.055 C 
ATOM     11  C   UNL     1      34.438 -16.684 -23.699  0.00  0.00    +0.058 C 
ATOM     12  C   UNL     1      34.997 -16.528 -21.472  0.00  0.00    +0.259 C 
ATOM     13  C   UNL     1      34.903 -17.988 -23.233  0.00  0.00    +0.259 C 
ATOM     14  C   UNL     1      34.103 -14.486 -22.759  0.00  0.00    -0.017 C 
ATOM     15  C   UNL     1      33.998 -16.294 -24.947  0.00  0.00    +0.005 C 
ATOM     16  C   UNL     1      33.655 -14.065 -24.015  0.00  0.00    -0.004 C 
ATOM     17  C   UNL     1      33.603 -14.961 -25.100  0.00  0.00    -0.000 C 
ATOM     18  C   UNL     1      34.154 -13.524 -21.624  0.00  0.00    +0.031 C 
ENDBRANCH   1   9
BRANCH   3  19
ATOM     19  C   UNL     1      34.385 -21.470 -18.712  0.00  0.00    +0.000 C 
ATOM     20  C   UNL     1      34.865 -22.426 -17.815  0.00  0.00    +0.000 C 
ATOM     21  C   UNL     1      33.011 -21.284 -18.862  0.00  0.00    +0.000 C 
ATOM     22  C   UNL     1      33.972 -23.194 -17.069  0.00  0.00    +0.000 C 
ATOM     23  C   UNL     1      32.117 -22.052 -18.115  0.00  0.00    +0.000 C 
ATOM     24  C   UNL     1      32.598 -23.007 -17.219  0.00  0.00    +0.000 C 
ENDBRANCH   3  19
BRANCH   4  25
ATOM     25  O   UNL     1      37.991 -18.392 -21.690  0.00  0.00    -0.504 OA
ATOM     26  H   UNL     1      37.683 -17.794 -22.343  0.00  0.00    +0.292 HD
ENDBRANCH   4  25
TORSDOF 3
ENDMDL
MODEL 7
REMARK VINA RESULT:      -9.9     12.577     16.970
REMARK  Name = 25134257
REMARK  3 active torsions:
REMARK  status: ('A' for Active; 'I' for Inactive)
REMARK    1  A    between atoms: C_1  and  N_9
REMARK    2  A    between atoms: C_3  and  C_19
REMARK    3  A    between atoms: C_4  and  O_25
REMARK                            x       y       z     vdW  Elec       q    Type
REMARK                         _______ _______ _______ _____ _____    ______ ____
ROOT
ATOM      1  C   UNL     1      33.522 -23.712 -15.143  0.00  0.00    +0.095 C 
ATOM      2  C   UNL     1      33.994 -23.012 -16.254  0.00  0.00    +0.018 C 
ATOM      3  C   UNL     1      33.095 -22.519 -17.200  0.00  0.00    +0.001 C 
ATOM      4  C   UNL     1      32.154 -23.920 -14.979  0.00  0.00    +0.148 C 
ATOM      5  C   UNL     1      31.725 -22.727 -17.035  0.00  0.00    +0.003 C 
ATOM      6  C   UNL     1      31.254 -23.429 -15.926  0.00  0.00    +0.038 C 
ENDROOT
BRANCH   1   9
ATOM      7  O   UNL     1      35.966 -25.472 -15.534  0.00  0.00    -0.269 OA
ATOM      8  O   UNL     1      33.619 -23.310 -12.135  0.00  0.00    -0.269 OA
ATOM      9  N   UNL     1      34.458 -24.212 -14.179  0.00  0.00    -0.198 N 
ATOM     10  C   UNL     1      36.216 -25.306 -13.216  0.00  0.00    +0.055 C 
ATOM     11  C   UNL     1      35.539 -24.639 -12.214  0.00  0.00    +0.058 C 
ATOM     12  C   UNL     1      35.538 -25.034 -14.480  0.00  0.00    +0.259 C 
ATOM     13  C   UNL     1      34.407 -23.941 -12.816  0.00  0.00    +0.259 C 
ATOM     14  C   UNL     1      37.340 -26.065 -12.958  0.00  0.00    -0.017 C 
ATOM     15  C   UNL     1      35.944 -24.699 -10.895  0.00  0.00    +0.005 C 
ATOM     16  C   UNL     1      37.771 -26.140 -11.631  0.00  0.00    -0.004 C 
ATOM     17  C   UNL     1      37.080 -25.463 -10.608  0.00  0.00    -0.000 C 
ATOM     18  C   UNL     1      38.084 -26.786 -14.027  0.00  0.00    +0.031 C 
ENDBRANCH   1   9
BRANCH   3  19
ATOM     19  C   UNL     1      33.583 -21.792 -18.351  0.00  0.00    +0.000 C 
ATOM     20  C   UNL     1      32.696 -21.056 -19.139  0.00  0.00    +0.000 C 
ATOM     21  C   UNL     1      34.939 -21.827 -18.675  0.00  0.00    +0.000 C 
ATOM     22  C   UNL     1      33.167 -20.354 -20.248  0.00  0.00    +0.000 C 
ATOM     23  C   UNL     1      35.409 -21.124 -19.784  0.00  0.00    +0.000 C 
ATOM     24  C   UNL     1      34.523 -20.388 -20.571  0.00  0.00    +0.000 C 
ENDBRANCH   3  19
BRANCH   4  25
ATOM     25  O   UNL     1      31.672 -24.600 -13.900  0.00  0.00    -0.504 OA
ATOM     26  H   UNL     1      32.265 -25.019 -13.308  0.00  0.00    +0.292 HD
ENDBRANCH   4  25
TORSDOF 3
ENDMDL
MODEL 8
REMARK VINA RESULT:      -9.9      2.910      5.506
REMARK  Name = 25134257
REMARK  3 active torsions:
REMARK  status: ('A' for Active; 'I' for Inactive)
REMARK    1  A    between atoms: C_1  and  N_9
REMARK    2  A    between atoms: C_3  and  C_19
REMARK    3  A    between atoms: C_4  and  O_25
REMARK                            x       y       z     vdW  Elec       q    Type
REMARK                         _______ _______ _______ _____ _____    ______ ____
ROOT
ATOM      1  C   UNL     1      33.786 -14.873 -23.070  0.00  0.00    +0.095 C 
ATOM      2  C   UNL     1      34.356 -15.820 -22.218  0.00  0.00    +0.018 C 
ATOM      3  C   UNL     1      34.844 -17.020 -22.737  0.00  0.00    +0.001 C 
ATOM      4  C   UNL     1      33.702 -15.126 -24.438  0.00  0.00    +0.148 C 
ATOM      5  C   UNL     1      34.761 -17.272 -24.107  0.00  0.00    +0.003 C 
ATOM      6  C   UNL     1      34.189 -16.327 -24.957  0.00  0.00    +0.038 C 
ENDROOT
BRANCH   1   9
ATOM      7  O   UNL     1      34.159 -12.018 -24.036  0.00  0.00    -0.269 OA
ATOM      8  O   UNL     1      32.061 -14.394 -20.617  0.00  0.00    -0.269 OA
ATOM      9  N   UNL     1      33.288 -13.645 -22.522  0.00  0.00    -0.198 N 
ATOM     10  C   UNL     1      32.856 -11.428 -22.188  0.00  0.00    +0.055 C 
ATOM     11  C   UNL     1      32.209 -12.134 -21.193  0.00  0.00    +0.058 C 
ATOM     12  C   UNL     1      33.545 -12.385 -23.049  0.00  0.00    +0.259 C 
ATOM     13  C   UNL     1      32.483 -13.554 -21.392  0.00  0.00    +0.259 C 
ATOM     14  C   UNL     1      32.790 -10.051 -22.267  0.00  0.00    -0.017 C 
ATOM     15  C   UNL     1      31.462 -11.503 -20.219  0.00  0.00    +0.005 C 
ATOM     16  C   UNL     1      32.039  -9.389 -21.292  0.00  0.00    -0.004 C 
ATOM     17  C   UNL     1      31.380 -10.109 -20.277  0.00  0.00    -0.000 C 
ATOM     18  C   UNL     1      33.478  -9.275 -23.335  0.00  0.00    +0.031 C 
ENDBRANCH   1   9
BRANCH   3  19
ATOM     19  C   UNL     1      35.437 -18.001 -21.855  0.00  0.00    +0.000 C 
ATOM     20  C   UNL     1      34.629 -18.944 -21.218  0.00  0.00    +0.000 C 
ATOM     21  C   UNL     1      36.815 -18.006 -21.642  0.00  0.00    +0.000 C 
ATOM     22  C   UNL     1      35.200 -19.892 -20.369  0.00  0.00    +0.000 C 
ATOM     23  C   UNL     1      37.386 -18.953 -20.793  0.00  0.00    +0.000 C 
ATOM     24  C   UNL     1      36.578 -19.897 -20.156  0.00  0.00    +0.000 C 
ENDBRANCH   3  19
BRANCH   4  25
ATOM     25  O   UNL     1      33.151 -14.213 -25.288  0.00  0.00    -0.504 OA
ATOM     26  H   UNL     1      32.937 -14.461 -26.166  0.00  0.00    +0.292 HD
ENDBRANCH   4  25
TORSDOF 3
ENDMDL
MODEL 9
REMARK VINA RESULT:      -9.8     12.688     17.098
REMARK  Name = 25134257
REMARK  3 active torsions:
REMARK  status: ('A' for Active; 'I' for Inactive)
REMARK    1  A    between atoms: C_1  and  N_9
REMARK    2  A    between atoms: C_3  and  C_19
REMARK    3  A    between atoms: C_4  and  O_25
REMARK                            x       y       z     vdW  Elec       q    Type
REMARK                         _______ _______ _______ _____ _____    ______ ____
ROOT
ATOM      1  C   UNL     1      33.684 -23.808 -15.134  0.00  0.00    +0.095 C 
ATOM      2  C   UNL     1      34.114 -23.103 -16.258  0.00  0.00    +0.018 C 
ATOM      3  C   UNL     1      33.180 -22.573 -17.148  0.00  0.00    +0.001 C 
ATOM      4  C   UNL     1      32.320 -23.985 -14.902  0.00  0.00    +0.148 C 
ATOM      5  C   UNL     1      31.816 -22.751 -16.915  0.00  0.00    +0.003 C 
ATOM      6  C   UNL     1      31.385 -23.457 -15.793  0.00  0.00    +0.038 C 
ENDROOT
BRANCH   1   9
ATOM      7  O   UNL     1      34.008 -23.375 -12.146  0.00  0.00    -0.269 OA
ATOM      8  O   UNL     1      35.996 -25.704 -15.661  0.00  0.00    -0.269 OA
ATOM      9  N   UNL     1      34.655 -24.347 -14.227  0.00  0.00    -0.198 N 
ATOM     10  C   UNL     1      35.846 -24.807 -12.334  0.00  0.00    +0.055 C 
ATOM     11  C   UNL     1      36.415 -25.522 -13.369  0.00  0.00    +0.058 C 
ATOM     12  C   UNL     1      34.713 -24.056 -12.869  0.00  0.00    +0.259 C 
ATOM     13  C   UNL     1      35.666 -25.230 -14.588  0.00  0.00    +0.259 C 
ATOM     14  C   UNL     1      36.337 -24.871 -11.045  0.00  0.00    -0.017 C 
ATOM     15  C   UNL     1      37.512 -26.337 -13.176  0.00  0.00    +0.005 C 
ATOM     16  C   UNL     1      37.447 -25.691 -10.824  0.00  0.00    -0.004 C 
ATOM     17  C   UNL     1      38.029 -26.419 -11.880  0.00  0.00    -0.000 C 
ATOM     18  C   UNL     1      35.733 -24.111  -9.917  0.00  0.00    +0.031 C 
ENDBRANCH   1   9
BRANCH   3  19
ATOM     19  C   UNL     1      33.626 -21.841 -18.313  0.00  0.00    +0.000 C 
ATOM     20  C   UNL     1      32.707 -21.122 -19.079  0.00  0.00    +0.000 C 
ATOM     21  C   UNL     1      34.973 -21.853 -18.671  0.00  0.00    +0.000 C 
ATOM     22  C   UNL     1      33.137 -20.415 -20.201  0.00  0.00    +0.000 C 
ATOM     23  C   UNL     1      35.403 -21.145 -19.793  0.00  0.00    +0.000 C 
ATOM     24  C   UNL     1      34.485 -20.426 -20.559  0.00  0.00    +0.000 C 
ENDBRANCH   3  19
BRANCH   4  25
ATOM     25  O   UNL     1      31.878 -24.670 -13.808  0.00  0.00    -0.504 OA
ATOM     26  H   UNL     1      31.018 -25.041 -13.805  0.00  0.00    +0.292 HD
ENDBRANCH   4  25
TORSDOF 3
ENDMDL
