MODEL 1
REMARK VINA RESULT:     -10.9      0.000      0.000
REMARK  Name = 9675990
REMARK  9 active torsions:
REMARK  status: ('A' for Active; 'I' for Inactive)
REMARK    1  A    between atoms: C_1  and  N_2
REMARK    2  A    between atoms: C_1  and  C_19
REMARK    3  A    between atoms: N_3  and  C_10
REMARK    4  A    between atoms: C_10  and  C_11
REMARK    5  A    between atoms: N_18  and  N_21
REMARK    6  A    between atoms: N_21  and  C_22
REMARK    7  A    between atoms: C_22  and  C_24
REMARK    8  A    between atoms: C_26  and  C_30
REMARK    9  A    between atoms: C_30  and  C_31
REMARK                            x       y       z     vdW  Elec       q    Type
REMARK                         _______ _______ _______ _____ _____    ______ ____
ROOT
ATOM      1  C   UNL     1      35.038 -15.475 -23.640  0.00  0.00    +0.011 C 
ENDROOT
BRANCH   1   2
ATOM      2  N   UNL     1      33.914 -14.851 -22.862  0.00  0.00    +0.390 N 
ATOM      3  N   UNL     1      32.559 -12.763 -21.413  0.00  0.00    +0.387 N 
ATOM      4  C   UNL     1      34.333 -14.481 -21.462  0.00  0.00    -0.100 C 
ATOM      5  C   UNL     1      33.317 -13.669 -23.582  0.00  0.00    -0.100 C 
ATOM      6  C   UNL     1      33.129 -13.920 -20.711  0.00  0.00    -0.100 C 
ATOM      7  C   UNL     1      32.142 -13.131 -22.773  0.00  0.00    -0.100 C 
ATOM      8  H   UNL     1      33.186 -15.560 -22.785  0.00  0.00    -0.079 HD
ATOM      9  H   UNL     1      33.283 -12.046 -21.485  0.00  0.00    -0.079 HD
BRANCH   3  10
ATOM     10  C   UNL     1      31.433 -12.210 -20.662  0.00  0.00    -0.050 C 
BRANCH  10  11
ATOM     11  C   UNL     1      31.635 -10.753 -20.338  0.00  0.00    -0.043 C 
ATOM     12  C   UNL     1      31.564 -10.316 -19.015  0.00  0.00    -0.006 C 
ATOM     13  C   UNL     1      31.895  -9.841 -21.361  0.00  0.00    -0.006 C 
ATOM     14  C   UNL     1      31.752  -8.966 -18.715  0.00  0.00    -0.000 C 
ATOM     15  C   UNL     1      32.083  -8.491 -21.061  0.00  0.00    -0.000 C 
ATOM     16  C   UNL     1      32.011  -8.054 -19.738  0.00  0.00    -0.000 C 
ENDBRANCH  10  11
ENDBRANCH   3  10
ENDBRANCH   1   2
BRANCH   1  19
ATOM     17  O   UNL     1      34.343 -17.552 -24.649  0.00  0.00    -0.276 OA
ATOM     18  N   UNL     1      35.449 -17.592 -22.609  0.00  0.00    -0.234 N 
ATOM     19  C   UNL     1      34.892 -16.973 -23.714  0.00  0.00    +0.216 C 
ATOM     20  H   UNL     1      35.873 -17.060 -21.898  0.00  0.00    +0.171 HD
BRANCH  18  21
ATOM     21  N   UNL     1      35.400 -18.941 -22.524  0.00  0.00    -0.127 NA
BRANCH  21  22
ATOM     22  C   UNL     1      34.467 -19.384 -21.745  0.00  0.00    +0.141 C 
BRANCH  22  24
ATOM     23  O   UNL     1      32.530 -20.750 -20.173  0.00  0.00    -0.287 OA
ATOM     24  C   UNL     1      34.760 -20.252 -20.591  0.00  0.00    +0.036 C 
ATOM     25  C   UNL     1      33.767 -20.898 -19.856  0.00  0.00    +0.189 C 
ATOM     26  C   UNL     1      34.115 -21.707 -18.774  0.00  0.00    +0.021 C 
ATOM     27  C   UNL     1      36.101 -20.415 -20.245  0.00  0.00    +0.000 C 
ATOM     28  C   UNL     1      35.456 -21.870 -18.428  0.00  0.00    -0.001 C 
ATOM     29  C   UNL     1      36.449 -21.224 -19.164  0.00  0.00    -0.000 C 
BRANCH  26  30
ATOM     30  C   UNL     1      33.094 -22.428 -17.945  0.00  0.00    +0.056 C 
BRANCH  30  31
ATOM     31  C   UNL     1      33.702 -23.153 -16.776  0.00  0.00    -0.021 C 
ATOM     32  C   UNL     1      33.063 -23.385 -15.623  0.00  0.00    -0.005 C 
ENDBRANCH  30  31
ENDBRANCH  26  30
ENDBRANCH  22  24
ENDBRANCH  21  22
ENDBRANCH  18  21
ENDBRANCH   1  19
TORSDOF 9
ENDMDL
MODEL 2
REMARK VINA RESULT:     -10.3      1.267      1.994
REMARK  Name = 9675990
REMARK  9 active torsions:
REMARK  status: ('A' for Active; 'I' for Inactive)
REMARK    1  A    between atoms: C_1  and  N_2
REMARK    2  A    between atoms: C_1  and  C_19
REMARK    3  A    between atoms: N_3  and  C_10
REMARK    4  A    between atoms: C_10  and  C_11
REMARK    5  A    between atoms: N_18  and  N_21
REMARK    6  A    between atoms: N_21  and  C_22
REMARK    7  A    between atoms: C_22  and  C_24
REMARK    8  A    between atoms: C_26  and  C_30
REMARK    9  A    between atoms: C_30  and  C_31
REMARK                            x       y       z     vdW  Elec       q    Type
REMARK                         _______ _______ _______ _____ _____    ______ ____
ROOT
ATOM      1  C   UNL     1      35.213 -15.658 -23.133  0.00  0.00    +0.011 C 
ENDROOT
BRANCH   1   2
ATOM      2  N   UNL     1      34.002 -14.942 -22.606  0.00  0.00    +0.390 N 
ATOM      3  N   UNL     1      32.528 -12.728 -21.501  0.00  0.00    +0.387 N 
ATOM      4  C   UNL     1      34.165 -14.545 -21.160  0.00  0.00    -0.100 C 
ATOM      5  C   UNL     1      33.632 -13.754 -23.457  0.00  0.00    -0.100 C 
ATOM      6  C   UNL     1      32.877 -13.889 -20.673  0.00  0.00    -0.100 C 
ATOM      7  C   UNL     1      32.359 -13.121 -22.907  0.00  0.00    -0.100 C 
ATOM      8  H   UNL     1      33.230 -15.605 -22.654  0.00  0.00    -0.079 HD
ATOM      9  H   UNL     1      33.296 -12.057 -21.448  0.00  0.00    -0.079 HD
BRANCH   3  10
ATOM     10  C   UNL     1      31.316 -12.084 -20.998  0.00  0.00    -0.050 C 
BRANCH  10  11
ATOM     11  C   UNL     1      31.578 -10.674 -20.539  0.00  0.00    -0.043 C 
ATOM     12  C   UNL     1      31.956  -9.698 -21.463  0.00  0.00    -0.006 C 
ATOM     13  C   UNL     1      31.440 -10.342 -19.191  0.00  0.00    -0.006 C 
ATOM     14  C   UNL     1      32.197  -8.391 -21.037  0.00  0.00    -0.000 C 
ATOM     15  C   UNL     1      31.682  -9.035 -18.766  0.00  0.00    -0.000 C 
ATOM     16  C   UNL     1      32.060  -8.060 -19.689  0.00  0.00    -0.000 C 
ENDBRANCH  10  11
ENDBRANCH   3  10
ENDBRANCH   1   2
BRANCH   1  19
ATOM     17  O   UNL     1      34.444 -17.681 -24.195  0.00  0.00    -0.276 OA
ATOM     18  N   UNL     1      35.437 -17.802 -22.102  0.00  0.00    -0.234 N 
ATOM     19  C   UNL     1      34.978 -17.143 -23.228  0.00  0.00    +0.216 C 
ATOM     20  H   UNL     1      35.856 -17.301 -21.365  0.00  0.00    +0.171 HD
BRANCH  18  21
ATOM     21  N   UNL     1      35.300 -19.146 -22.031  0.00  0.00    -0.127 NA
BRANCH  21  22
ATOM     22  C   UNL     1      34.288 -19.533 -21.324  0.00  0.00    +0.141 C 
BRANCH  22  24
ATOM     23  O   UNL     1      36.687 -19.966 -19.859  0.00  0.00    -0.287 OA
ATOM     24  C   UNL     1      34.440 -20.455 -20.185  0.00  0.00    +0.036 C 
ATOM     25  C   UNL     1      35.644 -20.627 -19.502  0.00  0.00    +0.189 C 
ATOM     26  C   UNL     1      35.718 -21.518 -18.432  0.00  0.00    +0.021 C 
ATOM     27  C   UNL     1      33.310 -21.173 -19.796  0.00  0.00    +0.000 C 
ATOM     28  C   UNL     1      34.587 -22.236 -18.042  0.00  0.00    -0.001 C 
ATOM     29  C   UNL     1      33.383 -22.063 -18.724  0.00  0.00    -0.000 C 
BRANCH  26  30
ATOM     30  C   UNL     1      36.982 -21.747 -17.658  0.00  0.00    +0.056 C 
BRANCH  30  31
ATOM     31  C   UNL     1      36.734 -21.983 -16.194  0.00  0.00    -0.021 C 
ATOM     32  C   UNL     1      37.329 -22.945 -15.479  0.00  0.00    -0.005 C 
ENDBRANCH  30  31
ENDBRANCH  26  30
ENDBRANCH  22  24
ENDBRANCH  21  22
ENDBRANCH  18  21
ENDBRANCH   1  19
TORSDOF 9
ENDMDL
MODEL 3
REMARK VINA RESULT:     -10.2      5.115      8.562
REMARK  Name = 9675990
REMARK  9 active torsions:
REMARK  status: ('A' for Active; 'I' for Inactive)
REMARK    1  A    between atoms: C_1  and  N_2
REMARK    2  A    between atoms: C_1  and  C_19
REMARK    3  A    between atoms: N_3  and  C_10
REMARK    4  A    between atoms: C_10  and  C_11
REMARK    5  A    between atoms: N_18  and  N_21
REMARK    6  A    between atoms: N_21  and  C_22
REMARK    7  A    between atoms: C_22  and  C_24
REMARK    8  A    between atoms: C_26  and  C_30
REMARK    9  A    between atoms: C_30  and  C_31
REMARK                            x       y       z     vdW  Elec       q    Type
REMARK                         _______ _______ _______ _____ _____    ______ ____
ROOT
ATOM      1  C   UNL     1      33.759 -23.124 -18.258  0.00  0.00    +0.011 C 
ENDROOT
BRANCH   1   2
ATOM      2  N   UNL     1      34.330 -21.822 -18.743  0.00  0.00    +0.390 N 
ATOM      3  N   UNL     1      35.446 -19.993 -20.667  0.00  0.00    +0.387 N 
ATOM      4  C   UNL     1      35.752 -21.972 -19.223  0.00  0.00    -0.100 C 
ATOM      5  C   UNL     1      33.464 -21.183 -19.798  0.00  0.00    -0.100 C 
ATOM      6  C   UNL     1      36.289 -20.604 -19.632  0.00  0.00    -0.100 C 
ATOM      7  C   UNL     1      34.065 -19.837 -20.191  0.00  0.00    -0.100 C 
ATOM      8  H   UNL     1      34.345 -21.195 -17.939  0.00  0.00    -0.079 HD
ATOM      9  H   UNL     1      35.436 -20.613 -21.478  0.00  0.00    -0.079 HD
BRANCH   3  10
ATOM     10  C   UNL     1      35.995 -18.702 -21.081  0.00  0.00    -0.050 C 
BRANCH  10  11
ATOM     11  C   UNL     1      35.347 -18.193 -22.341  0.00  0.00    -0.043 C 
ATOM     12  C   UNL     1      34.725 -19.086 -23.215  0.00  0.00    -0.006 C 
ATOM     13  C   UNL     1      35.367 -16.830 -22.634  0.00  0.00    -0.006 C 
ATOM     14  C   UNL     1      34.123 -18.615 -24.382  0.00  0.00    -0.000 C 
ATOM     15  C   UNL     1      34.765 -16.359 -23.802  0.00  0.00    -0.000 C 
ATOM     16  C   UNL     1      34.144 -17.251 -24.676  0.00  0.00    -0.000 C 
ENDBRANCH  10  11
ENDBRANCH   3  10
ENDBRANCH   1   2
BRANCH   1  19
ATOM     17  O   UNL     1      31.844 -22.676 -16.864  0.00  0.00    -0.276 OA
ATOM     18  N   UNL     1      33.886 -23.155 -15.871  0.00  0.00    -0.234 N 
ATOM     19  C   UNL     1      33.037 -22.956 -16.946  0.00  0.00    +0.216 C 
ATOM     20  H   UNL     1      34.834 -23.377 -16.017  0.00  0.00    +0.171 HD
BRANCH  18  21
ATOM     21  N   UNL     1      33.389 -23.039 -14.619  0.00  0.00    -0.127 NA
BRANCH  21  22
ATOM     22  C   UNL     1      33.539 -24.101 -13.895  0.00  0.00    +0.141 C 
BRANCH  22  24
ATOM     23  O   UNL     1      35.638 -25.551 -15.154  0.00  0.00    -0.287 OA
ATOM     24  C   UNL     1      34.831 -24.447 -13.276  0.00  0.00    +0.036 C 
ATOM     25  C   UNL     1      35.826 -25.162 -13.943  0.00  0.00    +0.189 C 
ATOM     26  C   UNL     1      37.026 -25.456 -13.296  0.00  0.00    +0.021 C 
ATOM     27  C   UNL     1      35.037 -24.027 -11.962  0.00  0.00    +0.000 C 
ATOM     28  C   UNL     1      37.232 -25.035 -11.983  0.00  0.00    -0.001 C 
ATOM     29  C   UNL     1      36.238 -24.320 -11.316  0.00  0.00    -0.000 C 
BRANCH  26  30
ATOM     30  C   UNL     1      38.133 -26.220 -13.959  0.00  0.00    +0.056 C 
BRANCH  30  31
ATOM     31  C   UNL     1      39.497 -25.783 -13.501  0.00  0.00    -0.021 C 
ATOM     32  C   UNL     1      40.494 -25.446 -14.327  0.00  0.00    -0.005 C 
ENDBRANCH  30  31
ENDBRANCH  26  30
ENDBRANCH  22  24
ENDBRANCH  21  22
ENDBRANCH  18  21
ENDBRANCH   1  19
TORSDOF 9
ENDMDL
MODEL 4
REMARK VINA RESULT:     -10.2      2.539     10.815
REMARK  Name = 9675990
REMARK  9 active torsions:
REMARK  status: ('A' for Active; 'I' for Inactive)
REMARK    1  A    between atoms: C_1  and  N_2
REMARK    2  A    between atoms: C_1  and  C_19
REMARK    3  A    between atoms: N_3  and  C_10
REMARK    4  A    between atoms: C_10  and  C_11
REMARK    5  A    between atoms: N_18  and  N_21
REMARK    6  A    between atoms: N_21  and  C_22
REMARK    7  A    between atoms: C_22  and  C_24
REMARK    8  A    between atoms: C_26  and  C_30
REMARK    9  A    between atoms: C_30  and  C_31
REMARK                            x       y       z     vdW  Elec       q    Type
REMARK                         _______ _______ _______ _____ _____    ______ ____
ROOT
ATOM      1  C   UNL     1      33.449 -14.206 -23.928  0.00  0.00    +0.011 C 
ENDROOT
BRANCH   1   2
ATOM      2  N   UNL     1      34.387 -15.225 -23.345  0.00  0.00    +0.390 N 
ATOM      3  N   UNL     1      35.114 -17.655 -21.980  0.00  0.00    +0.387 N 
ATOM      4  C   UNL     1      34.221 -15.356 -21.852  0.00  0.00    -0.100 C 
ATOM      5  C   UNL     1      34.262 -16.564 -24.026  0.00  0.00    -0.100 C 
ATOM      6  C   UNL     1      35.248 -16.350 -21.320  0.00  0.00    -0.100 C 
ATOM      7  C   UNL     1      35.288 -17.525 -23.434  0.00  0.00    -0.100 C 
ATOM      8  H   UNL     1      35.331 -14.882 -23.518  0.00  0.00    -0.079 HD
ATOM      9  H   UNL     1      34.172 -18.006 -21.802  0.00  0.00    -0.079 HD
BRANCH   3  10
ATOM     10  C   UNL     1      36.075 -18.610 -21.432  0.00  0.00    -0.050 C 
BRANCH  10  11
ATOM     11  C   UNL     1      35.400 -19.681 -20.616  0.00  0.00    -0.043 C 
ATOM     12  C   UNL     1      34.009 -19.788 -20.620  0.00  0.00    -0.006 C 
ATOM     13  C   UNL     1      36.166 -20.566 -19.858  0.00  0.00    -0.006 C 
ATOM     14  C   UNL     1      33.384 -20.781 -19.865  0.00  0.00    -0.000 C 
ATOM     15  C   UNL     1      35.540 -21.559 -19.102  0.00  0.00    -0.000 C 
ATOM     16  C   UNL     1      34.149 -21.666 -19.106  0.00  0.00    -0.000 C 
ENDBRANCH  10  11
ENDBRANCH   3  10
ENDBRANCH   1   2
BRANCH   1  19
ATOM     17  O   UNL     1      34.172 -12.211 -22.784  0.00  0.00    -0.276 OA
ATOM     18  N   UNL     1      32.006 -12.982 -22.469  0.00  0.00    -0.234 N 
ATOM     19  C   UNL     1      33.278 -13.024 -23.010  0.00  0.00    +0.216 C 
ATOM     20  H   UNL     1      31.341 -13.671 -22.698  0.00  0.00    +0.171 HD
BRANCH  18  21
ATOM     21  N   UNL     1      31.691 -11.977 -21.620  0.00  0.00    -0.127 NA
BRANCH  21  22
ATOM     22  C   UNL     1      31.306 -10.893 -22.212  0.00  0.00    +0.141 C 
BRANCH  22  24
ATOM     23  O   UNL     1      32.240  -8.863 -23.972  0.00  0.00    -0.287 OA
ATOM     24  C   UNL     1      31.796  -9.564 -21.802  0.00  0.00    +0.036 C 
ATOM     25  C   UNL     1      32.243  -8.607 -22.712  0.00  0.00    +0.189 C 
ATOM     26  C   UNL     1      32.695  -7.369 -22.256  0.00  0.00    +0.021 C 
ATOM     27  C   UNL     1      31.801  -9.284 -20.436  0.00  0.00    +0.000 C 
ATOM     28  C   UNL     1      32.699  -7.087 -20.890  0.00  0.00    -0.001 C 
ATOM     29  C   UNL     1      32.252  -8.045 -19.980  0.00  0.00    -0.000 C 
BRANCH  26  30
ATOM     30  C   UNL     1      33.188  -6.298 -23.183  0.00  0.00    +0.056 C 
BRANCH  30  31
ATOM     31  C   UNL     1      34.564  -6.581 -23.720  0.00  0.00    -0.021 C 
ATOM     32  C   UNL     1      35.560  -7.099 -22.994  0.00  0.00    -0.005 C 
ENDBRANCH  30  31
ENDBRANCH  26  30
ENDBRANCH  22  24
ENDBRANCH  21  22
ENDBRANCH  18  21
ENDBRANCH   1  19
TORSDOF 9
ENDMDL
MODEL 5
REMARK VINA RESULT:     -10.1      1.808      9.864
REMARK  Name = 9675990
REMARK  9 active torsions:
REMARK  status: ('A' for Active; 'I' for Inactive)
REMARK    1  A    between atoms: C_1  and  N_2
REMARK    2  A    between atoms: C_1  and  C_19
REMARK    3  A    between atoms: N_3  and  C_10
REMARK    4  A    between atoms: C_10  and  C_11
REMARK    5  A    between atoms: N_18  and  N_21
REMARK    6  A    between atoms: N_21  and  C_22
REMARK    7  A    between atoms: C_22  and  C_24
REMARK    8  A    between atoms: C_26  and  C_30
REMARK    9  A    between atoms: C_30  and  C_31
REMARK                            x       y       z     vdW  Elec       q    Type
REMARK                         _______ _______ _______ _____ _____    ______ ____
ROOT
ATOM      1  C   UNL     1      36.115 -18.831 -21.070  0.00  0.00    +0.011 C 
ENDROOT
BRANCH   1   2
ATOM      2  N   UNL     1      35.467 -20.099 -20.593  0.00  0.00    +0.390 N 
ATOM      3  N   UNL     1      34.191 -21.849 -18.694  0.00  0.00    +0.387 N 
ATOM      4  C   UNL     1      36.258 -20.758 -19.490  0.00  0.00    -0.100 C 
ATOM      5  C   UNL     1      34.035 -19.882 -20.179  0.00  0.00    -0.100 C 
ATOM      6  C   UNL     1      35.583 -22.070 -19.105  0.00  0.00    -0.100 C 
ATOM      7  C   UNL     1      33.421 -21.218 -19.774  0.00  0.00    -0.100 C 
ATOM      8  H   UNL     1      35.462 -20.738 -21.387  0.00  0.00    -0.079 HD
ATOM      9  H   UNL     1      34.193 -21.216 -17.893  0.00  0.00    -0.079 HD
BRANCH   3  10
ATOM     10  C   UNL     1      33.569 -23.108 -18.287  0.00  0.00    -0.050 C 
BRANCH  10  11
ATOM     11  C   UNL     1      33.152 -23.087 -16.840  0.00  0.00    -0.043 C 
ATOM     12  C   UNL     1      31.814 -22.880 -16.504  0.00  0.00    -0.006 C 
ATOM     13  C   UNL     1      34.102 -23.277 -15.837  0.00  0.00    -0.006 C 
ATOM     14  C   UNL     1      31.426 -22.862 -15.163  0.00  0.00    -0.000 C 
ATOM     15  C   UNL     1      33.714 -23.258 -14.497  0.00  0.00    -0.000 C 
ATOM     16  C   UNL     1      32.377 -23.051 -14.160  0.00  0.00    -0.000 C 
ENDBRANCH  10  11
ENDBRANCH   3  10
ENDBRANCH   1   2
BRANCH   1  19
ATOM     17  O   UNL     1      34.930 -18.926 -23.168  0.00  0.00    -0.276 OA
ATOM     18  N   UNL     1      35.287 -16.869 -22.154  0.00  0.00    -0.234 N 
ATOM     19  C   UNL     1      35.381 -18.246 -22.249  0.00  0.00    +0.216 C 
ATOM     20  H   UNL     1      35.674 -16.392 -21.385  0.00  0.00    +0.171 HD
BRANCH  18  21
ATOM     21  N   UNL     1      34.653 -16.190 -23.138  0.00  0.00    -0.127 NA
BRANCH  21  22
ATOM     22  C   UNL     1      35.000 -14.947 -23.225  0.00  0.00    +0.141 C 
BRANCH  22  24
ATOM     23  O   UNL     1      33.856 -14.631 -20.640  0.00  0.00    -0.287 OA
ATOM     24  C   UNL     1      34.099 -13.855 -22.816  0.00  0.00    +0.036 C 
ATOM     25  C   UNL     1      33.566 -13.751 -21.531  0.00  0.00    +0.189 C 
ATOM     26  C   UNL     1      32.718 -12.691 -21.211  0.00  0.00    +0.021 C 
ATOM     27  C   UNL     1      33.783 -12.900 -23.781  0.00  0.00    +0.000 C 
ATOM     28  C   UNL     1      32.403 -11.734 -22.176  0.00  0.00    -0.001 C 
ATOM     29  C   UNL     1      32.935 -11.839 -23.461  0.00  0.00    -0.000 C 
BRANCH  26  30
ATOM     30  C   UNL     1      32.115 -12.523 -19.849  0.00  0.00    +0.056 C 
BRANCH  30  31
ATOM     31  C   UNL     1      31.648 -11.118 -19.588  0.00  0.00    -0.021 C 
ATOM     32  C   UNL     1      31.903 -10.439 -18.464  0.00  0.00    -0.005 C 
ENDBRANCH  30  31
ENDBRANCH  26  30
ENDBRANCH  22  24
ENDBRANCH  21  22
ENDBRANCH  18  21
ENDBRANCH   1  19
TORSDOF 9
ENDMDL
MODEL 6
REMARK VINA RESULT:     -10.1      1.936      3.531
REMARK  Name = 9675990
REMARK  9 active torsions:
REMARK  status: ('A' for Active; 'I' for Inactive)
REMARK    1  A    between atoms: C_1  and  N_2
REMARK    2  A    between atoms: C_1  and  C_19
REMARK    3  A    between atoms: N_3  and  C_10
REMARK    4  A    between atoms: C_10  and  C_11
REMARK    5  A    between atoms: N_18  and  N_21
REMARK    6  A    between atoms: N_21  and  C_22
REMARK    7  A    between atoms: C_22  and  C_24
REMARK    8  A    between atoms: C_26  and  C_30
REMARK    9  A    between atoms: C_30  and  C_31
REMARK                            x       y       z     vdW  Elec       q    Type
REMARK                         _______ _______ _______ _____ _____    ______ ____
ROOT
ATOM      1  C   UNL     1      35.544 -18.805 -22.343  0.00  0.00    +0.011 C 
ENDROOT
BRANCH   1   2
ATOM      2  N   UNL     1      35.446 -17.344 -22.678  0.00  0.00    +0.390 N 
ATOM      3  N   UNL     1      34.123 -14.814 -23.058  0.00  0.00    +0.387 N 
ATOM      4  C   UNL     1      34.573 -17.098 -23.883  0.00  0.00    -0.100 C 
ATOM      5  C   UNL     1      34.992 -16.522 -21.500  0.00  0.00    -0.100 C 
ATOM      6  C   UNL     1      34.576 -15.607 -24.208  0.00  0.00    -0.100 C 
ATOM      7  C   UNL     1      34.983 -15.048 -21.890  0.00  0.00    -0.100 C 
ATOM      8  H   UNL     1      36.389 -17.038 -22.918  0.00  0.00    -0.079 HD
ATOM      9  H   UNL     1      33.176 -15.111 -22.820  0.00  0.00    -0.079 HD
BRANCH   3  10
ATOM     10  C   UNL     1      34.090 -13.392 -23.396  0.00  0.00    -0.050 C 
BRANCH  10  11
ATOM     11  C   UNL     1      33.070 -12.643 -22.579  0.00  0.00    -0.043 C 
ATOM     12  C   UNL     1      32.655 -11.373 -22.977  0.00  0.00    -0.006 C 
ATOM     13  C   UNL     1      32.540 -13.222 -21.426  0.00  0.00    -0.006 C 
ATOM     14  C   UNL     1      31.709 -10.679 -22.221  0.00  0.00    -0.000 C 
ATOM     15  C   UNL     1      31.594 -12.528 -20.670  0.00  0.00    -0.000 C 
ATOM     16  C   UNL     1      31.179 -11.257 -21.067  0.00  0.00    -0.000 C 
ENDBRANCH  10  11
ENDBRANCH   3  10
ENDBRANCH   1   2
BRANCH   1  19
ATOM     17  O   UNL     1      37.638 -18.587 -21.168  0.00  0.00    -0.276 OA
ATOM     18  N   UNL     1      35.928 -19.839 -20.223  0.00  0.00    -0.234 N 
ATOM     19  C   UNL     1      36.499 -19.047 -21.202  0.00  0.00    +0.216 C 
ATOM     20  H   UNL     1      35.006 -20.171 -20.321  0.00  0.00    +0.171 HD
BRANCH  18  21
ATOM     21  N   UNL     1      36.659 -20.149 -19.128  0.00  0.00    -0.127 NA
BRANCH  21  22
ATOM     22  C   UNL     1      36.693 -21.415 -18.861  0.00  0.00    +0.141 C 
BRANCH  22  24
ATOM     23  O   UNL     1      33.955 -22.181 -18.770  0.00  0.00    -0.287 OA
ATOM     24  C   UNL     1      36.002 -21.984 -17.690  0.00  0.00    +0.036 C 
ATOM     25  C   UNL     1      34.654 -22.342 -17.703  0.00  0.00    +0.189 C 
ATOM     26  C   UNL     1      34.064 -22.876 -16.559  0.00  0.00    +0.021 C 
ATOM     27  C   UNL     1      36.759 -22.160 -16.532  0.00  0.00    +0.000 C 
ATOM     28  C   UNL     1      34.820 -23.053 -15.400  0.00  0.00    -0.001 C 
ATOM     29  C   UNL     1      36.168 -22.695 -15.387  0.00  0.00    -0.000 C 
BRANCH  26  30
ATOM     30  C   UNL     1      32.621 -23.281 -16.509  0.00  0.00    +0.056 C 
BRANCH  30  31
ATOM     31  C   UNL     1      32.132 -23.526 -15.108  0.00  0.00    -0.021 C 
ATOM     32  C   UNL     1      30.871 -23.325 -14.708  0.00  0.00    -0.005 C 
ENDBRANCH  30  31
ENDBRANCH  26  30
ENDBRANCH  22  24
ENDBRANCH  21  22
ENDBRANCH  18  21
ENDBRANCH   1  19
TORSDOF 9
ENDMDL
MODEL 7
REMARK VINA RESULT:     -10.1      3.163     11.229
REMARK  Name = 9675990
REMARK  9 active torsions:
REMARK  status: ('A' for Active; 'I' for Inactive)
REMARK    1  A    between atoms: C_1  and  N_2
REMARK    2  A    between atoms: C_1  and  C_19
REMARK    3  A    between atoms: N_3  and  C_10
REMARK    4  A    between atoms: C_10  and  C_11
REMARK    5  A    between atoms: N_18  and  N_21
REMARK    6  A    between atoms: N_21  and  C_22
REMARK    7  A    between atoms: C_22  and  C_24
REMARK    8  A    between atoms: C_26  and  C_30
REMARK    9  A    between atoms: C_30  and  C_31
REMARK                            x       y       z     vdW  Elec       q    Type
REMARK                         _______ _______ _______ _____ _____    ______ ____
ROOT
ATOM      1  C   UNL     1      35.536 -21.423 -19.785  0.00  0.00    +0.011 C 
ENDROOT
BRANCH   1   2
ATOM      2  N   UNL     1      35.193 -21.750 -18.359  0.00  0.00    +0.390 N 
ATOM      3  N   UNL     1      35.025 -23.401 -16.005  0.00  0.00    +0.387 N 
ATOM      4  C   UNL     1      34.179 -22.861 -18.261  0.00  0.00    -0.100 C 
ATOM      5  C   UNL     1      36.420 -22.059 -17.539  0.00  0.00    -0.100 C 
ATOM      6  C   UNL     1      33.826 -23.090 -16.795  0.00  0.00    -0.100 C 
ATOM      7  C   UNL     1      36.005 -22.311 -16.093  0.00  0.00    -0.100 C 
ATOM      8  H   UNL     1      34.766 -20.912 -17.965  0.00  0.00    -0.079 HD
ATOM      9  H   UNL     1      35.451 -24.244 -16.391  0.00  0.00    -0.079 HD
BRANCH   3  10
ATOM     10  C   UNL     1      34.668 -23.660 -14.611  0.00  0.00    -0.050 C 
BRANCH  10  11
ATOM     11  C   UNL     1      35.641 -24.598 -13.947  0.00  0.00    -0.043 C 
ATOM     12  C   UNL     1      36.059 -24.357 -12.637  0.00  0.00    -0.006 C 
ATOM     13  C   UNL     1      36.123 -25.708 -14.640  0.00  0.00    -0.006 C 
ATOM     14  C   UNL     1      36.959 -25.227 -12.021  0.00  0.00    -0.000 C 
ATOM     15  C   UNL     1      37.024 -26.578 -14.023  0.00  0.00    -0.000 C 
ATOM     16  C   UNL     1      37.442 -26.337 -12.715  0.00  0.00    -0.000 C 
ENDBRANCH  10  11
ENDBRANCH   3  10
ENDBRANCH   1   2
BRANCH   1  19
ATOM     17  O   UNL     1      33.625 -20.132 -20.489  0.00  0.00    -0.276 OA
ATOM     18  N   UNL     1      35.706 -19.112 -20.368  0.00  0.00    -0.234 N 
ATOM     19  C   UNL     1      34.830 -20.176 -20.250  0.00  0.00    +0.216 C 
ATOM     20  H   UNL     1      36.661 -19.224 -20.158  0.00  0.00    +0.171 HD
BRANCH  18  21
ATOM     21  N   UNL     1      35.226 -17.915 -20.777  0.00  0.00    -0.127 NA
BRANCH  21  22
ATOM     22  C   UNL     1      35.680 -17.534 -21.927  0.00  0.00    +0.141 C 
BRANCH  22  24
ATOM     23  O   UNL     1      34.951 -14.935 -21.033  0.00  0.00    -0.287 OA
ATOM     24  C   UNL     1      34.993 -16.512 -22.737  0.00  0.00    +0.036 C 
ATOM     25  C   UNL     1      34.660 -15.251 -22.244  0.00  0.00    +0.189 C 
ATOM     26  C   UNL     1      34.009 -14.331 -23.065  0.00  0.00    +0.021 C 
ATOM     27  C   UNL     1      34.675 -16.854 -24.051  0.00  0.00    +0.000 C 
ATOM     28  C   UNL     1      33.692 -14.671 -24.380  0.00  0.00    -0.001 C 
ATOM     29  C   UNL     1      34.025 -15.933 -24.873  0.00  0.00    -0.000 C 
BRANCH  26  30
ATOM     30  C   UNL     1      33.625 -12.960 -22.595  0.00  0.00    +0.056 C 
BRANCH  30  31
ATOM     31  C   UNL     1      32.240 -12.911 -22.011  0.00  0.00    -0.021 C 
ATOM     32  C   UNL     1      31.958 -13.160 -20.728  0.00  0.00    -0.005 C 
ENDBRANCH  30  31
ENDBRANCH  26  30
ENDBRANCH  22  24
ENDBRANCH  21  22
ENDBRANCH  18  21
ENDBRANCH   1  19
TORSDOF 9
ENDMDL
MODEL 8
REMARK VINA RESULT:     -10.0      3.156      5.339
REMARK  Name = 9675990
REMARK  9 active torsions:
REMARK  status: ('A' for Active; 'I' for Inactive)
REMARK    1  A    between atoms: C_1  and  N_2
REMARK    2  A    between atoms: C_1  and  C_19
REMARK    3  A    between atoms: N_3  and  C_10
REMARK    4  A    between atoms: C_10  and  C_11
REMARK    5  A    between atoms: N_18  and  N_21
REMARK    6  A    between atoms: N_21  and  C_22
REMARK    7  A    between atoms: C_22  and  C_24
REMARK    8  A    between atoms: C_26  and  C_30
REMARK    9  A    between atoms: C_30  and  C_31
REMARK                            x       y       z     vdW  Elec       q    Type
REMARK                         _______ _______ _______ _____ _____    ______ ____
ROOT
ATOM      1  C   UNL     1      31.693 -12.192 -22.016  0.00  0.00    +0.011 C 
ENDROOT
BRANCH   1   2
ATOM      2  N   UNL     1      32.459 -10.901 -21.938  0.00  0.00    +0.390 N 
ATOM      3  N   UNL     1      32.924  -8.089 -22.351  0.00  0.00    +0.387 N 
ATOM      4  C   UNL     1      32.799 -10.363 -23.306  0.00  0.00    -0.100 C 
ATOM      5  C   UNL     1      31.741  -9.867 -21.110  0.00  0.00    -0.100 C 
ATOM      6  C   UNL     1      33.633  -9.096 -23.151  0.00  0.00    -0.100 C 
ATOM      7  C   UNL     1      32.605  -8.613 -21.016  0.00  0.00    -0.100 C 
ATOM      8  H   UNL     1      33.337 -11.114 -21.468  0.00  0.00    -0.079 HD
ATOM      9  H   UNL     1      32.047  -7.867 -22.824  0.00  0.00    -0.079 HD
BRANCH   3  10
ATOM     10  C   UNL     1      33.716  -6.865 -22.247  0.00  0.00    -0.050 C 
BRANCH  10  11
ATOM     11  C   UNL     1      33.906  -6.202 -23.586  0.00  0.00    -0.043 C 
ATOM     12  C   UNL     1      35.164  -6.200 -24.190  0.00  0.00    -0.006 C 
ATOM     13  C   UNL     1      32.825  -5.594 -24.222  0.00  0.00    -0.006 C 
ATOM     14  C   UNL     1      35.340  -5.587 -25.431  0.00  0.00    -0.000 C 
ATOM     15  C   UNL     1      33.002  -4.980 -25.464  0.00  0.00    -0.000 C 
ATOM     16  C   UNL     1      34.259  -4.978 -26.067  0.00  0.00    -0.000 C 
ENDBRANCH  10  11
ENDBRANCH   3  10
ENDBRANCH   1   2
BRANCH   1  19
ATOM     17  O   UNL     1      32.113 -14.021 -20.502  0.00  0.00    -0.276 OA
ATOM     18  N   UNL     1      33.676 -13.519 -22.142  0.00  0.00    -0.234 N 
ATOM     19  C   UNL     1      32.490 -13.341 -21.454  0.00  0.00    +0.216 C 
ATOM     20  H   UNL     1      33.910 -12.932 -22.897  0.00  0.00    +0.171 HD
BRANCH  18  21
ATOM     21  N   UNL     1      34.508 -14.514 -21.759  0.00  0.00    -0.127 NA
BRANCH  21  22
ATOM     22  C   UNL     1      35.023 -15.176 -22.744  0.00  0.00    +0.141 C 
BRANCH  22  24
ATOM     23  O   UNL     1      35.416 -17.031 -20.625  0.00  0.00    -0.287 OA
ATOM     24  C   UNL     1      34.892 -16.640 -22.853  0.00  0.00    +0.036 C 
ATOM     25  C   UNL     1      35.098 -17.503 -21.777  0.00  0.00    +0.189 C 
ATOM     26  C   UNL     1      34.958 -18.879 -21.951  0.00  0.00    +0.021 C 
ATOM     27  C   UNL     1      34.547 -17.153 -24.103  0.00  0.00    +0.000 C 
ATOM     28  C   UNL     1      34.612 -19.394 -23.200  0.00  0.00    -0.001 C 
ATOM     29  C   UNL     1      34.406 -18.530 -24.277  0.00  0.00    -0.000 C 
BRANCH  26  30
ATOM     30  C   UNL     1      35.164 -19.858 -20.834  0.00  0.00    +0.056 C 
BRANCH  30  31
ATOM     31  C   UNL     1      33.881 -20.235 -20.146  0.00  0.00    -0.021 C 
ATOM     32  C   UNL     1      33.696 -21.381 -19.480  0.00  0.00    -0.005 C 
ENDBRANCH  30  31
ENDBRANCH  26  30
ENDBRANCH  22  24
ENDBRANCH  21  22
ENDBRANCH  18  21
ENDBRANCH   1  19
TORSDOF 9
ENDMDL
MODEL 9
REMARK VINA RESULT:     -10.0      4.015     11.655
REMARK  Name = 9675990
REMARK  9 active torsions:
REMARK  status: ('A' for Active; 'I' for Inactive)
REMARK    1  A    between atoms: C_1  and  N_2
REMARK    2  A    between atoms: C_1  and  C_19
REMARK    3  A    between atoms: N_3  and  C_10
REMARK    4  A    between atoms: C_10  and  C_11
REMARK    5  A    between atoms: N_18  and  N_21
REMARK    6  A    between atoms: N_21  and  C_22
REMARK    7  A    between atoms: C_22  and  C_24
REMARK    8  A    between atoms: C_26  and  C_30
REMARK    9  A    between atoms: C_30  and  C_31
REMARK                            x       y       z     vdW  Elec       q    Type
REMARK                         _______ _______ _______ _____ _____    ______ ____
ROOT
ATOM      1  C   UNL     1      31.360 -11.675 -20.783  0.00  0.00    +0.011 C 
ENDROOT
BRANCH   1   2
ATOM      2  N   UNL     1      32.552 -12.409 -21.328  0.00  0.00    +0.390 N 
ATOM      3  N   UNL     1      33.949 -14.588 -22.589  0.00  0.00    +0.387 N 
ATOM      4  C   UNL     1      32.808 -13.698 -20.588  0.00  0.00    -0.100 C 
ATOM      5  C   UNL     1      32.441 -12.646 -22.812  0.00  0.00    -0.100 C 
ATOM      6  C   UNL     1      34.069 -14.352 -21.145  0.00  0.00    -0.100 C 
ATOM      7  C   UNL     1      33.712 -13.328 -23.307  0.00  0.00    -0.100 C 
ATOM      8  H   UNL     1      33.359 -11.805 -21.174  0.00  0.00    -0.079 HD
ATOM      9  H   UNL     1      33.148 -15.200 -22.746  0.00  0.00    -0.079 HD
BRANCH   3  10
ATOM     10  C   UNL     1      35.146 -15.253 -23.102  0.00  0.00    -0.050 C 
BRANCH  10  11
ATOM     11  C   UNL     1      34.978 -16.749 -23.158  0.00  0.00    -0.043 C 
ATOM     12  C   UNL     1      35.479 -17.546 -22.128  0.00  0.00    -0.006 C 
ATOM     13  C   UNL     1      34.319 -17.336 -24.238  0.00  0.00    -0.006 C 
ATOM     14  C   UNL     1      35.322 -18.931 -22.180  0.00  0.00    -0.000 C 
ATOM     15  C   UNL     1      34.163 -18.722 -24.289  0.00  0.00    -0.000 C 
ATOM     16  C   UNL     1      34.664 -19.519 -23.260  0.00  0.00    -0.000 C 
ENDBRANCH  10  11
ENDBRANCH   3  10
ENDBRANCH   1   2
BRANCH   1  19
ATOM     17  O   UNL     1      31.929 -11.012 -18.536  0.00  0.00    -0.276 OA
ATOM     18  N   UNL     1      31.900  -9.416 -20.220  0.00  0.00    -0.234 N 
ATOM     19  C   UNL     1      31.758 -10.694 -19.710  0.00  0.00    +0.216 C 
ATOM     20  H   UNL     1      31.745  -9.238 -21.176  0.00  0.00    +0.171 HD
BRANCH  18  21
ATOM     21  N   UNL     1      32.256  -8.416 -19.381  0.00  0.00    -0.127 NA
BRANCH  21  22
ATOM     22  C   UNL     1      33.132  -7.603 -19.876  0.00  0.00    +0.141 C 
BRANCH  22  24
ATOM     23  O   UNL     1      33.641  -8.215 -22.607  0.00  0.00    -0.287 OA
ATOM     24  C   UNL     1      32.824  -6.727 -21.021  0.00  0.00    +0.036 C 
ATOM     25  C   UNL     1      33.097  -7.081 -22.342  0.00  0.00    +0.189 C 
ATOM     26  C   UNL     1      32.780  -6.203 -23.379  0.00  0.00    +0.021 C 
ATOM     27  C   UNL     1      32.234  -5.496 -20.736  0.00  0.00    +0.000 C 
ATOM     28  C   UNL     1      32.189  -4.972 -23.094  0.00  0.00    -0.001 C 
ATOM     29  C   UNL     1      31.916  -4.619 -21.773  0.00  0.00    -0.000 C 
BRANCH  26  30
ATOM     30  C   UNL     1      33.048  -6.524 -24.819  0.00  0.00    +0.056 C 
BRANCH  30  31
ATOM     31  C   UNL     1      34.280  -5.843 -25.348  0.00  0.00    -0.021 C 
ATOM     32  C   UNL     1      35.485  -5.919 -24.772  0.00  0.00    -0.005 C 
ENDBRANCH  30  31
ENDBRANCH  26  30
ENDBRANCH  22  24
ENDBRANCH  21  22
ENDBRANCH  18  21
ENDBRANCH   1  19
TORSDOF 9
ENDMDL
