MODEL 1
REMARK VINA RESULT:     -11.6      0.000      0.000
REMARK  Name = 5312137
REMARK  3 active torsions:
REMARK  status: ('A' for Active; 'I' for Inactive)
REMARK    1  A    between atoms: C_3  and  C_20
REMARK    2  A    between atoms: C_7  and  S_23
REMARK    3  A    between atoms: S_23  and  N_26
REMARK                            x       y       z     vdW  Elec       q    Type
REMARK                         _______ _______ _______ _____ _____    ______ ____
ROOT
ATOM      1  O   UNL     1      32.874 -21.033 -20.129  0.00  0.00    -0.270 OA
ATOM      2  N   UNL     1      32.895 -22.371 -18.183  0.00  0.00    -0.280 N 
ATOM      3  C   UNL     1      35.748 -20.617 -19.475  0.00  0.00    +0.019 C 
ATOM      4  C   UNL     1      34.866 -21.369 -18.773  0.00  0.00    +0.056 C 
ATOM      5  C   UNL     1      35.095 -22.141 -17.556  0.00  0.00    +0.019 C 
ATOM      6  C   UNL     1      33.867 -22.728 -17.241  0.00  0.00    +0.051 C 
ATOM      7  C   UNL     1      36.056 -23.176 -15.637  0.00  0.00    +0.122 C 
ATOM      8  C   UNL     1      36.205 -22.354 -16.760  0.00  0.00    +0.021 C 
ATOM      9  C   UNL     1      33.426 -21.531 -19.166  0.00  0.00    +0.250 C 
ATOM     10  C   UNL     1      33.698 -23.541 -16.139  0.00  0.00    +0.016 C 
ATOM     11  C   UNL     1      34.814 -23.763 -15.329  0.00  0.00    +0.021 C 
ATOM     12  H   UNL     1      31.958 -22.673 -18.156  0.00  0.00    +0.155 HD
ENDROOT
BRANCH   3  20
ATOM     13  N   UNL     1      35.566 -18.530 -20.604  0.00  0.00    -0.316 N 
ATOM     14  C   UNL     1      35.245 -18.021 -21.832  0.00  0.00    +0.021 C 
ATOM     15  C   UNL     1      34.921 -19.070 -22.668  0.00  0.00    -0.012 C 
ATOM     16  C   UNL     1      35.220 -16.576 -22.181  0.00  0.00    +0.041 C 
ATOM     17  C   UNL     1      34.537 -18.868 -24.092  0.00  0.00    +0.027 C 
ATOM     18  C   UNL     1      35.155 -16.415 -23.712  0.00  0.00    +0.006 C 
ATOM     19  C   UNL     1      34.161 -17.398 -24.362  0.00  0.00    +0.005 C 
ATOM     20  C   UNL     1      35.457 -19.897 -20.644  0.00  0.00    +0.048 C 
ATOM     21  C   UNL     1      35.060 -20.260 -21.914  0.00  0.00    +0.011 C 
ATOM     22  H   UNL     1      35.832 -17.999 -19.818  0.00  0.00    +0.152 HD
ENDBRANCH   3  20
BRANCH   7  23
ATOM     23  S   UNL     1      37.430 -23.476 -14.600  0.00  0.00    +0.063 S 
ATOM     24  O   UNL     1      38.632 -23.469 -15.428  0.00  0.00    -0.153 OA
ATOM     25  O   UNL     1      37.357 -22.557 -13.471  0.00  0.00    -0.153 OA
BRANCH  23  26
ATOM     26  N   UNL     1      37.156 -25.087 -14.030  0.00  0.00    -0.153 NA
ATOM     27  C   UNL     1      38.073 -26.151 -14.512  0.00  0.00    +0.115 C 
ATOM     28  C   UNL     1      36.808 -25.258 -12.597  0.00  0.00    +0.115 C 
ENDBRANCH  23  26
ENDBRANCH   7  23
TORSDOF 3
ENDMDL
MODEL 2
REMARK VINA RESULT:     -10.9      1.127      1.672
REMARK  Name = 5312137
REMARK  3 active torsions:
REMARK  status: ('A' for Active; 'I' for Inactive)
REMARK    1  A    between atoms: C_3  and  C_20
REMARK    2  A    between atoms: C_7  and  S_23
REMARK    3  A    between atoms: S_23  and  N_26
REMARK                            x       y       z     vdW  Elec       q    Type
REMARK                         _______ _______ _______ _____ _____    ______ ____
ROOT
ATOM      1  O   UNL     1      32.670 -20.637 -20.172  0.00  0.00    -0.270 OA
ATOM      2  N   UNL     1      32.552 -22.136 -18.349  0.00  0.00    -0.280 N 
ATOM      3  C   UNL     1      35.561 -20.531 -19.470  0.00  0.00    +0.019 C 
ATOM      4  C   UNL     1      34.609 -21.261 -18.840  0.00  0.00    +0.056 C 
ATOM      5  C   UNL     1      34.756 -22.152 -17.694  0.00  0.00    +0.019 C 
ATOM      6  C   UNL     1      33.478 -22.656 -17.438  0.00  0.00    +0.051 C 
ATOM      7  C   UNL     1      35.600 -23.428 -15.868  0.00  0.00    +0.122 C 
ATOM      8  C   UNL     1      35.833 -22.529 -16.915  0.00  0.00    +0.021 C 
ATOM      9  C   UNL     1      33.165 -21.263 -19.253  0.00  0.00    +0.250 C 
ATOM     10  C   UNL     1      33.225 -23.543 -16.411  0.00  0.00    +0.016 C 
ATOM     11  C   UNL     1      34.308 -23.930 -15.619  0.00  0.00    +0.021 C 
ATOM     12  H   UNL     1      31.592 -22.356 -18.354  0.00  0.00    +0.155 HD
ENDROOT
BRANCH   3  20
ATOM     13  N   UNL     1      34.906 -20.258 -21.742  0.00  0.00    -0.316 N 
ATOM     14  C   UNL     1      34.759 -19.279 -22.686  0.00  0.00    +0.021 C 
ATOM     15  C   UNL     1      35.114 -18.071 -22.120  0.00  0.00    -0.012 C 
ATOM     16  C   UNL     1      34.324 -19.500 -24.089  0.00  0.00    +0.041 C 
ATOM     17  C   UNL     1      35.056 -16.788 -22.873  0.00  0.00    +0.027 C 
ATOM     18  C   UNL     1      33.949 -18.151 -24.734  0.00  0.00    +0.006 C 
ATOM     19  C   UNL     1      34.960 -17.040 -24.391  0.00  0.00    +0.005 C 
ATOM     20  C   UNL     1      35.347 -19.690 -20.573  0.00  0.00    +0.048 C 
ATOM     21  C   UNL     1      35.484 -18.333 -20.779  0.00  0.00    +0.011 C 
ATOM     22  H   UNL     1      34.724 -21.216 -21.880  0.00  0.00    +0.152 HD
ENDBRANCH   3  20
BRANCH   7  23
ATOM     23  S   UNL     1      36.930 -23.935 -14.855  0.00  0.00    +0.063 S 
ATOM     24  O   UNL     1      37.103 -25.375 -15.019  0.00  0.00    -0.153 OA
ATOM     25  O   UNL     1      38.066 -23.062 -15.126  0.00  0.00    -0.153 OA
BRANCH  23  26
ATOM     26  N   UNL     1      36.354 -23.623 -13.253  0.00  0.00    -0.153 NA
ATOM     27  C   UNL     1      35.612 -24.711 -12.567  0.00  0.00    +0.115 C 
ATOM     28  C   UNL     1      37.259 -22.896 -12.327  0.00  0.00    +0.115 C 
ENDBRANCH  23  26
ENDBRANCH   7  23
TORSDOF 3
ENDMDL
MODEL 3
REMARK VINA RESULT:     -10.5      2.658      8.765
REMARK  Name = 5312137
REMARK  3 active torsions:
REMARK  status: ('A' for Active; 'I' for Inactive)
REMARK    1  A    between atoms: C_3  and  C_20
REMARK    2  A    between atoms: C_7  and  S_23
REMARK    3  A    between atoms: S_23  and  N_26
REMARK                            x       y       z     vdW  Elec       q    Type
REMARK                         _______ _______ _______ _____ _____    ______ ____
ROOT
ATOM      1  O   UNL     1      34.419 -23.808 -16.185  0.00  0.00    -0.270 OA
ATOM      2  N   UNL     1      33.459 -22.741 -18.061  0.00  0.00    -0.280 N 
ATOM      3  C   UNL     1      36.717 -22.002 -16.748  0.00  0.00    +0.019 C 
ATOM      4  C   UNL     1      35.557 -22.066 -17.446  0.00  0.00    +0.056 C 
ATOM      5  C   UNL     1      35.155 -21.290 -18.614  0.00  0.00    +0.019 C 
ATOM      6  C   UNL     1      33.874 -21.739 -18.946  0.00  0.00    +0.051 C 
ATOM      7  C   UNL     1      35.068 -19.764 -20.442  0.00  0.00    +0.122 C 
ATOM      8  C   UNL     1      35.769 -20.299 -19.355  0.00  0.00    +0.021 C 
ATOM      9  C   UNL     1      34.439 -23.007 -17.100  0.00  0.00    +0.250 C 
ATOM     10  C   UNL     1      33.164 -21.227 -20.013  0.00  0.00    +0.016 C 
ATOM     11  C   UNL     1      33.777 -20.224 -20.768  0.00  0.00    +0.021 C 
ATOM     12  H   UNL     1      32.589 -23.199 -18.109  0.00  0.00    +0.155 HD
ENDROOT
BRANCH   3  20
ATOM     13  N   UNL     1      36.296 -22.614 -14.487  0.00  0.00    -0.316 N 
ATOM     14  C   UNL     1      36.762 -23.461 -13.521  0.00  0.00    +0.021 C 
ATOM     15  C   UNL     1      37.819 -24.179 -14.043  0.00  0.00    -0.012 C 
ATOM     16  C   UNL     1      36.233 -23.555 -12.135  0.00  0.00    +0.041 C 
ATOM     17  C   UNL     1      38.553 -25.208 -13.257  0.00  0.00    +0.027 C 
ATOM     18  C   UNL     1      36.767 -24.836 -11.463  0.00  0.00    +0.006 C 
ATOM     19  C   UNL     1      38.264 -25.065 -11.749  0.00  0.00    +0.005 C 
ATOM     20  C   UNL     1      37.039 -22.784 -15.628  0.00  0.00    +0.048 C 
ATOM     21  C   UNL     1      37.991 -23.751 -15.382  0.00  0.00    +0.011 C 
ATOM     22  H   UNL     1      35.547 -21.983 -14.380  0.00  0.00    +0.152 HD
ENDBRANCH   3  20
BRANCH   7  23
ATOM     23  S   UNL     1      35.803 -18.508 -21.410  0.00  0.00    +0.063 S 
ATOM     24  O   UNL     1      35.562 -17.229 -20.752  0.00  0.00    -0.153 OA
ATOM     25  O   UNL     1      37.180 -18.899 -21.689  0.00  0.00    -0.153 OA
BRANCH  23  26
ATOM     26  N   UNL     1      34.897 -18.557 -22.883  0.00  0.00    -0.153 NA
ATOM     27  C   UNL     1      34.809 -17.305 -23.677  0.00  0.00    +0.115 C 
ATOM     28  C   UNL     1      35.055 -19.754 -23.747  0.00  0.00    +0.115 C 
ENDBRANCH  23  26
ENDBRANCH   7  23
TORSDOF 3
ENDMDL
MODEL 4
REMARK VINA RESULT:     -10.2      8.322     13.290
REMARK  Name = 5312137
REMARK  3 active torsions:
REMARK  status: ('A' for Active; 'I' for Inactive)
REMARK    1  A    between atoms: C_3  and  C_20
REMARK    2  A    between atoms: C_7  and  S_23
REMARK    3  A    between atoms: S_23  and  N_26
REMARK                            x       y       z     vdW  Elec       q    Type
REMARK                         _______ _______ _______ _____ _____    ______ ____
ROOT
ATOM      1  O   UNL     1      32.350 -13.839 -21.347  0.00  0.00    -0.270 OA
ATOM      2  N   UNL     1      31.678 -11.610 -20.949  0.00  0.00    -0.280 N 
ATOM      3  C   UNL     1      33.744 -12.650 -23.693  0.00  0.00    +0.019 C 
ATOM      4  C   UNL     1      32.999 -11.982 -22.780  0.00  0.00    +0.056 C 
ATOM      5  C   UNL     1      32.701 -10.555 -22.718  0.00  0.00    +0.019 C 
ATOM      6  C   UNL     1      31.896 -10.384 -21.588  0.00  0.00    +0.051 C 
ATOM      7  C   UNL     1      32.568  -8.214 -23.138  0.00  0.00    +0.122 C 
ATOM      8  C   UNL     1      33.047  -9.476 -23.508  0.00  0.00    +0.021 C 
ATOM      9  C   UNL     1      32.323 -12.653 -21.619  0.00  0.00    +0.250 C 
ATOM     10  C   UNL     1      31.412  -9.149 -21.205  0.00  0.00    +0.016 C 
ATOM     11  C   UNL     1      31.758  -8.052 -21.998  0.00  0.00    +0.021 C 
ATOM     12  H   UNL     1      31.139 -11.723 -20.132  0.00  0.00    +0.155 HD
ENDROOT
BRANCH   3  20
ATOM     13  N   UNL     1      34.721 -14.556 -22.656  0.00  0.00    -0.316 N 
ATOM     14  C   UNL     1      34.847 -15.905 -22.837  0.00  0.00    +0.021 C 
ATOM     15  C   UNL     1      34.196 -16.252 -24.003  0.00  0.00    -0.012 C 
ATOM     16  C   UNL     1      35.593 -16.825 -21.939  0.00  0.00    +0.041 C 
ATOM     17  C   UNL     1      34.124 -17.656 -24.493  0.00  0.00    +0.027 C 
ATOM     18  C   UNL     1      35.226 -18.285 -22.270  0.00  0.00    +0.006 C 
ATOM     19  C   UNL     1      35.171 -18.542 -23.789  0.00  0.00    +0.005 C 
ATOM     20  C   UNL     1      33.990 -14.032 -23.692  0.00  0.00    +0.048 C 
ATOM     21  C   UNL     1      33.649 -15.063 -24.543  0.00  0.00    +0.011 C 
ATOM     22  H   UNL     1      35.096 -14.044 -21.902  0.00  0.00    +0.152 HD
ENDBRANCH   3  20
BRANCH   7  23
ATOM     23  S   UNL     1      32.980  -6.818 -24.107  0.00  0.00    +0.063 S 
ATOM     24  O   UNL     1      32.444  -7.023 -25.448  0.00  0.00    -0.153 OA
ATOM     25  O   UNL     1      32.581  -5.623 -23.373  0.00  0.00    -0.153 OA
BRANCH  23  26
ATOM     26  N   UNL     1      34.707  -6.879 -24.180  0.00  0.00    -0.153 NA
ATOM     27  C   UNL     1      35.392  -5.901 -25.063  0.00  0.00    +0.115 C 
ATOM     28  C   UNL     1      35.442  -7.090 -22.907  0.00  0.00    +0.115 C 
ENDBRANCH  23  26
ENDBRANCH   7  23
TORSDOF 3
ENDMDL
MODEL 5
REMARK VINA RESULT:     -10.0      1.783      2.744
REMARK  Name = 5312137
REMARK  3 active torsions:
REMARK  status: ('A' for Active; 'I' for Inactive)
REMARK    1  A    between atoms: C_3  and  C_20
REMARK    2  A    between atoms: C_7  and  S_23
REMARK    3  A    between atoms: S_23  and  N_26
REMARK                            x       y       z     vdW  Elec       q    Type
REMARK                         _______ _______ _______ _____ _____    ______ ____
ROOT
ATOM      1  O   UNL     1      33.218 -22.186 -17.845  0.00  0.00    -0.270 OA
ATOM      2  N   UNL     1      33.139 -23.431 -15.839  0.00  0.00    -0.280 N 
ATOM      3  C   UNL     1      36.133 -22.048 -17.255  0.00  0.00    +0.019 C 
ATOM      4  C   UNL     1      35.191 -22.670 -16.505  0.00  0.00    +0.056 C 
ATOM      5  C   UNL     1      35.363 -23.407 -15.257  0.00  0.00    +0.019 C 
ATOM      6  C   UNL     1      34.086 -23.847 -14.897  0.00  0.00    +0.051 C 
ATOM      7  C   UNL     1      36.248 -24.452 -13.307  0.00  0.00    +0.122 C 
ATOM      8  C   UNL     1      36.459 -23.701 -14.470  0.00  0.00    +0.021 C 
ATOM      9  C   UNL     1      33.735 -22.697 -16.868  0.00  0.00    +0.250 C 
ATOM     10  C   UNL     1      33.855 -24.588 -13.755  0.00  0.00    +0.016 C 
ATOM     11  C   UNL     1      34.958 -24.890 -12.954  0.00  0.00    +0.021 C 
ATOM     12  H   UNL     1      32.176 -23.631 -15.784  0.00  0.00    +0.155 HD
ENDROOT
BRANCH   3  20
ATOM     13  N   UNL     1      36.825 -20.430 -18.857  0.00  0.00    -0.316 N 
ATOM     14  C   UNL     1      36.414 -19.871 -20.035  0.00  0.00    +0.021 C 
ATOM     15  C   UNL     1      35.206 -20.437 -20.388  0.00  0.00    -0.012 C 
ATOM     16  C   UNL     1      37.139 -18.808 -20.778  0.00  0.00    +0.041 C 
ATOM     17  C   UNL     1      34.482 -20.064 -21.634  0.00  0.00    +0.027 C 
ATOM     18  C   UNL     1      36.561 -18.685 -22.202  0.00  0.00    +0.006 C 
ATOM     19  C   UNL     1      35.020 -18.741 -22.213  0.00  0.00    +0.005 C 
ATOM     20  C   UNL     1      35.895 -21.354 -18.451  0.00  0.00    +0.048 C 
ATOM     21  C   UNL     1      34.880 -21.381 -19.384  0.00  0.00    +0.011 C 
ATOM     22  H   UNL     1      37.655 -20.204 -18.377  0.00  0.00    +0.152 HD
ENDBRANCH   3  20
BRANCH   7  23
ATOM     23  S   UNL     1      37.604 -24.850 -12.279  0.00  0.00    +0.063 S 
ATOM     24  O   UNL     1      38.447 -23.664 -12.162  0.00  0.00    -0.153 OA
ATOM     25  O   UNL     1      37.086 -25.459 -11.060  0.00  0.00    -0.153 OA
BRANCH  23  26
ATOM     26  N   UNL     1      38.455 -26.051 -13.188  0.00  0.00    -0.153 NA
ATOM     27  C   UNL     1      37.651 -26.973 -14.030  0.00  0.00    +0.115 C 
ATOM     28  C   UNL     1      39.714 -25.640 -13.860  0.00  0.00    +0.115 C 
ENDBRANCH  23  26
ENDBRANCH   7  23
TORSDOF 3
ENDMDL
MODEL 6
REMARK VINA RESULT:     -10.0      8.237     13.273
REMARK  Name = 5312137
REMARK  3 active torsions:
REMARK  status: ('A' for Active; 'I' for Inactive)
REMARK    1  A    between atoms: C_3  and  C_20
REMARK    2  A    between atoms: C_7  and  S_23
REMARK    3  A    between atoms: S_23  and  N_26
REMARK                            x       y       z     vdW  Elec       q    Type
REMARK                         _______ _______ _______ _____ _____    ______ ____
ROOT
ATOM      1  O   UNL     1      32.083 -14.125 -21.454  0.00  0.00    -0.270 OA
ATOM      2  N   UNL     1      31.369 -11.891 -21.168  0.00  0.00    -0.280 N 
ATOM      3  C   UNL     1      34.112 -12.898 -23.252  0.00  0.00    +0.019 C 
ATOM      4  C   UNL     1      33.150 -12.239 -22.561  0.00  0.00    +0.056 C 
ATOM      5  C   UNL     1      32.875 -10.807 -22.525  0.00  0.00    +0.019 C 
ATOM      6  C   UNL     1      31.784 -10.651 -21.666  0.00  0.00    +0.051 C 
ATOM      7  C   UNL     1      32.914  -8.449 -22.865  0.00  0.00    +0.122 C 
ATOM      8  C   UNL     1      33.454  -9.712 -23.137  0.00  0.00    +0.021 C 
ATOM      9  C   UNL     1      32.158 -12.930 -21.671  0.00  0.00    +0.250 C 
ATOM     10  C   UNL     1      31.236  -9.416 -21.383  0.00  0.00    +0.016 C 
ATOM     11  C   UNL     1      31.816  -8.303 -21.997  0.00  0.00    +0.021 C 
ATOM     12  H   UNL     1      30.617 -12.016 -20.544  0.00  0.00    +0.155 HD
ENDROOT
BRANCH   3  20
ATOM     13  N   UNL     1      34.860 -14.847 -22.110  0.00  0.00    -0.316 N 
ATOM     14  C   UNL     1      34.980 -16.196 -22.297  0.00  0.00    +0.021 C 
ATOM     15  C   UNL     1      34.519 -16.505 -23.561  0.00  0.00    -0.012 C 
ATOM     16  C   UNL     1      35.547 -17.151 -21.309  0.00  0.00    +0.041 C 
ATOM     17  C   UNL     1      34.493 -17.897 -24.085  0.00  0.00    +0.027 C 
ATOM     18  C   UNL     1      35.202 -18.594 -21.727  0.00  0.00    +0.006 C 
ATOM     19  C   UNL     1      35.389 -18.825 -23.240  0.00  0.00    +0.005 C 
ATOM     20  C   UNL     1      34.321 -14.285 -23.240  0.00  0.00    +0.048 C 
ATOM     21  C   UNL     1      34.097 -15.291 -24.157  0.00  0.00    +0.011 C 
ATOM     22  H   UNL     1      35.119 -14.358 -21.295  0.00  0.00    +0.152 HD
ENDBRANCH   3  20
BRANCH   7  23
ATOM     23  S   UNL     1      33.613  -7.033 -23.615  0.00  0.00    +0.063 S 
ATOM     24  O   UNL     1      33.573  -5.942 -22.647  0.00  0.00    -0.153 OA
ATOM     25  O   UNL     1      34.900  -7.411 -24.186  0.00  0.00    -0.153 OA
BRANCH  23  26
ATOM     26  N   UNL     1      32.512  -6.678 -24.901  0.00  0.00    -0.153 NA
ATOM     27  C   UNL     1      31.275  -5.931 -24.559  0.00  0.00    +0.115 C 
ATOM     28  C   UNL     1      33.088  -6.238 -26.197  0.00  0.00    +0.115 C 
ENDBRANCH  23  26
ENDBRANCH   7  23
TORSDOF 3
ENDMDL
MODEL 7
REMARK VINA RESULT:      -9.9      8.489     13.418
REMARK  Name = 5312137
REMARK  3 active torsions:
REMARK  status: ('A' for Active; 'I' for Inactive)
REMARK    1  A    between atoms: C_3  and  C_20
REMARK    2  A    between atoms: C_7  and  S_23
REMARK    3  A    between atoms: S_23  and  N_26
REMARK                            x       y       z     vdW  Elec       q    Type
REMARK                         _______ _______ _______ _____ _____    ______ ____
ROOT
ATOM      1  O   UNL     1      32.300 -13.980 -21.181  0.00  0.00    -0.270 OA
ATOM      2  N   UNL     1      31.577 -11.769 -20.771  0.00  0.00    -0.280 N 
ATOM      3  C   UNL     1      33.821 -12.718 -23.406  0.00  0.00    +0.019 C 
ATOM      4  C   UNL     1      33.013 -12.081 -22.525  0.00  0.00    +0.056 C 
ATOM      5  C   UNL     1      32.694 -10.660 -22.447  0.00  0.00    +0.019 C 
ATOM      6  C   UNL     1      31.818 -10.525 -21.366  0.00  0.00    +0.051 C 
ATOM      7  C   UNL     1      32.558  -8.310 -22.818  0.00  0.00    +0.122 C 
ATOM      8  C   UNL     1      33.075  -9.558 -23.188  0.00  0.00    +0.021 C 
ATOM      9  C   UNL     1      32.275 -12.789 -21.425  0.00  0.00    +0.250 C 
ATOM     10  C   UNL     1      31.297  -9.306 -20.984  0.00  0.00    +0.016 C 
ATOM     11  C   UNL     1      31.677  -8.186 -21.727  0.00  0.00    +0.021 C 
ATOM     12  H   UNL     1      30.990 -11.909 -19.993  0.00  0.00    +0.155 HD
ENDROOT
BRANCH   3  20
ATOM     13  N   UNL     1      34.752 -14.640 -22.354  0.00  0.00    -0.316 N 
ATOM     14  C   UNL     1      34.906 -15.982 -22.560  0.00  0.00    +0.021 C 
ATOM     15  C   UNL     1      34.338 -16.306 -23.775  0.00  0.00    -0.012 C 
ATOM     16  C   UNL     1      35.603 -16.917 -21.638  0.00  0.00    +0.041 C 
ATOM     17  C   UNL     1      34.316 -17.697 -24.304  0.00  0.00    +0.027 C 
ATOM     18  C   UNL     1      35.276 -18.371 -22.030  0.00  0.00    +0.006 C 
ATOM     19  C   UNL     1      35.325 -18.590 -23.555  0.00  0.00    +0.005 C 
ATOM     20  C   UNL     1      34.084 -14.097 -23.423  0.00  0.00    +0.048 C 
ATOM     21  C   UNL     1      33.813 -15.109 -24.321  0.00  0.00    +0.011 C 
ATOM     22  H   UNL     1      35.069 -14.143 -21.565  0.00  0.00    +0.152 HD
ENDBRANCH   3  20
BRANCH   7  23
ATOM     23  S   UNL     1      33.011  -6.886 -23.724  0.00  0.00    +0.063 S 
ATOM     24  O   UNL     1      34.303  -6.424 -23.226  0.00  0.00    -0.153 OA
ATOM     25  O   UNL     1      32.881  -7.191 -25.144  0.00  0.00    -0.153 OA
BRANCH  23  26
ATOM     26  N   UNL     1      31.799  -5.732 -23.286  0.00  0.00    -0.153 NA
ATOM     27  C   UNL     1      32.198  -4.631 -22.372  0.00  0.00    +0.115 C 
ATOM     28  C   UNL     1      30.879  -5.263 -24.353  0.00  0.00    +0.115 C 
ENDBRANCH  23  26
ENDBRANCH   7  23
TORSDOF 3
ENDMDL
MODEL 8
REMARK VINA RESULT:      -9.4      8.567     13.720
REMARK  Name = 5312137
REMARK  3 active torsions:
REMARK  status: ('A' for Active; 'I' for Inactive)
REMARK    1  A    between atoms: C_3  and  C_20
REMARK    2  A    between atoms: C_7  and  S_23
REMARK    3  A    between atoms: S_23  and  N_26
REMARK                            x       y       z     vdW  Elec       q    Type
REMARK                         _______ _______ _______ _____ _____    ______ ____
ROOT
ATOM      1  O   UNL     1      31.784 -13.741 -21.841  0.00  0.00    -0.270 OA
ATOM      2  N   UNL     1      30.914 -11.553 -22.027  0.00  0.00    -0.280 N 
ATOM      3  C   UNL     1      34.247 -12.500 -22.960  0.00  0.00    +0.019 C 
ATOM      4  C   UNL     1      33.078 -11.867 -22.699  0.00  0.00    +0.056 C 
ATOM      5  C   UNL     1      32.742 -10.461 -22.895  0.00  0.00    +0.019 C 
ATOM      6  C   UNL     1      31.417 -10.325 -22.471  0.00  0.00    +0.051 C 
ATOM      7  C   UNL     1      32.786  -8.139 -23.425  0.00  0.00    +0.122 C 
ATOM      8  C   UNL     1      33.444  -9.373 -23.378  0.00  0.00    +0.021 C 
ATOM      9  C   UNL     1      31.874 -12.563 -22.133  0.00  0.00    +0.250 C 
ATOM     10  C   UNL     1      30.749  -9.117 -22.509  0.00  0.00    +0.016 C 
ATOM     11  C   UNL     1      31.451  -8.012 -22.995  0.00  0.00    +0.021 C 
ATOM     12  H   UNL     1      30.001 -11.688 -21.683  0.00  0.00    +0.155 HD
ENDROOT
BRANCH   3  20
ATOM     13  N   UNL     1      34.301 -14.730 -23.791  0.00  0.00    -0.316 N 
ATOM     14  C   UNL     1      34.606 -15.999 -23.383  0.00  0.00    +0.021 C 
ATOM     15  C   UNL     1      35.002 -15.949 -22.063  0.00  0.00    -0.012 C 
ATOM     16  C   UNL     1      34.490 -17.220 -24.223  0.00  0.00    +0.041 C 
ATOM     17  C   UNL     1      35.422 -17.161 -21.307  0.00  0.00    +0.027 C 
ATOM     18  C   UNL     1      35.237 -18.386 -23.546  0.00  0.00    +0.006 C 
ATOM     19  C   UNL     1      34.972 -18.447 -22.029  0.00  0.00    +0.005 C 
ATOM     20  C   UNL     1      34.503 -13.863 -22.746  0.00  0.00    +0.048 C 
ATOM     21  C   UNL     1      34.941 -14.593 -21.660  0.00  0.00    +0.011 C 
ATOM     22  H   UNL     1      33.987 -14.479 -24.690  0.00  0.00    +0.152 HD
ENDBRANCH   3  20
BRANCH   7  23
ATOM     23  S   UNL     1      33.633  -6.733 -24.028  0.00  0.00    +0.063 S 
ATOM     24  O   UNL     1      33.601  -5.706 -22.992  0.00  0.00    -0.153 OA
ATOM     25  O   UNL     1      34.927  -7.168 -24.538  0.00  0.00    -0.153 OA
BRANCH  23  26
ATOM     26  N   UNL     1      32.652  -6.216 -25.356  0.00  0.00    -0.153 NA
ATOM     27  C   UNL     1      31.659  -5.142 -25.099  0.00  0.00    +0.115 C 
ATOM     28  C   UNL     1      33.312  -6.059 -26.677  0.00  0.00    +0.115 C 
ENDBRANCH  23  26
ENDBRANCH   7  23
TORSDOF 3
ENDMDL
MODEL 9
REMARK VINA RESULT:      -9.0     10.409     14.217
REMARK  Name = 5312137
REMARK  3 active torsions:
REMARK  status: ('A' for Active; 'I' for Inactive)
REMARK    1  A    between atoms: C_3  and  C_20
REMARK    2  A    between atoms: C_7  and  S_23
REMARK    3  A    between atoms: S_23  and  N_26
REMARK                            x       y       z     vdW  Elec       q    Type
REMARK                         _______ _______ _______ _____ _____    ______ ____
ROOT
ATOM      1  O   UNL     1      32.032  -5.766 -21.095  0.00  0.00    -0.270 OA
ATOM      2  N   UNL     1      31.961  -7.681 -19.714  0.00  0.00    -0.280 N 
ATOM      3  C   UNL     1      32.283  -7.764 -23.288  0.00  0.00    +0.019 C 
ATOM      4  C   UNL     1      32.172  -8.035 -21.965  0.00  0.00    +0.056 C 
ATOM      5  C   UNL     1      32.149  -9.334 -21.301  0.00  0.00    +0.019 C 
ATOM      6  C   UNL     1      32.020  -9.062 -19.937  0.00  0.00    +0.051 C 
ATOM      7  C   UNL     1      32.170 -11.665 -20.810  0.00  0.00    +0.122 C 
ATOM      8  C   UNL     1      32.226 -10.636 -21.757  0.00  0.00    +0.021 C 
ATOM      9  C   UNL     1      32.049  -6.969 -20.914  0.00  0.00    +0.250 C 
ATOM     10  C   UNL     1      31.962 -10.060 -18.986  0.00  0.00    +0.016 C 
ATOM     11  C   UNL     1      32.040 -11.379 -19.438  0.00  0.00    +0.021 C 
ATOM     12  H   UNL     1      31.870  -7.264 -18.826  0.00  0.00    +0.155 HD
ENDROOT
BRANCH   3  20
ATOM     13  N   UNL     1      31.123  -5.775 -23.892  0.00  0.00    -0.316 N 
ATOM     14  C   UNL     1      31.349  -4.562 -24.481  0.00  0.00    +0.021 C 
ATOM     15  C   UNL     1      32.680  -4.490 -24.837  0.00  0.00    -0.012 C 
ATOM     16  C   UNL     1      30.316  -3.522 -24.723  0.00  0.00    +0.041 C 
ATOM     17  C   UNL     1      33.270  -3.290 -25.491  0.00  0.00    +0.027 C 
ATOM     18  C   UNL     1      30.999  -2.187 -25.080  0.00  0.00    +0.006 C 
ATOM     19  C   UNL     1      32.170  -2.375 -26.064  0.00  0.00    +0.005 C 
ATOM     20  C   UNL     1      32.299  -6.482 -23.860  0.00  0.00    +0.048 C 
ATOM     21  C   UNL     1      33.283  -5.708 -24.438  0.00  0.00    +0.011 C 
ATOM     22  H   UNL     1      30.256  -6.089 -23.546  0.00  0.00    +0.152 HD
ENDBRANCH   3  20
BRANCH   7  23
ATOM     23  S   UNL     1      32.264 -13.329 -21.338  0.00  0.00    +0.063 S 
ATOM     24  O   UNL     1      31.662 -14.166 -20.306  0.00  0.00    -0.153 OA
ATOM     25  O   UNL     1      31.735 -13.405 -22.694  0.00  0.00    -0.153 OA
BRANCH  23  26
ATOM     26  N   UNL     1      33.966 -13.637 -21.383  0.00  0.00    -0.153 NA
ATOM     27  C   UNL     1      34.530 -14.532 -20.340  0.00  0.00    +0.115 C 
ATOM     28  C   UNL     1      34.587 -13.871 -22.712  0.00  0.00    +0.115 C 
ENDBRANCH  23  26
ENDBRANCH   7  23
TORSDOF 3
ENDMDL
