MODEL 1
REMARK VINA RESULT:     -12.4      0.000      0.000
REMARK  Name = 25025505
REMARK  6 active torsions:
REMARK  status: ('A' for Active; 'I' for Inactive)
REMARK    1  A    between atoms: C_3  and  C_9
REMARK    2  A    between atoms: C_4  and  C_20
REMARK    3  A    between atoms: C_17  and  C_18
REMARK    4  A    between atoms: C_20  and  O_21
REMARK    5  A    between atoms: O_21  and  C_22
REMARK    6  A    between atoms: C_25  and  N_28
REMARK                            x       y       z     vdW  Elec       q    Type
REMARK                         _______ _______ _______ _____ _____    ______ ____
ROOT
ATOM      1  S   UNL     1      33.820 -15.438 -24.744  0.00  0.00    -0.079 S 
ATOM      2  N   UNL     1      34.430 -15.067 -22.260  0.00  0.00    -0.404 NA
ATOM      3  C   UNL     1      33.821 -14.525 -23.290  0.00  0.00    +0.134 C 
ATOM      4  C   UNL     1      34.938 -16.295 -22.636  0.00  0.00    +0.142 C 
ATOM      5  C   UNL     1      34.707 -16.668 -23.944  0.00  0.00    +0.122 C 
ENDROOT
BRANCH   3   9
ATOM      6  N   UNL     1      32.833 -10.390 -22.530  0.00  0.00    -0.253 N 
ATOM      7  N   UNL     1      33.425  -8.159 -22.890  0.00  0.00    -0.203 NA
ATOM      8  N   UNL     1      31.701  -8.748 -21.313  0.00  0.00    -0.181 NA
ATOM      9  C   UNL     1      33.135 -13.172 -23.268  0.00  0.00    +0.062 C 
ATOM     10  C   UNL     1      32.725 -12.755 -21.848  0.00  0.00    +0.030 C 
ATOM     11  C   UNL     1      34.006 -12.073 -23.895  0.00  0.00    +0.030 C 
ATOM     12  C   UNL     1      32.017 -11.400 -21.846  0.00  0.00    +0.102 C 
ATOM     13  C   UNL     1      33.285 -10.724 -23.887  0.00  0.00    +0.102 C 
ATOM     14  C   UNL     1      32.644  -9.035 -22.231  0.00  0.00    +0.090 C 
ATOM     15  C   UNL     1      33.218  -6.863 -22.576  0.00  0.00    +0.161 C 
ATOM     16  C   UNL     1      31.547  -7.434 -21.048  0.00  0.00    +0.104 C 
ATOM     17  C   UNL     1      32.285  -6.437 -21.654  0.00  0.00    +0.001 C 
BRANCH  17  18
ATOM     18  C   UNL     1      32.086  -5.003 -21.336  0.00  0.00    +0.026 C 
ATOM     19  C   UNL     1      30.670  -4.520 -21.652  0.00  0.00    +0.005 C 
ENDBRANCH  17  18
ENDBRANCH   3   9
BRANCH   4  20
ATOM     20  C   UNL     1      35.669 -17.090 -21.630  0.00  0.00    +0.260 C 
BRANCH  20  21
ATOM     21  O   UNL     1      35.754 -18.451 -22.051  0.00  0.00    -0.468 OA
BRANCH  21  22
ATOM     22  C   UNL     1      35.489 -19.402 -21.105  0.00  0.00    +0.139 C 
ATOM     23  C   UNL     1      36.533 -19.975 -20.378  0.00  0.00    +0.038 C 
ATOM     24  C   UNL     1      34.174 -19.801 -20.866  0.00  0.00    +0.038 C 
ATOM     25  C   UNL     1      34.947 -21.344 -19.176  0.00  0.00    +0.078 C 
ATOM     26  C   UNL     1      36.262 -20.946 -19.414  0.00  0.00    +0.020 C 
ATOM     27  C   UNL     1      33.902 -20.772 -19.902  0.00  0.00    +0.020 C 
BRANCH  25  28
ATOM     28  N   UNL     1      34.679 -22.307 -18.220  0.00  0.00    -0.149 N 
ATOM     29  N   UNL     1      33.779 -23.280 -18.415  0.00  0.00    -0.048 NA
ATOM     30  N   UNL     1      34.705 -23.481 -16.397  0.00  0.00    -0.107 NA
ATOM     31  N   UNL     1      33.799 -23.996 -17.297  0.00  0.00    -0.024 NA
ATOM     32  C   UNL     1      35.238 -22.437 -16.988  0.00  0.00    +0.215 C 
ENDBRANCH  25  28
ENDBRANCH  21  22
ENDBRANCH  20  21
ENDBRANCH   4  20
TORSDOF 6
ENDMDL
MODEL 2
REMARK VINA RESULT:     -12.4      6.715     10.826
REMARK  Name = 25025505
REMARK  6 active torsions:
REMARK  status: ('A' for Active; 'I' for Inactive)
REMARK    1  A    between atoms: C_3  and  C_9
REMARK    2  A    between atoms: C_4  and  C_20
REMARK    3  A    between atoms: C_17  and  C_18
REMARK    4  A    between atoms: C_20  and  O_21
REMARK    5  A    between atoms: O_21  and  C_22
REMARK    6  A    between atoms: C_25  and  N_28
REMARK                            x       y       z     vdW  Elec       q    Type
REMARK                         _______ _______ _______ _____ _____    ______ ____
ROOT
ATOM      1  S   UNL     1      36.373 -23.929 -14.730  0.00  0.00    -0.079 S 
ATOM      2  N   UNL     1      33.847 -23.484 -15.053  0.00  0.00    -0.404 NA
ATOM      3  C   UNL     1      35.017 -23.417 -15.649  0.00  0.00    +0.134 C 
ATOM      4  C   UNL     1      34.025 -23.976 -13.775  0.00  0.00    +0.142 C 
ATOM      5  C   UNL     1      35.323 -24.274 -13.419  0.00  0.00    +0.122 C 
ENDROOT
BRANCH   3   9
ATOM      6  N   UNL     1      35.200 -20.973 -19.206  0.00  0.00    -0.253 N 
ATOM      7  N   UNL     1      36.222 -19.154 -20.255  0.00  0.00    -0.203 NA
ATOM      8  N   UNL     1      34.277 -20.207 -21.211  0.00  0.00    -0.181 NA
ATOM      9  C   UNL     1      35.231 -22.924 -17.068  0.00  0.00    +0.062 C 
ATOM     10  C   UNL     1      33.919 -22.470 -17.725  0.00  0.00    +0.030 C 
ATOM     11  C   UNL     1      36.260 -21.786 -17.135  0.00  0.00    +0.030 C 
ATOM     12  C   UNL     1      34.149 -21.997 -19.162  0.00  0.00    +0.102 C 
ATOM     13  C   UNL     1      36.481 -21.323 -18.576  0.00  0.00    +0.102 C 
ATOM     14  C   UNL     1      35.235 -20.069 -20.274  0.00  0.00    +0.090 C 
ATOM     15  C   UNL     1      36.225 -18.298 -21.298  0.00  0.00    +0.161 C 
ATOM     16  C   UNL     1      34.340 -19.319 -22.224  0.00  0.00    +0.104 C 
ATOM     17  C   UNL     1      35.300 -18.333 -22.322  0.00  0.00    +0.001 C 
BRANCH  17  18
ATOM     18  C   UNL     1      35.337 -17.374 -23.452  0.00  0.00    +0.026 C 
ATOM     19  C   UNL     1      34.965 -15.952 -23.031  0.00  0.00    +0.005 C 
ENDBRANCH  17  18
ENDBRANCH   3   9
BRANCH   4  20
ATOM     20  C   UNL     1      32.836 -24.138 -12.915  0.00  0.00    +0.260 C 
BRANCH  20  21
ATOM     21  O   UNL     1      31.914 -25.042 -13.522  0.00  0.00    -0.468 OA
BRANCH  21  22
ATOM     22  C   UNL     1      30.847 -24.483 -14.171  0.00  0.00    +0.139 C 
ATOM     23  C   UNL     1      30.078 -25.254 -15.044  0.00  0.00    +0.038 C 
ATOM     24  C   UNL     1      30.526 -23.142 -13.961  0.00  0.00    +0.038 C 
ATOM     25  C   UNL     1      28.672 -23.343 -15.495  0.00  0.00    +0.078 C 
ATOM     26  C   UNL     1      28.991 -24.684 -15.706  0.00  0.00    +0.020 C 
ATOM     27  C   UNL     1      29.439 -22.572 -14.622  0.00  0.00    +0.020 C 
BRANCH  25  28
ATOM     28  N   UNL     1      27.593 -22.778 -16.151  0.00  0.00    -0.149 N 
ATOM     29  N   UNL     1      27.451 -22.839 -17.482  0.00  0.00    -0.048 NA
ATOM     30  N   UNL     1      25.742 -21.731 -16.575  0.00  0.00    -0.107 NA
ATOM     31  N   UNL     1      26.318 -22.197 -17.737  0.00  0.00    -0.024 NA
ATOM     32  C   UNL     1      26.547 -22.102 -15.607  0.00  0.00    +0.215 C 
ENDBRANCH  25  28
ENDBRANCH  21  22
ENDBRANCH  20  21
ENDBRANCH   4  20
TORSDOF 6
ENDMDL
MODEL 3
REMARK VINA RESULT:     -11.8      1.420      1.831
REMARK  Name = 25025505
REMARK  6 active torsions:
REMARK  status: ('A' for Active; 'I' for Inactive)
REMARK    1  A    between atoms: C_3  and  C_9
REMARK    2  A    between atoms: C_4  and  C_20
REMARK    3  A    between atoms: C_17  and  C_18
REMARK    4  A    between atoms: C_20  and  O_21
REMARK    5  A    between atoms: O_21  and  C_22
REMARK    6  A    between atoms: C_25  and  N_28
REMARK                            x       y       z     vdW  Elec       q    Type
REMARK                         _______ _______ _______ _____ _____    ______ ____
ROOT
ATOM      1  S   UNL     1      34.120 -14.613 -20.327  0.00  0.00    -0.079 S 
ATOM      2  N   UNL     1      34.460 -15.575 -22.702  0.00  0.00    -0.404 NA
ATOM      3  C   UNL     1      33.941 -14.570 -22.033  0.00  0.00    +0.134 C 
ATOM      4  C   UNL     1      35.046 -16.450 -21.809  0.00  0.00    +0.142 C 
ATOM      5  C   UNL     1      34.963 -16.099 -20.477  0.00  0.00    +0.122 C 
ENDROOT
BRANCH   3   9
ATOM      6  N   UNL     1      32.554 -10.611 -23.060  0.00  0.00    -0.253 N 
ATOM      7  N   UNL     1      33.109  -8.549 -24.008  0.00  0.00    -0.203 NA
ATOM      8  N   UNL     1      31.024  -8.859 -22.841  0.00  0.00    -0.181 NA
ATOM      9  C   UNL     1      33.210 -13.402 -22.669  0.00  0.00    +0.062 C 
ATOM     10  C   UNL     1      32.371 -12.621 -21.647  0.00  0.00    +0.030 C 
ATOM     11  C   UNL     1      34.170 -12.442 -23.387  0.00  0.00    +0.030 C 
ATOM     12  C   UNL     1      31.624 -11.461 -22.308  0.00  0.00    +0.102 C 
ATOM     13  C   UNL     1      33.411 -11.288 -24.043  0.00  0.00    +0.102 C 
ATOM     14  C   UNL     1      32.212  -9.277 -23.316  0.00  0.00    +0.090 C 
ATOM     15  C   UNL     1      32.749  -7.268 -24.235  0.00  0.00    +0.161 C 
ATOM     16  C   UNL     1      30.728  -7.569 -23.104  0.00  0.00    +0.104 C 
ATOM     17  C   UNL     1      31.560  -6.718 -23.803  0.00  0.00    +0.001 C 
BRANCH  17  18
ATOM     18  C   UNL     1      31.200  -5.305 -24.073  0.00  0.00    +0.026 C 
ATOM     19  C   UNL     1      30.713  -4.572 -22.822  0.00  0.00    +0.005 C 
ENDBRANCH  17  18
ENDBRANCH   3   9
BRANCH   4  20
ATOM     20  C   UNL     1      35.698 -17.664 -22.340  0.00  0.00    +0.260 C 
BRANCH  20  21
ATOM     21  O   UNL     1      34.767 -18.745 -22.366  0.00  0.00    -0.468 OA
BRANCH  21  22
ATOM     22  C   UNL     1      34.781 -19.591 -21.291  0.00  0.00    +0.139 C 
ATOM     23  C   UNL     1      33.582 -20.078 -20.770  0.00  0.00    +0.038 C 
ATOM     24  C   UNL     1      35.994 -19.967 -20.715  0.00  0.00    +0.038 C 
ATOM     25  C   UNL     1      34.810 -21.315 -19.098  0.00  0.00    +0.078 C 
ATOM     26  C   UNL     1      33.597 -20.940 -19.673  0.00  0.00    +0.020 C 
ATOM     27  C   UNL     1      36.010 -20.829 -19.619  0.00  0.00    +0.020 C 
BRANCH  25  28
ATOM     28  N   UNL     1      34.825 -22.170 -18.011  0.00  0.00    -0.149 N 
ATOM     29  N   UNL     1      35.906 -22.324 -17.234  0.00  0.00    -0.048 NA
ATOM     30  N   UNL     1      34.242 -23.614 -16.502  0.00  0.00    -0.107 NA
ATOM     31  N   UNL     1      35.544 -23.208 -16.313  0.00  0.00    -0.024 NA
ATOM     32  C   UNL     1      33.816 -22.959 -17.557  0.00  0.00    +0.215 C 
ENDBRANCH  25  28
ENDBRANCH  21  22
ENDBRANCH  20  21
ENDBRANCH   4  20
TORSDOF 6
ENDMDL
MODEL 4
REMARK VINA RESULT:     -11.6      2.749     12.174
REMARK  Name = 25025505
REMARK  6 active torsions:
REMARK  status: ('A' for Active; 'I' for Inactive)
REMARK    1  A    between atoms: C_3  and  C_9
REMARK    2  A    between atoms: C_4  and  C_20
REMARK    3  A    between atoms: C_17  and  C_18
REMARK    4  A    between atoms: C_20  and  O_21
REMARK    5  A    between atoms: O_21  and  C_22
REMARK    6  A    between atoms: C_25  and  N_28
REMARK                            x       y       z     vdW  Elec       q    Type
REMARK                         _______ _______ _______ _____ _____    ______ ____
ROOT
ATOM      1  S   UNL     1      36.925 -19.010 -20.734  0.00  0.00    -0.079 S 
ATOM      2  N   UNL     1      34.702 -19.387 -21.998  0.00  0.00    -0.404 NA
ATOM      3  C   UNL     1      35.444 -19.833 -21.010  0.00  0.00    +0.134 C 
ATOM      4  C   UNL     1      35.342 -18.314 -22.587  0.00  0.00    +0.142 C 
ATOM      5  C   UNL     1      36.558 -17.962 -22.040  0.00  0.00    +0.122 C 
ENDROOT
BRANCH   3   9
ATOM      6  N   UNL     1      34.183 -22.276 -17.678  0.00  0.00    -0.253 N 
ATOM      7  N   UNL     1      32.411 -22.880 -16.281  0.00  0.00    -0.203 NA
ATOM      8  N   UNL     1      34.665 -23.589 -15.807  0.00  0.00    -0.181 NA
ATOM      9  C   UNL     1      35.075 -21.007 -20.122  0.00  0.00    +0.062 C 
ATOM     10  C   UNL     1      35.983 -21.105 -18.887  0.00  0.00    +0.030 C 
ATOM     11  C   UNL     1      33.606 -20.955 -19.677  0.00  0.00    +0.030 C 
ATOM     12  C   UNL     1      35.611 -22.305 -18.014  0.00  0.00    +0.102 C 
ATOM     13  C   UNL     1      33.248 -22.160 -18.806  0.00  0.00    +0.102 C 
ATOM     14  C   UNL     1      33.732 -22.947 -16.535  0.00  0.00    +0.090 C 
ATOM     15  C   UNL     1      32.011 -23.537 -15.172  0.00  0.00    +0.161 C 
ATOM     16  C   UNL     1      34.196 -24.223 -14.712  0.00  0.00    +0.104 C 
ATOM     17  C   UNL     1      32.867 -24.231 -14.341  0.00  0.00    +0.001 C 
BRANCH  17  18
ATOM     18  C   UNL     1      32.388 -24.940 -13.131  0.00  0.00    +0.026 C 
ATOM     19  C   UNL     1      30.862 -25.035 -13.068  0.00  0.00    +0.005 C 
ENDBRANCH  17  18
ENDBRANCH   3   9
BRANCH   4  20
ATOM     20  C   UNL     1      34.686 -17.647 -23.730  0.00  0.00    +0.260 C 
BRANCH  20  21
ATOM     21  O   UNL     1      35.217 -16.333 -23.898  0.00  0.00    -0.468 OA
BRANCH  21  22
ATOM     22  C   UNL     1      34.463 -15.301 -23.413  0.00  0.00    +0.139 C 
ATOM     23  C   UNL     1      33.581 -14.624 -24.257  0.00  0.00    +0.038 C 
ATOM     24  C   UNL     1      34.573 -14.925 -22.075  0.00  0.00    +0.038 C 
ATOM     25  C   UNL     1      32.924 -13.195 -22.425  0.00  0.00    +0.078 C 
ATOM     26  C   UNL     1      32.812 -13.571 -23.762  0.00  0.00    +0.020 C 
ATOM     27  C   UNL     1      33.804 -13.872 -21.580  0.00  0.00    +0.020 C 
BRANCH  25  28
ATOM     28  N   UNL     1      32.161 -12.150 -21.934  0.00  0.00    -0.149 N 
ATOM     29  N   UNL     1      31.498 -12.230 -20.772  0.00  0.00    -0.048 NA
ATOM     30  N   UNL     1      31.168 -10.235 -21.711  0.00  0.00    -0.107 NA
ATOM     31  N   UNL     1      30.893 -11.056 -20.640  0.00  0.00    -0.024 NA
ATOM     32  C   UNL     1      31.955 -10.932 -22.499  0.00  0.00    +0.215 C 
ENDBRANCH  25  28
ENDBRANCH  21  22
ENDBRANCH  20  21
ENDBRANCH   4  20
TORSDOF 6
ENDMDL
MODEL 5
REMARK VINA RESULT:     -11.5      2.224     12.562
REMARK  Name = 25025505
REMARK  6 active torsions:
REMARK  status: ('A' for Active; 'I' for Inactive)
REMARK    1  A    between atoms: C_3  and  C_9
REMARK    2  A    between atoms: C_4  and  C_20
REMARK    3  A    between atoms: C_17  and  C_18
REMARK    4  A    between atoms: C_20  and  O_21
REMARK    5  A    between atoms: O_21  and  C_22
REMARK    6  A    between atoms: C_25  and  N_28
REMARK                            x       y       z     vdW  Elec       q    Type
REMARK                         _______ _______ _______ _____ _____    ______ ____
ROOT
ATOM      1  S   UNL     1      34.834 -19.483 -23.122  0.00  0.00    -0.079 S 
ATOM      2  N   UNL     1      35.250 -17.989 -21.054  0.00  0.00    -0.404 NA
ATOM      3  C   UNL     1      35.127 -19.236 -21.449  0.00  0.00    +0.134 C 
ATOM      4  C   UNL     1      35.103 -17.158 -22.147  0.00  0.00    +0.142 C 
ATOM      5  C   UNL     1      34.871 -17.785 -23.354  0.00  0.00    +0.122 C 
ENDROOT
BRANCH   3   9
ATOM      6  N   UNL     1      35.142 -21.826 -17.992  0.00  0.00    -0.253 N 
ATOM      7  N   UNL     1      33.861 -22.810 -16.304  0.00  0.00    -0.203 NA
ATOM      8  N   UNL     1      36.267 -22.931 -16.269  0.00  0.00    -0.181 NA
ATOM      9  C   UNL     1      35.228 -20.441 -20.532  0.00  0.00    +0.062 C 
ATOM     10  C   UNL     1      36.343 -20.280 -19.488  0.00  0.00    +0.030 C 
ATOM     11  C   UNL     1      33.900 -20.740 -19.822  0.00  0.00    +0.030 C 
ATOM     12  C   UNL     1      36.446 -21.512 -18.586  0.00  0.00    +0.102 C 
ATOM     13  C   UNL     1      34.016 -21.972 -18.925  0.00  0.00    +0.102 C 
ATOM     14  C   UNL     1      35.087 -22.557 -16.799  0.00  0.00    +0.090 C 
ATOM     15  C   UNL     1      33.846 -23.515 -15.154  0.00  0.00    +0.161 C 
ATOM     16  C   UNL     1      36.178 -23.632 -15.120  0.00  0.00    +0.104 C 
ATOM     17  C   UNL     1      34.984 -23.956 -14.509  0.00  0.00    +0.001 C 
BRANCH  17  18
ATOM     18  C   UNL     1      34.925 -24.730 -13.246  0.00  0.00    +0.026 C 
ATOM     19  C   UNL     1      35.596 -24.003 -12.079  0.00  0.00    +0.005 C 
ENDBRANCH  17  18
ENDBRANCH   3   9
BRANCH   4  20
ATOM     20  C   UNL     1      35.202 -15.700 -21.939  0.00  0.00    +0.260 C 
BRANCH  20  21
ATOM     21  O   UNL     1      34.028 -15.219 -21.286  0.00  0.00    -0.468 OA
BRANCH  21  22
ATOM     22  C   UNL     1      33.549 -14.007 -21.702  0.00  0.00    +0.139 C 
ATOM     23  C   UNL     1      34.166 -13.338 -22.760  0.00  0.00    +0.038 C 
ATOM     24  C   UNL     1      32.444 -13.439 -21.069  0.00  0.00    +0.038 C 
ATOM     25  C   UNL     1      32.573 -11.535 -22.550  0.00  0.00    +0.078 C 
ATOM     26  C   UNL     1      33.678 -12.102 -23.184  0.00  0.00    +0.020 C 
ATOM     27  C   UNL     1      31.955 -12.203 -21.492  0.00  0.00    +0.020 C 
BRANCH  25  28
ATOM     28  N   UNL     1      32.089 -10.309 -22.970  0.00  0.00    -0.149 N 
ATOM     29  N   UNL     1      32.536  -9.703 -24.078  0.00  0.00    -0.048 NA
ATOM     30  N   UNL     1      30.969  -8.457 -23.097  0.00  0.00    -0.107 NA
ATOM     31  N   UNL     1      31.848  -8.570 -24.151  0.00  0.00    -0.024 NA
ATOM     32  C   UNL     1      31.134  -9.543 -22.379  0.00  0.00    +0.215 C 
ENDBRANCH  25  28
ENDBRANCH  21  22
ENDBRANCH  20  21
ENDBRANCH   4  20
TORSDOF 6
ENDMDL
MODEL 6
REMARK VINA RESULT:     -11.3      2.117      3.805
REMARK  Name = 25025505
REMARK  6 active torsions:
REMARK  status: ('A' for Active; 'I' for Inactive)
REMARK    1  A    between atoms: C_3  and  C_9
REMARK    2  A    between atoms: C_4  and  C_20
REMARK    3  A    between atoms: C_17  and  C_18
REMARK    4  A    between atoms: C_20  and  O_21
REMARK    5  A    between atoms: O_21  and  C_22
REMARK    6  A    between atoms: C_25  and  N_28
REMARK                            x       y       z     vdW  Elec       q    Type
REMARK                         _______ _______ _______ _____ _____    ______ ____
ROOT
ATOM      1  S   UNL     1      34.768 -18.453 -22.957  0.00  0.00    -0.079 S 
ATOM      2  N   UNL     1      35.846 -18.042 -20.644  0.00  0.00    -0.404 NA
ATOM      3  C   UNL     1      35.316 -17.440 -21.684  0.00  0.00    +0.134 C 
ATOM      4  C   UNL     1      35.823 -19.406 -20.857  0.00  0.00    +0.142 C 
ATOM      5  C   UNL     1      35.277 -19.820 -22.054  0.00  0.00    +0.122 C 
ENDROOT
BRANCH   3   9
ATOM      6  N   UNL     1      33.708 -13.465 -22.207  0.00  0.00    -0.253 N 
ATOM      7  N   UNL     1      32.361 -11.786 -21.300  0.00  0.00    -0.203 NA
ATOM      8  N   UNL     1      33.194 -11.628 -23.555  0.00  0.00    -0.181 NA
ATOM      9  C   UNL     1      35.165 -15.936 -21.821  0.00  0.00    +0.062 C 
ATOM     10  C   UNL     1      34.609 -15.534 -23.196  0.00  0.00    +0.030 C 
ATOM     11  C   UNL     1      34.280 -15.342 -20.716  0.00  0.00    +0.030 C 
ATOM     12  C   UNL     1      34.484 -14.016 -23.325  0.00  0.00    +0.102 C 
ATOM     13  C   UNL     1      34.163 -13.824 -20.856  0.00  0.00    +0.102 C 
ATOM     14  C   UNL     1      33.058 -12.235 -22.361  0.00  0.00    +0.090 C 
ATOM     15  C   UNL     1      31.746 -10.599 -21.483  0.00  0.00    +0.161 C 
ATOM     16  C   UNL     1      32.554 -10.446 -23.669  0.00  0.00    +0.104 C 
ATOM     17  C   UNL     1      31.807  -9.877 -22.658  0.00  0.00    +0.001 C 
BRANCH  17  18
ATOM     18  C   UNL     1      31.117  -8.575 -22.820  0.00  0.00    +0.026 C 
ATOM     19  C   UNL     1      31.543  -7.547 -21.770  0.00  0.00    +0.005 C 
ENDBRANCH  17  18
ENDBRANCH   3   9
BRANCH   4  20
ATOM     20  C   UNL     1      36.373 -20.290 -19.810  0.00  0.00    +0.260 C 
BRANCH  20  21
ATOM     21  O   UNL     1      35.599 -21.486 -19.725  0.00  0.00    -0.468 OA
BRANCH  21  22
ATOM     22  C   UNL     1      35.350 -21.966 -18.469  0.00  0.00    +0.139 C 
ATOM     23  C   UNL     1      36.343 -21.910 -17.490  0.00  0.00    +0.038 C 
ATOM     24  C   UNL     1      34.104 -22.514 -18.166  0.00  0.00    +0.038 C 
ATOM     25  C   UNL     1      34.843 -22.948 -15.908  0.00  0.00    +0.078 C 
ATOM     26  C   UNL     1      36.089 -22.401 -16.210  0.00  0.00    +0.020 C 
ATOM     27  C   UNL     1      33.849 -23.005 -16.885  0.00  0.00    +0.020 C 
BRANCH  25  28
ATOM     28  N   UNL     1      34.591 -23.435 -14.638  0.00  0.00    -0.149 N 
ATOM     29  N   UNL     1      33.363 -23.790 -14.236  0.00  0.00    -0.048 NA
ATOM     30  N   UNL     1      34.833 -24.105 -12.590  0.00  0.00    -0.107 NA
ATOM     31  N   UNL     1      33.517 -24.200 -12.983  0.00  0.00    -0.024 NA
ATOM     32  C   UNL     1      35.480 -23.630 -13.628  0.00  0.00    +0.215 C 
ENDBRANCH  25  28
ENDBRANCH  21  22
ENDBRANCH  20  21
ENDBRANCH   4  20
TORSDOF 6
ENDMDL
MODEL 7
REMARK VINA RESULT:     -10.9      2.296      4.168
REMARK  Name = 25025505
REMARK  6 active torsions:
REMARK  status: ('A' for Active; 'I' for Inactive)
REMARK    1  A    between atoms: C_3  and  C_9
REMARK    2  A    between atoms: C_4  and  C_20
REMARK    3  A    between atoms: C_17  and  C_18
REMARK    4  A    between atoms: C_20  and  O_21
REMARK    5  A    between atoms: O_21  and  C_22
REMARK    6  A    between atoms: C_25  and  N_28
REMARK                            x       y       z     vdW  Elec       q    Type
REMARK                         _______ _______ _______ _____ _____    ______ ____
ROOT
ATOM      1  S   UNL     1      34.823 -18.543 -22.971  0.00  0.00    -0.079 S 
ATOM      2  N   UNL     1      35.800 -18.172 -20.607  0.00  0.00    -0.404 NA
ATOM      3  C   UNL     1      35.319 -17.551 -21.661  0.00  0.00    +0.134 C 
ATOM      4  C   UNL     1      35.778 -19.533 -20.842  0.00  0.00    +0.142 C 
ATOM      5  C   UNL     1      35.283 -19.925 -22.068  0.00  0.00    +0.122 C 
ENDROOT
BRANCH   3   9
ATOM      6  N   UNL     1      33.752 -13.557 -22.155  0.00  0.00    -0.253 N 
ATOM      7  N   UNL     1      32.410 -11.876 -21.242  0.00  0.00    -0.203 NA
ATOM      8  N   UNL     1      33.268 -11.700 -23.487  0.00  0.00    -0.181 NA
ATOM      9  C   UNL     1      35.182 -16.045 -21.782  0.00  0.00    +0.062 C 
ATOM     10  C   UNL     1      34.645 -15.622 -23.158  0.00  0.00    +0.030 C 
ATOM     11  C   UNL     1      34.291 -15.455 -20.679  0.00  0.00    +0.030 C 
ATOM     12  C   UNL     1      34.534 -14.101 -23.270  0.00  0.00    +0.102 C 
ATOM     13  C   UNL     1      34.189 -13.935 -20.804  0.00  0.00    +0.102 C 
ATOM     14  C   UNL     1      33.114 -12.319 -22.301  0.00  0.00    +0.090 C 
ATOM     15  C   UNL     1      31.807 -10.682 -21.419  0.00  0.00    +0.161 C 
ATOM     16  C   UNL     1      32.639 -10.511 -23.594  0.00  0.00    +0.104 C 
ATOM     17  C   UNL     1      31.887  -9.947 -22.584  0.00  0.00    +0.001 C 
BRANCH  17  18
ATOM     18  C   UNL     1      31.210  -8.638 -22.738  0.00  0.00    +0.026 C 
ATOM     19  C   UNL     1      31.563  -7.656 -21.620  0.00  0.00    +0.005 C 
ENDBRANCH  17  18
ENDBRANCH   3   9
BRANCH   4  20
ATOM     20  C   UNL     1      36.276 -20.435 -19.785  0.00  0.00    +0.260 C 
BRANCH  20  21
ATOM     21  O   UNL     1      35.186 -21.140 -19.192  0.00  0.00    -0.468 OA
BRANCH  21  22
ATOM     22  C   UNL     1      35.444 -21.790 -18.016  0.00  0.00    +0.139 C 
ATOM     23  C   UNL     1      34.456 -22.575 -17.421  0.00  0.00    +0.038 C 
ATOM     24  C   UNL     1      36.695 -21.667 -17.411  0.00  0.00    +0.038 C 
ATOM     25  C   UNL     1      35.969 -23.113 -15.617  0.00  0.00    +0.078 C 
ATOM     26  C   UNL     1      34.719 -23.236 -16.221  0.00  0.00    +0.020 C 
ATOM     27  C   UNL     1      36.958 -22.329 -16.212  0.00  0.00    +0.020 C 
BRANCH  25  28
ATOM     28  N   UNL     1      36.230 -23.769 -14.428  0.00  0.00    -0.149 N 
ATOM     29  N   UNL     1      36.792 -23.155 -13.378  0.00  0.00    -0.048 NA
ATOM     30  N   UNL     1      36.381 -25.291 -12.890  0.00  0.00    -0.107 NA
ATOM     31  N   UNL     1      36.882 -24.090 -12.440  0.00  0.00    -0.024 NA
ATOM     32  C   UNL     1      35.982 -25.070 -14.121  0.00  0.00    +0.215 C 
ENDBRANCH  25  28
ENDBRANCH  21  22
ENDBRANCH  20  21
ENDBRANCH   4  20
TORSDOF 6
ENDMDL
MODEL 8
REMARK VINA RESULT:     -10.7      2.957      5.434
REMARK  Name = 25025505
REMARK  6 active torsions:
REMARK  status: ('A' for Active; 'I' for Inactive)
REMARK    1  A    between atoms: C_3  and  C_9
REMARK    2  A    between atoms: C_4  and  C_20
REMARK    3  A    between atoms: C_17  and  C_18
REMARK    4  A    between atoms: C_20  and  O_21
REMARK    5  A    between atoms: O_21  and  C_22
REMARK    6  A    between atoms: C_25  and  N_28
REMARK                            x       y       z     vdW  Elec       q    Type
REMARK                         _______ _______ _______ _____ _____    ______ ____
ROOT
ATOM      1  S   UNL     1      34.315 -19.677 -21.655  0.00  0.00    -0.079 S 
ATOM      2  N   UNL     1      36.188 -19.125 -19.962  0.00  0.00    -0.404 NA
ATOM      3  C   UNL     1      35.422 -18.608 -20.896  0.00  0.00    +0.134 C 
ATOM      4  C   UNL     1      35.886 -20.466 -19.828  0.00  0.00    +0.142 C 
ATOM      5  C   UNL     1      34.897 -20.947 -20.660  0.00  0.00    +0.122 C 
ENDROOT
BRANCH   3   9
ATOM      6  N   UNL     1      34.325 -14.651 -22.237  0.00  0.00    -0.253 N 
ATOM      7  N   UNL     1      33.195 -12.674 -21.718  0.00  0.00    -0.203 NA
ATOM      8  N   UNL     1      34.051 -13.070 -23.935  0.00  0.00    -0.181 NA
ATOM      9  C   UNL     1      35.460 -17.155 -21.331  0.00  0.00    +0.062 C 
ATOM     10  C   UNL     1      34.965 -16.970 -22.773  0.00  0.00    +0.030 C 
ATOM     11  C   UNL     1      34.652 -16.249 -20.390  0.00  0.00    +0.030 C 
ATOM     12  C   UNL     1      35.031 -15.503 -23.202  0.00  0.00    +0.102 C 
ATOM     13  C   UNL     1      34.726 -14.787 -20.830  0.00  0.00    +0.102 C 
ATOM     14  C   UNL     1      33.835 -13.406 -22.649  0.00  0.00    +0.090 C 
ATOM     15  C   UNL     1      32.734 -11.481 -22.149  0.00  0.00    +0.161 C 
ATOM     16  C   UNL     1      33.563 -11.866 -24.298  0.00  0.00    +0.104 C 
ATOM     17  C   UNL     1      32.890 -11.020 -23.440  0.00  0.00    +0.001 C 
BRANCH  17  18
ATOM     18  C   UNL     1      32.368  -9.703 -23.876  0.00  0.00    +0.026 C 
ATOM     19  C   UNL     1      31.625  -8.965 -22.760  0.00  0.00    +0.005 C 
ENDBRANCH  17  18
ENDBRANCH   3   9
BRANCH   4  20
ATOM     20  C   UNL     1      36.630 -21.256 -18.827  0.00  0.00    +0.260 C 
BRANCH  20  21
ATOM     21  O   UNL     1      35.757 -22.194 -18.199  0.00  0.00    -0.468 OA
BRANCH  21  22
ATOM     22  C   UNL     1      35.971 -22.434 -16.870  0.00  0.00    +0.139 C 
ATOM     23  C   UNL     1      34.909 -22.814 -16.048  0.00  0.00    +0.038 C 
ATOM     24  C   UNL     1      37.252 -22.301 -16.334  0.00  0.00    +0.038 C 
ATOM     25  C   UNL     1      36.408 -22.924 -14.158  0.00  0.00    +0.078 C 
ATOM     26  C   UNL     1      35.127 -23.058 -14.693  0.00  0.00    +0.020 C 
ATOM     27  C   UNL     1      37.471 -22.545 -14.978  0.00  0.00    +0.020 C 
BRANCH  25  28
ATOM     28  N   UNL     1      36.625 -23.166 -12.814  0.00  0.00    -0.149 N 
ATOM     29  N   UNL     1      37.744 -22.781 -12.187  0.00  0.00    -0.048 NA
ATOM     30  N   UNL     1      36.381 -23.819 -10.760  0.00  0.00    -0.107 NA
ATOM     31  N   UNL     1      37.591 -23.182 -10.931  0.00  0.00    -0.024 NA
ATOM     32  C   UNL     1      35.800 -23.797 -11.937  0.00  0.00    +0.215 C 
ENDBRANCH  25  28
ENDBRANCH  21  22
ENDBRANCH  20  21
ENDBRANCH   4  20
TORSDOF 6
ENDMDL
MODEL 9
REMARK VINA RESULT:     -10.2      2.677     11.839
REMARK  Name = 25025505
REMARK  6 active torsions:
REMARK  status: ('A' for Active; 'I' for Inactive)
REMARK    1  A    between atoms: C_3  and  C_9
REMARK    2  A    between atoms: C_4  and  C_20
REMARK    3  A    between atoms: C_17  and  C_18
REMARK    4  A    between atoms: C_20  and  O_21
REMARK    5  A    between atoms: O_21  and  C_22
REMARK    6  A    between atoms: C_25  and  N_28
REMARK                            x       y       z     vdW  Elec       q    Type
REMARK                         _______ _______ _______ _____ _____    ______ ____
ROOT
ATOM      1  S   UNL     1      34.364 -19.405 -23.603  0.00  0.00    -0.079 S 
ATOM      2  N   UNL     1      35.511 -17.720 -22.013  0.00  0.00    -0.404 NA
ATOM      3  C   UNL     1      35.236 -18.994 -22.183  0.00  0.00    +0.134 C 
ATOM      4  C   UNL     1      34.998 -17.007 -23.079  0.00  0.00    +0.142 C 
ATOM      5  C   UNL     1      34.343 -17.747 -24.041  0.00  0.00    +0.122 C 
ENDROOT
BRANCH   3   9
ATOM      6  N   UNL     1      35.870 -21.364 -18.628  0.00  0.00    -0.253 N 
ATOM      7  N   UNL     1      34.865 -22.598 -16.919  0.00  0.00    -0.203 NA
ATOM      8  N   UNL     1      37.214 -22.065 -16.850  0.00  0.00    -0.181 NA
ATOM      9  C   UNL     1      35.637 -20.094 -21.218  0.00  0.00    +0.062 C 
ATOM     10  C   UNL     1      36.645 -19.604 -20.168  0.00  0.00    +0.030 C 
ATOM     11  C   UNL     1      34.423 -20.716 -20.514  0.00  0.00    +0.030 C 
ATOM     12  C   UNL     1      37.055 -20.730 -19.219  0.00  0.00    +0.102 C 
ATOM     13  C   UNL     1      34.846 -21.840 -19.568  0.00  0.00    +0.102 C 
ATOM     14  C   UNL     1      35.989 -22.041 -17.408  0.00  0.00    +0.090 C 
ATOM     15  C   UNL     1      35.015 -23.242 -15.742  0.00  0.00    +0.161 C 
ATOM     16  C   UNL     1      37.291 -22.724 -15.675  0.00  0.00    +0.104 C 
ATOM     17  C   UNL     1      36.215 -23.338 -15.068  0.00  0.00    +0.001 C 
BRANCH  17  18
ATOM     18  C   UNL     1      36.339 -24.054 -13.776  0.00  0.00    +0.026 C 
ATOM     19  C   UNL     1      35.499 -23.419 -12.666  0.00  0.00    +0.005 C 
ENDBRANCH  17  18
ENDBRANCH   3   9
BRANCH   4  20
ATOM     20  C   UNL     1      35.189 -15.543 -23.100  0.00  0.00    +0.260 C 
BRANCH  20  21
ATOM     21  O   UNL     1      33.974 -14.899 -23.484  0.00  0.00    -0.468 OA
BRANCH  21  22
ATOM     22  C   UNL     1      33.452 -13.999 -22.596  0.00  0.00    +0.139 C 
ATOM     23  C   UNL     1      33.012 -12.752 -23.043  0.00  0.00    +0.038 C 
ATOM     24  C   UNL     1      33.359 -14.326 -21.244  0.00  0.00    +0.038 C 
ATOM     25  C   UNL     1      32.388 -12.162 -20.786  0.00  0.00    +0.078 C 
ATOM     26  C   UNL     1      32.480 -11.834 -22.138  0.00  0.00    +0.020 C 
ATOM     27  C   UNL     1      32.828 -13.408 -20.338  0.00  0.00    +0.020 C 
BRANCH  25  28
ATOM     28  N   UNL     1      31.861 -11.251 -19.888  0.00  0.00    -0.149 N 
ATOM     29  N   UNL     1      32.130 -11.299 -18.576  0.00  0.00    -0.048 NA
ATOM     30  N   UNL     1      30.764  -9.594 -19.021  0.00  0.00    -0.107 NA
ATOM     31  N   UNL     1      31.456 -10.284 -18.050  0.00  0.00    -0.024 NA
ATOM     32  C   UNL     1      31.028 -10.209 -20.150  0.00  0.00    +0.215 C 
ENDBRANCH  25  28
ENDBRANCH  21  22
ENDBRANCH  20  21
ENDBRANCH   4  20
TORSDOF 6
ENDMDL
