MODEL 1
REMARK VINA RESULT:     -11.2      0.000      0.000
REMARK  Name = 17758816
REMARK  9 active torsions:
REMARK  status: ('A' for Active; 'I' for Inactive)
REMARK    1  A    between atoms: C_3  and  C_8
REMARK    2  A    between atoms: C_4  and  C_20
REMARK    3  A    between atoms: C_11  and  O_14
REMARK    4  A    between atoms: O_14  and  C_15
REMARK    5  A    between atoms: C_15  and  C_17
REMARK    6  A    between atoms: C_17  and  O_18
REMARK    7  A    between atoms: C_20  and  N_23
REMARK    8  A    between atoms: C_28  and  S_32
REMARK    9  A    between atoms: S_32  and  C_34
REMARK                            x       y       z     vdW  Elec       q    Type
REMARK                         _______ _______ _______ _____ _____    ______ ____
ROOT
ATOM      1  N   UNL     1      35.966 -19.648 -20.083  0.00  0.00    -0.317 N 
ATOM      2  N   UNL     1      34.493 -19.449 -21.732  0.00  0.00    -0.316 N 
ATOM      3  C   UNL     1      34.995 -20.576 -19.830  0.00  0.00    +0.060 C 
ATOM      4  C   UNL     1      35.623 -18.996 -21.233  0.00  0.00    +0.164 C 
ATOM      5  C   UNL     1      34.096 -20.432 -20.862  0.00  0.00    +0.074 C 
ATOM      6  H   UNL     1      36.767 -19.481 -19.535  0.00  0.00    +0.148 HD
ATOM      7  H   UNL     1      34.034 -19.148 -22.549  0.00  0.00    +0.148 HD
ENDROOT
BRANCH   3   8
ATOM      8  C   UNL     1      35.015 -21.459 -18.690  0.00  0.00    +0.015 C 
ATOM      9  C   UNL     1      36.157 -21.543 -17.894  0.00  0.00    +0.004 C 
ATOM     10  C   UNL     1      33.893 -22.228 -18.384  0.00  0.00    +0.004 C 
ATOM     11  C   UNL     1      35.054 -23.165 -16.484  0.00  0.00    +0.139 C 
ATOM     12  C   UNL     1      36.177 -22.397 -16.790  0.00  0.00    +0.037 C 
ATOM     13  C   UNL     1      33.912 -23.082 -17.281  0.00  0.00    +0.037 C 
BRANCH  11  14
ATOM     14  O   UNL     1      35.074 -23.998 -15.408  0.00  0.00    -0.464 OA
BRANCH  14  15
ATOM     15  C   UNL     1      36.354 -24.361 -14.891  0.00  0.00    +0.314 C 
BRANCH  15  17
ATOM     16  O   UNL     1      36.317 -26.750 -15.333  0.00  0.00    -0.246 OA
ATOM     17  C   UNL     1      36.364 -25.823 -14.539  0.00  0.00    +0.359 C 
BRANCH  17  18
ATOM     18  O   UNL     1      36.437 -25.980 -13.193  0.00  0.00    -0.478 OA
ATOM     19  H   UNL     1      35.987 -26.689 -12.778  0.00  0.00    +0.295 HD
ENDBRANCH  17  18
ENDBRANCH  15  17
ENDBRANCH  14  15
ENDBRANCH  11  14
ENDBRANCH   3   8
BRANCH   4  20
ATOM     20  C   UNL     1      36.468 -17.924 -21.791  0.00  0.00    +0.131 C 
BRANCH  20  23
ATOM     21  S   UNL     1      32.697 -13.023 -22.976  0.00  0.00    -0.045 S 
ATOM     22  O   UNL     1      34.966 -16.043 -20.251  0.00  0.00    -0.252 OA
ATOM     23  N   UNL     1      35.647 -16.850 -22.304  0.00  0.00    -0.285 N 
ATOM     24  N   UNL     1      34.242 -15.042 -22.254  0.00  0.00    -0.248 N 
ATOM     25  N   UNL     1      33.162 -13.709 -20.528  0.00  0.00    -0.222 NA
ATOM     26  C   UNL     1      34.941 -15.970 -21.477  0.00  0.00    +0.306 C 
ATOM     27  C   UNL     1      33.429 -14.011 -21.778  0.00  0.00    +0.167 C 
ATOM     28  C   UNL     1      31.953 -12.108 -21.732  0.00  0.00    +0.082 C 
ATOM     29  C   UNL     1      32.316 -12.618 -20.503  0.00  0.00    +0.114 C 
ATOM     30  H   UNL     1      35.583 -16.732 -23.280  0.00  0.00    +0.151 HD
ATOM     31  H   UNL     1      34.331 -15.123 -23.231  0.00  0.00    +0.158 HD
BRANCH  28  32
ATOM     32  S   UNL     1      30.907 -10.744 -22.043  0.00  0.00    -0.060 S 
BRANCH  32  34
ATOM     33  N   UNL     1      32.959  -9.301 -22.992  0.00  0.00    -0.237 NA
ATOM     34  C   UNL     1      32.126  -9.436 -21.936  0.00  0.00    +0.111 C 
ATOM     35  C   UNL     1      32.169  -8.638 -20.806  0.00  0.00    +0.026 C 
ATOM     36  C   UNL     1      33.129  -7.633 -20.755  0.00  0.00    +0.004 C 
ATOM     37  C   UNL     1      34.004  -7.461 -21.822  0.00  0.00    +0.021 C 
ATOM     38  C   UNL     1      33.879  -8.313 -22.908  0.00  0.00    +0.099 C 
ENDBRANCH  32  34
ENDBRANCH  28  32
ENDBRANCH  20  23
ENDBRANCH   4  20
TORSDOF 9
ENDMDL
MODEL 2
REMARK VINA RESULT:     -11.0      1.830      2.470
REMARK  Name = 17758816
REMARK  9 active torsions:
REMARK  status: ('A' for Active; 'I' for Inactive)
REMARK    1  A    between atoms: C_3  and  C_8
REMARK    2  A    between atoms: C_4  and  C_20
REMARK    3  A    between atoms: C_11  and  O_14
REMARK    4  A    between atoms: O_14  and  C_15
REMARK    5  A    between atoms: C_15  and  C_17
REMARK    6  A    between atoms: C_17  and  O_18
REMARK    7  A    between atoms: C_20  and  N_23
REMARK    8  A    between atoms: C_28  and  S_32
REMARK    9  A    between atoms: S_32  and  C_34
REMARK                            x       y       z     vdW  Elec       q    Type
REMARK                         _______ _______ _______ _____ _____    ______ ____
ROOT
ATOM      1  N   UNL     1      34.936 -19.090 -21.480  0.00  0.00    -0.317 N 
ATOM      2  N   UNL     1      36.937 -18.240 -21.930  0.00  0.00    -0.316 N 
ATOM      3  C   UNL     1      35.800 -19.685 -20.605  0.00  0.00    +0.060 C 
ATOM      4  C   UNL     1      35.663 -18.231 -22.255  0.00  0.00    +0.164 C 
ATOM      5  C   UNL     1      37.029 -19.145 -20.903  0.00  0.00    +0.074 C 
ATOM      6  H   UNL     1      33.966 -19.250 -21.541  0.00  0.00    +0.148 HD
ATOM      7  H   UNL     1      37.664 -17.714 -22.334  0.00  0.00    +0.148 HD
ENDROOT
BRANCH   3   8
ATOM      8  C   UNL     1      35.392 -20.661 -19.624  0.00  0.00    +0.015 C 
ATOM      9  C   UNL     1      34.073 -21.113 -19.598  0.00  0.00    +0.004 C 
ATOM     10  C   UNL     1      36.316 -21.151 -18.703  0.00  0.00    +0.004 C 
ATOM     11  C   UNL     1      34.603 -22.549 -17.729  0.00  0.00    +0.139 C 
ATOM     12  C   UNL     1      33.678 -22.058 -18.650  0.00  0.00    +0.037 C 
ATOM     13  C   UNL     1      35.922 -22.096 -17.754  0.00  0.00    +0.037 C 
BRANCH  11  14
ATOM     14  O   UNL     1      34.217 -23.470 -16.804  0.00  0.00    -0.464 OA
BRANCH  14  15
ATOM     15  C   UNL     1      34.628 -23.246 -15.454  0.00  0.00    +0.314 C 
BRANCH  15  17
ATOM     16  O   UNL     1      36.268 -25.008 -15.124  0.00  0.00    -0.246 OA
ATOM     17  C   UNL     1      35.177 -24.520 -14.873  0.00  0.00    +0.359 C 
BRANCH  17  18
ATOM     18  O   UNL     1      34.281 -25.065 -14.011  0.00  0.00    -0.478 OA
ATOM     19  H   UNL     1      33.381 -25.144 -14.259  0.00  0.00    +0.295 HD
ENDBRANCH  17  18
ENDBRANCH  15  17
ENDBRANCH  14  15
ENDBRANCH  11  14
ENDBRANCH   3   8
BRANCH   4  20
ATOM     20  C   UNL     1      35.026 -17.421 -23.310  0.00  0.00    +0.131 C 
BRANCH  20  23
ATOM     21  S   UNL     1      32.513 -11.853 -21.785  0.00  0.00    -0.045 S 
ATOM     22  O   UNL     1      34.664 -14.890 -24.586  0.00  0.00    -0.252 OA
ATOM     23  N   UNL     1      34.399 -16.250 -22.739  0.00  0.00    -0.285 N 
ATOM     24  N   UNL     1      33.620 -14.099 -22.631  0.00  0.00    -0.248 N 
ATOM     25  N   UNL     1      33.555 -12.181 -24.128  0.00  0.00    -0.222 NA
ATOM     26  C   UNL     1      34.262 -15.044 -23.435  0.00  0.00    +0.306 C 
ATOM     27  C   UNL     1      33.310 -12.784 -22.987  0.00  0.00    +0.167 C 
ATOM     28  C   UNL     1      32.487 -10.524 -22.868  0.00  0.00    +0.082 C 
ATOM     29  C   UNL     1      33.082 -10.886 -24.059  0.00  0.00    +0.114 C 
ATOM     30  H   UNL     1      34.053 -16.303 -21.818  0.00  0.00    +0.151 HD
ATOM     31  H   UNL     1      33.361 -14.387 -21.726  0.00  0.00    +0.158 HD
BRANCH  28  32
ATOM     32  S   UNL     1      31.792  -8.973 -22.462  0.00  0.00    -0.060 S 
BRANCH  32  34
ATOM     33  N   UNL     1      32.749  -7.238 -24.270  0.00  0.00    -0.237 NA
ATOM     34  C   UNL     1      33.066  -7.917 -23.145  0.00  0.00    +0.111 C 
ATOM     35  C   UNL     1      34.296  -7.840 -22.514  0.00  0.00    +0.026 C 
ATOM     36  C   UNL     1      35.264  -7.012 -23.071  0.00  0.00    +0.004 C 
ATOM     37  C   UNL     1      34.975  -6.296 -24.228  0.00  0.00    +0.021 C 
ATOM     38  C   UNL     1      33.714  -6.442 -24.783  0.00  0.00    +0.099 C 
ENDBRANCH  32  34
ENDBRANCH  28  32
ENDBRANCH  20  23
ENDBRANCH   4  20
TORSDOF 9
ENDMDL
MODEL 3
REMARK VINA RESULT:     -10.9      1.650      2.169
REMARK  Name = 17758816
REMARK  9 active torsions:
REMARK  status: ('A' for Active; 'I' for Inactive)
REMARK    1  A    between atoms: C_3  and  C_8
REMARK    2  A    between atoms: C_4  and  C_20
REMARK    3  A    between atoms: C_11  and  O_14
REMARK    4  A    between atoms: O_14  and  C_15
REMARK    5  A    between atoms: C_15  and  C_17
REMARK    6  A    between atoms: C_17  and  O_18
REMARK    7  A    between atoms: C_20  and  N_23
REMARK    8  A    between atoms: C_28  and  S_32
REMARK    9  A    between atoms: S_32  and  C_34
REMARK                            x       y       z     vdW  Elec       q    Type
REMARK                         _______ _______ _______ _____ _____    ______ ____
ROOT
ATOM      1  N   UNL     1      35.921 -20.539 -19.628  0.00  0.00    -0.317 N 
ATOM      2  N   UNL     1      34.075 -20.071 -20.768  0.00  0.00    -0.316 N 
ATOM      3  C   UNL     1      34.907 -21.181 -18.975  0.00  0.00    +0.060 C 
ATOM      4  C   UNL     1      35.375 -19.886 -20.697  0.00  0.00    +0.164 C 
ATOM      5  C   UNL     1      33.777 -20.876 -19.698  0.00  0.00    +0.074 C 
ATOM      6  H   UNL     1      36.873 -20.546 -19.374  0.00  0.00    +0.148 HD
ATOM      7  H   UNL     1      33.453 -19.711 -21.441  0.00  0.00    +0.148 HD
ENDROOT
BRANCH   3   8
ATOM      8  C   UNL     1      35.102 -21.978 -17.789  0.00  0.00    +0.015 C 
ATOM      9  C   UNL     1      36.330 -21.954 -17.128  0.00  0.00    +0.004 C 
ATOM     10  C   UNL     1      34.064 -22.771 -17.303  0.00  0.00    +0.004 C 
ATOM     11  C   UNL     1      35.480 -23.517 -15.493  0.00  0.00    +0.139 C 
ATOM     12  C   UNL     1      36.519 -22.724 -15.980  0.00  0.00    +0.037 C 
ATOM     13  C   UNL     1      34.252 -23.541 -16.155  0.00  0.00    +0.037 C 
BRANCH  11  14
ATOM     14  O   UNL     1      35.665 -24.268 -14.374  0.00  0.00    -0.464 OA
BRANCH  14  15
ATOM     15  C   UNL     1      36.906 -24.964 -14.257  0.00  0.00    +0.314 C 
BRANCH  15  17
ATOM     16  O   UNL     1      36.406 -26.919 -15.610  0.00  0.00    -0.246 OA
ATOM     17  C   UNL     1      36.695 -26.428 -14.530  0.00  0.00    +0.359 C 
BRANCH  17  18
ATOM     18  O   UNL     1      36.875 -27.147 -13.393  0.00  0.00    -0.478 OA
ATOM     19  H   UNL     1      37.436 -27.897 -13.396  0.00  0.00    +0.295 HD
ENDBRANCH  17  18
ENDBRANCH  15  17
ENDBRANCH  14  15
ENDBRANCH  11  14
ENDBRANCH   3   8
BRANCH   4  20
ATOM     20  C   UNL     1      36.206 -19.090 -21.618  0.00  0.00    +0.131 C 
BRANCH  20  23
ATOM     21  S   UNL     1      34.240 -13.143 -22.263  0.00  0.00    -0.045 S 
ATOM     22  O   UNL     1      34.855 -17.557 -23.616  0.00  0.00    -0.252 OA
ATOM     23  N   UNL     1      35.851 -17.690 -21.537  0.00  0.00    -0.285 N 
ATOM     24  N   UNL     1      34.980 -15.680 -22.204  0.00  0.00    -0.248 N 
ATOM     25  N   UNL     1      33.833 -14.834 -24.176  0.00  0.00    -0.222 NA
ATOM     26  C   UNL     1      35.188 -17.013 -22.565  0.00  0.00    +0.306 C 
ATOM     27  C   UNL     1      34.350 -14.701 -22.975  0.00  0.00    +0.167 C 
ATOM     28  C   UNL     1      33.434 -12.585 -23.669  0.00  0.00    +0.082 C 
ATOM     29  C   UNL     1      33.308 -13.620 -24.572  0.00  0.00    +0.114 C 
ATOM     30  H   UNL     1      36.087 -17.192 -20.721  0.00  0.00    +0.151 HD
ATOM     31  H   UNL     1      35.311 -15.403 -21.318  0.00  0.00    +0.158 HD
BRANCH  28  32
ATOM     32  S   UNL     1      32.880 -10.939 -23.863  0.00  0.00    -0.060 S 
BRANCH  32  34
ATOM     33  N   UNL     1      31.347 -11.690 -21.794  0.00  0.00    -0.237 NA
ATOM     34  C   UNL     1      32.155 -10.704 -22.243  0.00  0.00    +0.111 C 
ATOM     35  C   UNL     1      32.440  -9.550 -21.531  0.00  0.00    +0.026 C 
ATOM     36  C   UNL     1      31.859  -9.398 -20.277  0.00  0.00    +0.004 C 
ATOM     37  C   UNL     1      31.023 -10.392 -19.780  0.00  0.00    +0.021 C 
ATOM     38  C   UNL     1      30.801 -11.508 -20.570  0.00  0.00    +0.099 C 
ENDBRANCH  32  34
ENDBRANCH  28  32
ENDBRANCH  20  23
ENDBRANCH   4  20
TORSDOF 9
ENDMDL
MODEL 4
REMARK VINA RESULT:     -10.8      1.379      1.859
REMARK  Name = 17758816
REMARK  9 active torsions:
REMARK  status: ('A' for Active; 'I' for Inactive)
REMARK    1  A    between atoms: C_3  and  C_8
REMARK    2  A    between atoms: C_4  and  C_20
REMARK    3  A    between atoms: C_11  and  O_14
REMARK    4  A    between atoms: O_14  and  C_15
REMARK    5  A    between atoms: C_15  and  C_17
REMARK    6  A    between atoms: C_17  and  O_18
REMARK    7  A    between atoms: C_20  and  N_23
REMARK    8  A    between atoms: C_28  and  S_32
REMARK    9  A    between atoms: S_32  and  C_34
REMARK                            x       y       z     vdW  Elec       q    Type
REMARK                         _______ _______ _______ _____ _____    ______ ____
ROOT
ATOM      1  N   UNL     1      36.062 -20.103 -19.868  0.00  0.00    -0.317 N 
ATOM      2  N   UNL     1      34.497 -19.691 -21.388  0.00  0.00    -0.316 N 
ATOM      3  C   UNL     1      34.973 -20.840 -19.494  0.00  0.00    +0.060 C 
ATOM      4  C   UNL     1      35.729 -19.430 -21.010  0.00  0.00    +0.164 C 
ATOM      5  C   UNL     1      34.021 -20.568 -20.448  0.00  0.00    +0.074 C 
ATOM      6  H   UNL     1      36.927 -20.065 -19.400  0.00  0.00    +0.148 HD
ATOM      7  H   UNL     1      34.022 -19.335 -22.174  0.00  0.00    +0.148 HD
ENDROOT
BRANCH   3   8
ATOM      8  C   UNL     1      34.949 -21.685 -18.325  0.00  0.00    +0.015 C 
ATOM      9  C   UNL     1      36.072 -21.770 -17.503  0.00  0.00    +0.004 C 
ATOM     10  C   UNL     1      33.802 -22.415 -18.017  0.00  0.00    +0.004 C 
ATOM     11  C   UNL     1      34.900 -23.316 -16.063  0.00  0.00    +0.139 C 
ATOM     12  C   UNL     1      36.048 -22.587 -16.371  0.00  0.00    +0.037 C 
ATOM     13  C   UNL     1      33.777 -23.232 -16.886  0.00  0.00    +0.037 C 
BRANCH  11  14
ATOM     14  O   UNL     1      34.877 -24.113 -14.960  0.00  0.00    -0.464 OA
BRANCH  14  15
ATOM     15  C   UNL     1      35.333 -23.539 -13.734  0.00  0.00    +0.314 C 
BRANCH  15  17
ATOM     16  O   UNL     1      34.820 -24.723 -11.675  0.00  0.00    -0.246 OA
ATOM     17  C   UNL     1      34.465 -24.008 -12.599  0.00  0.00    +0.359 C 
BRANCH  17  18
ATOM     18  O   UNL     1      33.206 -23.519 -12.740  0.00  0.00    -0.478 OA
ATOM     19  H   UNL     1      32.520 -24.075 -13.052  0.00  0.00    +0.295 HD
ENDBRANCH  17  18
ENDBRANCH  15  17
ENDBRANCH  14  15
ENDBRANCH  11  14
ENDBRANCH   3   8
BRANCH   4  20
ATOM     20  C   UNL     1      36.690 -18.537 -21.683  0.00  0.00    +0.131 C 
BRANCH  20  23
ATOM     21  S   UNL     1      33.371 -13.454 -23.355  0.00  0.00    -0.045 S 
ATOM     22  O   UNL     1      35.119 -16.556 -20.352  0.00  0.00    -0.252 OA
ATOM     23  N   UNL     1      36.000 -17.426 -22.300  0.00  0.00    -0.285 N 
ATOM     24  N   UNL     1      34.702 -15.544 -22.434  0.00  0.00    -0.248 N 
ATOM     25  N   UNL     1      33.495 -14.131 -20.863  0.00  0.00    -0.222 NA
ATOM     26  C   UNL     1      35.248 -16.498 -21.572  0.00  0.00    +0.306 C 
ATOM     27  C   UNL     1      33.896 -14.464 -22.069  0.00  0.00    +0.167 C 
ATOM     28  C   UNL     1      32.534 -12.483 -22.217  0.00  0.00    +0.082 C 
ATOM     29  C   UNL     1      32.715 -12.995 -20.949  0.00  0.00    +0.114 C 
ATOM     30  H   UNL     1      36.061 -17.319 -23.277  0.00  0.00    +0.151 HD
ATOM     31  H   UNL     1      34.905 -15.643 -23.393  0.00  0.00    +0.158 HD
BRANCH  28  32
ATOM     32  S   UNL     1      31.611 -11.068 -22.663  0.00  0.00    -0.060 S 
BRANCH  32  34
ATOM     33  N   UNL     1      32.417  -9.117 -21.008  0.00  0.00    -0.237 NA
ATOM     34  C   UNL     1      31.637 -10.218 -21.087  0.00  0.00    +0.111 C 
ATOM     35  C   UNL     1      30.880 -10.710 -20.037  0.00  0.00    +0.026 C 
ATOM     36  C   UNL     1      30.925 -10.027 -18.826  0.00  0.00    +0.004 C 
ATOM     37  C   UNL     1      31.715  -8.889 -18.706  0.00  0.00    +0.021 C 
ATOM     38  C   UNL     1      32.435  -8.479 -19.816  0.00  0.00    +0.099 C 
ENDBRANCH  32  34
ENDBRANCH  28  32
ENDBRANCH  20  23
ENDBRANCH   4  20
TORSDOF 9
ENDMDL
MODEL 5
REMARK VINA RESULT:     -10.8      1.858      2.468
REMARK  Name = 17758816
REMARK  9 active torsions:
REMARK  status: ('A' for Active; 'I' for Inactive)
REMARK    1  A    between atoms: C_3  and  C_8
REMARK    2  A    between atoms: C_4  and  C_20
REMARK    3  A    between atoms: C_11  and  O_14
REMARK    4  A    between atoms: O_14  and  C_15
REMARK    5  A    between atoms: C_15  and  C_17
REMARK    6  A    between atoms: C_17  and  O_18
REMARK    7  A    between atoms: C_20  and  N_23
REMARK    8  A    between atoms: C_28  and  S_32
REMARK    9  A    between atoms: S_32  and  C_34
REMARK                            x       y       z     vdW  Elec       q    Type
REMARK                         _______ _______ _______ _____ _____    ______ ____
ROOT
ATOM      1  N   UNL     1      36.474 -20.338 -19.022  0.00  0.00    -0.317 N 
ATOM      2  N   UNL     1      34.851 -20.655 -20.503  0.00  0.00    -0.316 N 
ATOM      3  C   UNL     1      35.710 -21.357 -18.526  0.00  0.00    +0.060 C 
ATOM      4  C   UNL     1      35.920 -19.948 -20.209  0.00  0.00    +0.164 C 
ATOM      5  C   UNL     1      34.714 -21.533 -19.458  0.00  0.00    +0.074 C 
ATOM      6  H   UNL     1      37.277 -19.954 -18.600  0.00  0.00    +0.148 HD
ATOM      7  H   UNL     1      34.276 -20.572 -21.298  0.00  0.00    +0.148 HD
ENDROOT
BRANCH   3   8
ATOM      8  C   UNL     1      35.988 -22.026 -17.279  0.00  0.00    +0.015 C 
ATOM      9  C   UNL     1      37.247 -21.910 -16.692  0.00  0.00    +0.004 C 
ATOM     10  C   UNL     1      34.997 -22.786 -16.660  0.00  0.00    +0.004 C 
ATOM     11  C   UNL     1      36.525 -23.316 -14.865  0.00  0.00    +0.139 C 
ATOM     12  C   UNL     1      37.516 -22.556 -15.484  0.00  0.00    +0.037 C 
ATOM     13  C   UNL     1      35.265 -23.432 -15.453  0.00  0.00    +0.037 C 
BRANCH  11  14
ATOM     14  O   UNL     1      36.787 -23.946 -13.688  0.00  0.00    -0.464 OA
BRANCH  14  15
ATOM     15  C   UNL     1      36.419 -23.264 -12.489  0.00  0.00    +0.314 C 
BRANCH  15  17
ATOM     16  O   UNL     1      37.701 -24.505 -10.840  0.00  0.00    -0.246 OA
ATOM     17  C   UNL     1      37.479 -23.466 -11.442  0.00  0.00    +0.359 C 
BRANCH  17  18
ATOM     18  O   UNL     1      38.175 -22.316 -11.253  0.00  0.00    -0.478 OA
ATOM     19  H   UNL     1      37.719 -21.517 -11.074  0.00  0.00    +0.295 HD
ENDBRANCH  17  18
ENDBRANCH  15  17
ENDBRANCH  14  15
ENDBRANCH  11  14
ENDBRANCH   3   8
BRANCH   4  20
ATOM     20  C   UNL     1      36.508 -18.860 -21.010  0.00  0.00    +0.131 C 
BRANCH  20  23
ATOM     21  S   UNL     1      33.291 -13.447 -21.073  0.00  0.00    -0.045 S 
ATOM     22  O   UNL     1      35.298 -17.189 -22.988  0.00  0.00    -0.252 OA
ATOM     23  N   UNL     1      35.800 -17.621 -20.776  0.00  0.00    -0.285 N 
ATOM     24  N   UNL     1      34.620 -15.723 -21.277  0.00  0.00    -0.248 N 
ATOM     25  N   UNL     1      33.769 -14.671 -23.300  0.00  0.00    -0.222 NA
ATOM     26  C   UNL     1      35.235 -16.861 -21.806  0.00  0.00    +0.306 C 
ATOM     27  C   UNL     1      33.951 -14.732 -22.000  0.00  0.00    +0.167 C 
ATOM     28  C   UNL     1      32.708 -12.737 -22.521  0.00  0.00    +0.082 C 
ATOM     29  C   UNL     1      33.056 -13.526 -23.597  0.00  0.00    +0.114 C 
ATOM     30  H   UNL     1      35.711 -17.297 -19.850  0.00  0.00    +0.151 HD
ATOM     31  H   UNL     1      34.661 -15.609 -20.300  0.00  0.00    +0.158 HD
BRANCH  28  32
ATOM     32  S   UNL     1      31.811 -11.237 -22.556  0.00  0.00    -0.060 S 
BRANCH  32  34
ATOM     33  N   UNL     1      33.014  -8.840 -22.537  0.00  0.00    -0.237 NA
ATOM     34  C   UNL     1      33.161 -10.123 -22.936  0.00  0.00    +0.111 C 
ATOM     35  C   UNL     1      34.271 -10.604 -23.608  0.00  0.00    +0.026 C 
ATOM     36  C   UNL     1      35.300  -9.711 -23.889  0.00  0.00    +0.004 C 
ATOM     37  C   UNL     1      35.186  -8.383 -23.494  0.00  0.00    +0.021 C 
ATOM     38  C   UNL     1      34.034  -8.001 -22.827  0.00  0.00    +0.099 C 
ENDBRANCH  32  34
ENDBRANCH  28  32
ENDBRANCH  20  23
ENDBRANCH   4  20
TORSDOF 9
ENDMDL
MODEL 6
REMARK VINA RESULT:     -10.7      4.275      6.829
REMARK  Name = 17758816
REMARK  9 active torsions:
REMARK  status: ('A' for Active; 'I' for Inactive)
REMARK    1  A    between atoms: C_3  and  C_8
REMARK    2  A    between atoms: C_4  and  C_20
REMARK    3  A    between atoms: C_11  and  O_14
REMARK    4  A    between atoms: O_14  and  C_15
REMARK    5  A    between atoms: C_15  and  C_17
REMARK    6  A    between atoms: C_17  and  O_18
REMARK    7  A    between atoms: C_20  and  N_23
REMARK    8  A    between atoms: C_28  and  S_32
REMARK    9  A    between atoms: S_32  and  C_34
REMARK                            x       y       z     vdW  Elec       q    Type
REMARK                         _______ _______ _______ _____ _____    ______ ____
ROOT
ATOM      1  N   UNL     1      34.428 -22.706 -16.360  0.00  0.00    -0.317 N 
ATOM      2  N   UNL     1      36.008 -23.519 -15.028  0.00  0.00    -0.316 N 
ATOM      3  C   UNL     1      33.771 -23.355 -15.353  0.00  0.00    +0.060 C 
ATOM      4  C   UNL     1      35.768 -22.831 -16.123  0.00  0.00    +0.164 C 
ATOM      5  C   UNL     1      34.768 -23.849 -14.545  0.00  0.00    +0.074 C 
ATOM      6  H   UNL     1      34.012 -22.235 -17.118  0.00  0.00    +0.148 HD
ATOM      7  H   UNL     1      36.884 -23.746 -14.641  0.00  0.00    +0.148 HD
ENDROOT
BRANCH   3   8
ATOM      8  C   UNL     1      32.333 -23.439 -15.266  0.00  0.00    +0.015 C 
ATOM      9  C   UNL     1      31.540 -22.826 -16.236  0.00  0.00    +0.004 C 
ATOM     10  C   UNL     1      31.738 -24.133 -14.214  0.00  0.00    +0.004 C 
ATOM     11  C   UNL     1      29.554 -23.603 -15.100  0.00  0.00    +0.139 C 
ATOM     12  C   UNL     1      30.149 -22.908 -16.153  0.00  0.00    +0.037 C 
ATOM     13  C   UNL     1      30.348 -24.215 -14.130  0.00  0.00    +0.037 C 
BRANCH  11  14
ATOM     14  O   UNL     1      28.198 -23.682 -15.019  0.00  0.00    -0.464 OA
BRANCH  14  15
ATOM     15  C   UNL     1      27.465 -22.467 -15.181  0.00  0.00    +0.314 C 
BRANCH  15  17
ATOM     16  O   UNL     1      27.048 -23.117 -17.485  0.00  0.00    -0.246 OA
ATOM     17  C   UNL     1      26.720 -22.493 -16.487  0.00  0.00    +0.359 C 
BRANCH  17  18
ATOM     18  O   UNL     1      25.610 -21.717 -16.407  0.00  0.00    -0.478 OA
ATOM     19  H   UNL     1      25.593 -20.879 -16.826  0.00  0.00    +0.295 HD
ENDBRANCH  17  18
ENDBRANCH  15  17
ENDBRANCH  14  15
ENDBRANCH  11  14
ENDBRANCH   3   8
BRANCH   4  20
ATOM     20  C   UNL     1      36.768 -22.237 -17.030  0.00  0.00    +0.131 C 
BRANCH  20  23
ATOM     21  S   UNL     1      34.664 -19.451 -22.270  0.00  0.00    -0.045 S 
ATOM     22  O   UNL     1      37.268 -19.794 -18.424  0.00  0.00    -0.252 OA
ATOM     23  N   UNL     1      36.139 -21.801 -18.258  0.00  0.00    -0.285 N 
ATOM     24  N   UNL     1      35.683 -20.436 -20.039  0.00  0.00    -0.248 N 
ATOM     25  N   UNL     1      36.456 -18.268 -20.830  0.00  0.00    -0.222 NA
ATOM     26  C   UNL     1      36.444 -20.584 -18.876  0.00  0.00    +0.306 C 
ATOM     27  C   UNL     1      35.716 -19.351 -20.918  0.00  0.00    +0.167 C 
ATOM     28  C   UNL     1      35.234 -17.921 -22.795  0.00  0.00    +0.082 C 
ATOM     29  C   UNL     1      36.178 -17.450 -21.907  0.00  0.00    +0.114 C 
ATOM     30  H   UNL     1      35.468 -22.386 -18.676  0.00  0.00    +0.151 HD
ATOM     31  H   UNL     1      35.064 -21.168 -20.261  0.00  0.00    +0.158 HD
BRANCH  28  32
ATOM     32  S   UNL     1      34.663 -17.135 -24.247  0.00  0.00    -0.060 S 
BRANCH  32  34
ATOM     33  N   UNL     1      34.675 -15.312 -22.280  0.00  0.00    -0.237 NA
ATOM     34  C   UNL     1      34.280 -15.528 -23.554  0.00  0.00    +0.111 C 
ATOM     35  C   UNL     1      33.610 -14.596 -24.328  0.00  0.00    +0.026 C 
ATOM     36  C   UNL     1      33.327 -13.359 -23.759  0.00  0.00    +0.004 C 
ATOM     37  C   UNL     1      33.718 -13.098 -22.450  0.00  0.00    +0.021 C 
ATOM     38  C   UNL     1      34.384 -14.098 -21.760  0.00  0.00    +0.099 C 
ENDBRANCH  32  34
ENDBRANCH  28  32
ENDBRANCH  20  23
ENDBRANCH   4  20
TORSDOF 9
ENDMDL
MODEL 7
REMARK VINA RESULT:     -10.7      2.112      3.475
REMARK  Name = 17758816
REMARK  9 active torsions:
REMARK  status: ('A' for Active; 'I' for Inactive)
REMARK    1  A    between atoms: C_3  and  C_8
REMARK    2  A    between atoms: C_4  and  C_20
REMARK    3  A    between atoms: C_11  and  O_14
REMARK    4  A    between atoms: O_14  and  C_15
REMARK    5  A    between atoms: C_15  and  C_17
REMARK    6  A    between atoms: C_17  and  O_18
REMARK    7  A    between atoms: C_20  and  N_23
REMARK    8  A    between atoms: C_28  and  S_32
REMARK    9  A    between atoms: S_32  and  C_34
REMARK                            x       y       z     vdW  Elec       q    Type
REMARK                         _______ _______ _______ _____ _____    ______ ____
ROOT
ATOM      1  N   UNL     1      36.630 -21.277 -18.291  0.00  0.00    -0.317 N 
ATOM      2  N   UNL     1      34.920 -21.149 -19.702  0.00  0.00    -0.316 N 
ATOM      3  C   UNL     1      35.602 -21.952 -17.695  0.00  0.00    +0.060 C 
ATOM      4  C   UNL     1      36.174 -20.813 -19.493  0.00  0.00    +0.164 C 
ATOM      5  C   UNL     1      34.558 -21.858 -18.585  0.00  0.00    +0.074 C 
ATOM      6  H   UNL     1      37.534 -21.149 -17.922  0.00  0.00    +0.148 HD
ATOM      7  H   UNL     1      34.364 -20.938 -20.487  0.00  0.00    +0.148 HD
ENDROOT
BRANCH   3   8
ATOM      8  C   UNL     1      35.709 -22.585 -16.404  0.00  0.00    +0.015 C 
ATOM      9  C   UNL     1      36.916 -22.543 -15.705  0.00  0.00    +0.004 C 
ATOM     10  C   UNL     1      34.607 -23.237 -15.854  0.00  0.00    +0.004 C 
ATOM     11  C   UNL     1      35.916 -23.806 -13.904  0.00  0.00    +0.139 C 
ATOM     12  C   UNL     1      37.019 -23.154 -14.455  0.00  0.00    +0.037 C 
ATOM     13  C   UNL     1      34.710 -23.849 -14.604  0.00  0.00    +0.037 C 
BRANCH  11  14
ATOM     14  O   UNL     1      36.018 -24.403 -12.686  0.00  0.00    -0.464 OA
BRANCH  14  15
ATOM     15  C   UNL     1      35.431 -23.720 -11.577  0.00  0.00    +0.314 C 
BRANCH  15  17
ATOM     16  O   UNL     1      36.283 -24.342  -9.388  0.00  0.00    -0.246 OA
ATOM     17  C   UNL     1      36.395 -23.703 -10.423  0.00  0.00    +0.359 C 
BRANCH  17  18
ATOM     18  O   UNL     1      37.430 -22.866 -10.690  0.00  0.00    -0.478 OA
ATOM     19  H   UNL     1      38.224 -22.932 -10.199  0.00  0.00    +0.295 HD
ENDBRANCH  17  18
ENDBRANCH  15  17
ENDBRANCH  14  15
ENDBRANCH  11  14
ENDBRANCH   3   8
BRANCH   4  20
ATOM     20  C   UNL     1      37.043 -20.036 -20.396  0.00  0.00    +0.131 C 
BRANCH  20  23
ATOM     21  S   UNL     1      34.584 -14.477 -22.041  0.00  0.00    -0.045 S 
ATOM     22  O   UNL     1      35.800 -18.923 -22.716  0.00  0.00    -0.252 OA
ATOM     23  N   UNL     1      36.542 -18.687 -20.542  0.00  0.00    -0.285 N 
ATOM     24  N   UNL     1      35.563 -16.886 -21.563  0.00  0.00    -0.248 N 
ATOM     25  N   UNL     1      34.586 -16.423 -23.743  0.00  0.00    -0.222 NA
ATOM     26  C   UNL     1      35.945 -18.221 -21.718  0.00  0.00    +0.306 C 
ATOM     27  C   UNL     1      34.936 -16.087 -22.522  0.00  0.00    +0.167 C 
ATOM     28  C   UNL     1      33.905 -14.190 -23.589  0.00  0.00    +0.082 C 
ATOM     29  C   UNL     1      33.994 -15.335 -24.354  0.00  0.00    +0.114 C 
ATOM     30  H   UNL     1      36.626 -18.069 -19.780  0.00  0.00    +0.151 HD
ATOM     31  H   UNL     1      35.753 -16.468 -20.692  0.00  0.00    +0.158 HD
BRANCH  28  32
ATOM     32  S   UNL     1      33.216 -12.656 -24.061  0.00  0.00    -0.060 S 
BRANCH  32  34
ATOM     33  N   UNL     1      32.448 -10.827 -22.255  0.00  0.00    -0.237 NA
ATOM     34  C   UNL     1      32.552 -12.157 -22.475  0.00  0.00    +0.111 C 
ATOM     35  C   UNL     1      32.182 -13.125 -21.557  0.00  0.00    +0.026 C 
ATOM     36  C   UNL     1      31.671 -12.703 -20.334  0.00  0.00    +0.004 C 
ATOM     37  C   UNL     1      31.548 -11.343 -20.072  0.00  0.00    +0.021 C 
ATOM     38  C   UNL     1      31.946 -10.454 -21.056  0.00  0.00    +0.099 C 
ENDBRANCH  32  34
ENDBRANCH  28  32
ENDBRANCH  20  23
ENDBRANCH   4  20
TORSDOF 9
ENDMDL
MODEL 8
REMARK VINA RESULT:     -10.6      4.328     12.347
REMARK  Name = 17758816
REMARK  9 active torsions:
REMARK  status: ('A' for Active; 'I' for Inactive)
REMARK    1  A    between atoms: C_3  and  C_8
REMARK    2  A    between atoms: C_4  and  C_20
REMARK    3  A    between atoms: C_11  and  O_14
REMARK    4  A    between atoms: O_14  and  C_15
REMARK    5  A    between atoms: C_15  and  C_17
REMARK    6  A    between atoms: C_17  and  O_18
REMARK    7  A    between atoms: C_20  and  N_23
REMARK    8  A    between atoms: C_28  and  S_32
REMARK    9  A    between atoms: S_32  and  C_34
REMARK                            x       y       z     vdW  Elec       q    Type
REMARK                         _______ _______ _______ _____ _____    ______ ____
ROOT
ATOM      1  N   UNL     1      34.930 -16.058 -21.841  0.00  0.00    -0.317 N 
ATOM      2  N   UNL     1      35.117 -16.691 -23.961  0.00  0.00    -0.316 N 
ATOM      3  C   UNL     1      34.159 -15.188 -22.560  0.00  0.00    +0.060 C 
ATOM      4  C   UNL     1      35.485 -16.942 -22.723  0.00  0.00    +0.164 C 
ATOM      5  C   UNL     1      34.292 -15.600 -23.866  0.00  0.00    +0.074 C 
ATOM      6  H   UNL     1      35.061 -16.049 -20.865  0.00  0.00    +0.148 HD
ATOM      7  H   UNL     1      35.377 -17.180 -24.775  0.00  0.00    +0.148 HD
ENDROOT
BRANCH   3   8
ATOM      8  C   UNL     1      33.413 -14.107 -21.965  0.00  0.00    +0.015 C 
ATOM      9  C   UNL     1      32.966 -13.050 -22.757  0.00  0.00    +0.004 C 
ATOM     10  C   UNL     1      33.139 -14.119 -20.598  0.00  0.00    +0.004 C 
ATOM     11  C   UNL     1      31.968 -12.017 -20.814  0.00  0.00    +0.139 C 
ATOM     12  C   UNL     1      32.243 -12.004 -22.182  0.00  0.00    +0.037 C 
ATOM     13  C   UNL     1      32.417 -13.074 -20.022  0.00  0.00    +0.037 C 
BRANCH  11  14
ATOM     14  O   UNL     1      31.264 -10.997 -20.253  0.00  0.00    -0.464 OA
BRANCH  14  15
ATOM     15  C   UNL     1      31.803  -9.682 -20.393  0.00  0.00    +0.314 C 
BRANCH  15  17
ATOM     16  O   UNL     1      32.226  -9.780 -18.002  0.00  0.00    -0.246 OA
ATOM     17  C   UNL     1      32.377  -9.225 -19.080  0.00  0.00    +0.359 C 
BRANCH  17  18
ATOM     18  O   UNL     1      33.102  -8.092 -19.255  0.00  0.00    -0.478 OA
ATOM     19  H   UNL     1      32.670  -7.264 -19.322  0.00  0.00    +0.295 HD
ENDBRANCH  17  18
ENDBRANCH  15  17
ENDBRANCH  14  15
ENDBRANCH  11  14
ENDBRANCH   3   8
BRANCH   4  20
ATOM     20  C   UNL     1      36.379 -18.022 -22.269  0.00  0.00    +0.131 C 
BRANCH  20  23
ATOM     21  S   UNL     1      34.048 -22.265 -18.242  0.00  0.00    -0.045 S 
ATOM     22  O   UNL     1      37.262 -19.319 -19.880  0.00  0.00    -0.252 OA
ATOM     23  N   UNL     1      35.642 -18.995 -21.493  0.00  0.00    -0.285 N 
ATOM     24  N   UNL     1      35.217 -20.480 -19.802  0.00  0.00    -0.248 N 
ATOM     25  N   UNL     1      36.409 -21.292 -17.841  0.00  0.00    -0.222 NA
ATOM     26  C   UNL     1      36.150 -19.585 -20.331  0.00  0.00    +0.306 C 
ATOM     27  C   UNL     1      35.373 -21.252 -18.648  0.00  0.00    +0.167 C 
ATOM     28  C   UNL     1      34.919 -22.813 -16.871  0.00  0.00    +0.082 C 
ATOM     29  C   UNL     1      36.147 -22.187 -16.823  0.00  0.00    +0.114 C 
ATOM     30  H   UNL     1      34.742 -19.255 -21.797  0.00  0.00    +0.151 HD
ATOM     31  H   UNL     1      34.368 -20.576 -20.290  0.00  0.00    +0.158 HD
BRANCH  28  32
ATOM     32  S   UNL     1      34.287 -23.987 -15.743  0.00  0.00    -0.060 S 
BRANCH  32  34
ATOM     33  N   UNL     1      36.562 -25.202 -15.007  0.00  0.00    -0.237 NA
ATOM     34  C   UNL     1      35.735 -24.176 -14.706  0.00  0.00    +0.111 C 
ATOM     35  C   UNL     1      35.945 -23.289 -13.664  0.00  0.00    +0.026 C 
ATOM     36  C   UNL     1      37.079 -23.466 -12.877  0.00  0.00    +0.004 C 
ATOM     37  C   UNL     1      37.954 -24.510 -13.155  0.00  0.00    +0.021 C 
ATOM     38  C   UNL     1      37.654 -25.342 -14.221  0.00  0.00    +0.099 C 
ENDBRANCH  32  34
ENDBRANCH  28  32
ENDBRANCH  20  23
ENDBRANCH   4  20
TORSDOF 9
ENDMDL
MODEL 9
REMARK VINA RESULT:     -10.6      2.585      3.340
REMARK  Name = 17758816
REMARK  9 active torsions:
REMARK  status: ('A' for Active; 'I' for Inactive)
REMARK    1  A    between atoms: C_3  and  C_8
REMARK    2  A    between atoms: C_4  and  C_20
REMARK    3  A    between atoms: C_11  and  O_14
REMARK    4  A    between atoms: O_14  and  C_15
REMARK    5  A    between atoms: C_15  and  C_17
REMARK    6  A    between atoms: C_17  and  O_18
REMARK    7  A    between atoms: C_20  and  N_23
REMARK    8  A    between atoms: C_28  and  S_32
REMARK    9  A    between atoms: S_32  and  C_34
REMARK                            x       y       z     vdW  Elec       q    Type
REMARK                         _______ _______ _______ _____ _____    ______ ____
ROOT
ATOM      1  N   UNL     1      34.587 -18.733 -21.808  0.00  0.00    -0.317 N 
ATOM      2  N   UNL     1      36.683 -18.040 -22.046  0.00  0.00    -0.316 N 
ATOM      3  C   UNL     1      35.326 -19.464 -20.920  0.00  0.00    +0.060 C 
ATOM      4  C   UNL     1      35.444 -17.892 -22.461  0.00  0.00    +0.164 C 
ATOM      5  C   UNL     1      36.616 -19.018 -21.087  0.00  0.00    +0.074 C 
ATOM      6  H   UNL     1      33.615 -18.801 -21.951  0.00  0.00    +0.148 HD
ATOM      7  H   UNL     1      37.482 -17.554 -22.355  0.00  0.00    +0.148 HD
ENDROOT
BRANCH   3   8
ATOM      8  C   UNL     1      34.760 -20.464 -20.049  0.00  0.00    +0.015 C 
ATOM      9  C   UNL     1      35.597 -21.340 -19.358  0.00  0.00    +0.004 C 
ATOM     10  C   UNL     1      33.377 -20.554 -19.896  0.00  0.00    +0.004 C 
ATOM     11  C   UNL     1      33.667 -22.396 -18.360  0.00  0.00    +0.139 C 
ATOM     12  C   UNL     1      35.050 -22.307 -18.513  0.00  0.00    +0.037 C 
ATOM     13  C   UNL     1      32.830 -21.521 -19.052  0.00  0.00    +0.037 C 
BRANCH  11  14
ATOM     14  O   UNL     1      33.133 -23.340 -17.537  0.00  0.00    -0.464 OA
BRANCH  14  15
ATOM     15  C   UNL     1      32.681 -22.903 -16.255  0.00  0.00    +0.314 C 
BRANCH  15  17
ATOM     16  O   UNL     1      30.334 -22.443 -16.681  0.00  0.00    -0.246 OA
ATOM     17  C   UNL     1      31.198 -23.117 -16.139  0.00  0.00    +0.359 C 
BRANCH  17  18
ATOM     18  O   UNL     1      30.939 -24.181 -15.338  0.00  0.00    -0.478 OA
ATOM     19  H   UNL     1      30.127 -24.232 -14.874  0.00  0.00    +0.295 HD
ENDBRANCH  17  18
ENDBRANCH  15  17
ENDBRANCH  14  15
ENDBRANCH  11  14
ENDBRANCH   3   8
BRANCH   4  20
ATOM     20  C   UNL     1      34.964 -16.957 -23.495  0.00  0.00    +0.131 C 
BRANCH  20  23
ATOM     21  S   UNL     1      32.425 -11.446 -21.811  0.00  0.00    -0.045 S 
ATOM     22  O   UNL     1      34.422 -14.451 -24.756  0.00  0.00    -0.252 OA
ATOM     23  N   UNL     1      34.352 -15.798 -22.882  0.00  0.00    -0.285 N 
ATOM     24  N   UNL     1      33.523 -13.669 -22.728  0.00  0.00    -0.248 N 
ATOM     25  N   UNL     1      33.276 -11.770 -24.231  0.00  0.00    -0.222 NA
ATOM     26  C   UNL     1      34.123 -14.604 -23.575  0.00  0.00    +0.306 C 
ATOM     27  C   UNL     1      33.146 -12.367 -23.068  0.00  0.00    +0.167 C 
ATOM     28  C   UNL     1      32.269 -10.131 -22.900  0.00  0.00    +0.082 C 
ATOM     29  C   UNL     1      32.773 -10.488 -24.133  0.00  0.00    +0.114 C 
ATOM     30  H   UNL     1      34.086 -15.851 -21.936  0.00  0.00    +0.151 HD
ATOM     31  H   UNL     1      33.348 -13.955 -21.803  0.00  0.00    +0.158 HD
BRANCH  28  32
ATOM     32  S   UNL     1      31.565  -8.596 -22.450  0.00  0.00    -0.060 S 
BRANCH  32  34
ATOM     33  N   UNL     1      33.989  -7.496 -22.783  0.00  0.00    -0.237 NA
ATOM     34  C   UNL     1      32.729  -7.512 -23.273  0.00  0.00    +0.111 C 
ATOM     35  C   UNL     1      32.305  -6.749 -24.348  0.00  0.00    +0.026 C 
ATOM     36  C   UNL     1      33.234  -5.916 -24.962  0.00  0.00    +0.004 C 
ATOM     37  C   UNL     1      34.541  -5.873 -24.488  0.00  0.00    +0.021 C 
ATOM     38  C   UNL     1      34.865  -6.675 -23.406  0.00  0.00    +0.099 C 
ENDBRANCH  32  34
ENDBRANCH  28  32
ENDBRANCH  20  23
ENDBRANCH   4  20
TORSDOF 9
ENDMDL
