MODEL 1
REMARK VINA RESULT:     -11.7      0.000      0.000
REMARK  Name = 9910098
REMARK  9 active torsions:
REMARK  status: ('A' for Active; 'I' for Inactive)
REMARK    1  A    between atoms: N_1  and  C1*_12
REMARK    2  A    between atoms: C_9  and  O_25
REMARK    3  A    between atoms: C2*_11  and  O2*_15
REMARK    4  A    between atoms: C3*_13  and  O3*_17
REMARK    5  A    between atoms: C4*_14  and  C5*_19
REMARK    6  A    between atoms: C5*_19  and  O5*_20
REMARK    7  A    between atoms: O_25  and  C_26
REMARK    8  A    between atoms: C_26  and  C_27
REMARK    9  A    between atoms: C_27  and  C_29
REMARK                            x       y       z     vdW  Elec       q    Type
REMARK                         _______ _______ _______ _____ _____    ______ ____
ROOT
ATOM      1  N   UNL     1      34.759 -23.548 -14.634  0.00  0.00    -0.236 N 
ATOM      2  N   UNL     1      32.554 -23.518 -14.294  0.00  0.00    -0.240 NA
ATOM      3  N   UNL     1      34.826 -22.891 -16.973  0.00  0.00    -0.294 NA
ATOM      4  N   UNL     1      32.581 -22.514 -17.854  0.00  0.00    -0.295 NA
ATOM      5  C   UNL     1      34.195 -23.180 -15.824  0.00  0.00    +0.223 C 
ATOM      6  C   UNL     1      33.731 -23.740 -13.748  0.00  0.00    +0.224 C 
ATOM      7  C   UNL     1      32.829 -23.166 -15.591  0.00  0.00    +0.167 C 
ATOM      8  C   UNL     1      32.012 -22.817 -16.662  0.00  0.00    +0.214 C 
ATOM      9  C   UNL     1      33.933 -22.570 -17.933  0.00  0.00    +0.313 C 
ATOM     10  N   UNL     1      30.614 -22.781 -16.516  0.00  0.00    -0.331 N 
ATOM     11  H   UNL     1      30.047 -22.532 -17.281  0.00  0.00    +0.145 HD
ATOM     12  H   UNL     1      30.204 -23.002 -15.649  0.00  0.00    +0.145 HD
ENDROOT
BRANCH   1  15
ATOM     13  O4* UNL     1      36.676 -24.889 -15.036  0.00  0.00    -0.333 OA
ATOM     14  C2* UNL     1      36.504 -23.878 -12.866  0.00  0.00    +0.187 C 
ATOM     15  C1* UNL     1      36.186 -23.715 -14.353  0.00  0.00    +0.226 C 
ATOM     16  C3* UNL     1      36.761 -25.368 -12.738  0.00  0.00    +0.171 C 
ATOM     17  C4* UNL     1      37.378 -25.705 -14.085  0.00  0.00    +0.175 C 
BRANCH  14  18
ATOM     18  O2* UNL     1      37.672 -23.123 -12.549  0.00  0.00    -0.378 OA
ATOM     19  H2* UNL     1      37.412 -22.242 -12.236  0.00  0.00    +0.211 HD
ENDBRANCH  14  18
BRANCH  16  20
ATOM     20  O3* UNL     1      37.613 -25.702 -11.664  0.00  0.00    -0.379 OA
ATOM     21  H3* UNL     1      37.689 -24.944 -11.064  0.00  0.00    +0.211 HD
ENDBRANCH  16  20
BRANCH  17  22
ATOM     22  C5* UNL     1      37.241 -27.169 -14.463  0.00  0.00    +0.169 C 
BRANCH  22  23
ATOM     23  O5* UNL     1      36.851 -27.252 -15.823  0.00  0.00    -0.379 OA
ATOM     24  H5* UNL     1      35.906 -27.464 -15.877  0.00  0.00    +0.211 HD
ENDBRANCH  22  23
ENDBRANCH  17  22
ENDBRANCH   1  15
BRANCH   9  25
ATOM     25  O   UNL     1      34.469 -22.248 -19.161  0.00  0.00    -0.399 OA
BRANCH  25  26
ATOM     26  C   UNL     1      34.247 -20.923 -19.621  0.00  0.00    +0.227 C 
BRANCH  26  27
ATOM     27  C   UNL     1      35.555 -20.330 -20.135  0.00  0.00    +0.075 C 
BRANCH  27  29
ATOM     28 CL   UNL     1      34.690 -16.379 -24.569  0.00  0.00    -0.082 Cl
ATOM     29  C   UNL     1      35.336 -19.336 -21.249  0.00  0.00    -0.018 C 
ATOM     30  C   UNL     1      34.763 -19.763 -22.437  0.00  0.00    -0.003 C 
ATOM     31  C   UNL     1      35.714 -18.015 -21.066  0.00  0.00    -0.003 C 
ATOM     32  C   UNL     1      34.561 -18.845 -23.467  0.00  0.00    +0.011 C 
ATOM     33  C   UNL     1      35.513 -17.097 -22.097  0.00  0.00    +0.011 C 
ATOM     34  C   UNL     1      34.937 -17.512 -23.297  0.00  0.00    +0.058 C 
ENDBRANCH  27  29
ENDBRANCH  26  27
ENDBRANCH  25  26
ENDBRANCH   9  25
TORSDOF 9
ENDMDL
MODEL 2
REMARK VINA RESULT:     -11.4      1.290      2.154
REMARK  Name = 9910098
REMARK  9 active torsions:
REMARK  status: ('A' for Active; 'I' for Inactive)
REMARK    1  A    between atoms: N_1  and  C1*_12
REMARK    2  A    between atoms: C_9  and  O_25
REMARK    3  A    between atoms: C2*_11  and  O2*_15
REMARK    4  A    between atoms: C3*_13  and  O3*_17
REMARK    5  A    between atoms: C4*_14  and  C5*_19
REMARK    6  A    between atoms: C5*_19  and  O5*_20
REMARK    7  A    between atoms: O_25  and  C_26
REMARK    8  A    between atoms: C_26  and  C_27
REMARK    9  A    between atoms: C_27  and  C_29
REMARK                            x       y       z     vdW  Elec       q    Type
REMARK                         _______ _______ _______ _____ _____    ______ ____
ROOT
ATOM      1  N   UNL     1      34.395 -23.996 -14.337  0.00  0.00    -0.236 N 
ATOM      2  N   UNL     1      32.187 -23.696 -14.221  0.00  0.00    -0.240 NA
ATOM      3  N   UNL     1      34.792 -23.270 -16.622  0.00  0.00    -0.294 NA
ATOM      4  N   UNL     1      32.718 -22.575 -17.706  0.00  0.00    -0.295 NA
ATOM      5  C   UNL     1      34.011 -23.516 -15.559  0.00  0.00    +0.223 C 
ATOM      6  C   UNL     1      33.262 -24.087 -13.570  0.00  0.00    +0.224 C 
ATOM      7  C   UNL     1      32.640 -23.336 -15.465  0.00  0.00    +0.167 C 
ATOM      8  C   UNL     1      31.992 -22.846 -16.595  0.00  0.00    +0.214 C 
ATOM      9  C   UNL     1      34.053 -22.802 -17.651  0.00  0.00    +0.313 C 
ATOM     10  N   UNL     1      30.602 -22.635 -16.589  0.00  0.00    -0.331 N 
ATOM     11  H   UNL     1      30.155 -22.288 -17.394  0.00  0.00    +0.145 HD
ATOM     12  H   UNL     1      30.078 -22.833 -15.780  0.00  0.00    +0.145 HD
ENDROOT
BRANCH   1  15
ATOM     13  O4* UNL     1      35.690 -25.195 -12.749  0.00  0.00    -0.333 OA
ATOM     14  C2* UNL     1      36.630 -23.151 -13.584  0.00  0.00    +0.187 C 
ATOM     15  C1* UNL     1      35.752 -24.356 -13.922  0.00  0.00    +0.226 C 
ATOM     16  C3* UNL     1      36.644 -23.160 -12.067  0.00  0.00    +0.171 C 
ATOM     17  C4* UNL     1      36.566 -24.644 -11.753  0.00  0.00    +0.175 C 
BRANCH  14  18
ATOM     18  O2* UNL     1      37.938 -23.358 -14.114  0.00  0.00    -0.378 OA
ATOM     19  H2* UNL     1      38.509 -22.613 -13.867  0.00  0.00    +0.211 HD
ENDBRANCH  14  18
BRANCH  16  20
ATOM     20  O3* UNL     1      37.794 -22.558 -11.511  0.00  0.00    -0.379 OA
ATOM     21  H3* UNL     1      37.877 -21.652 -11.845  0.00  0.00    +0.211 HD
ENDBRANCH  16  20
BRANCH  17  22
ATOM     22  C5* UNL     1      36.022 -24.941 -10.367  0.00  0.00    +0.169 C 
BRANCH  22  23
ATOM     23  O5* UNL     1      36.492 -23.949  -9.472  0.00  0.00    -0.379 OA
ATOM     24  H5* UNL     1      37.190 -24.321  -8.911  0.00  0.00    +0.211 HD
ENDBRANCH  22  23
ENDBRANCH  17  22
ENDBRANCH   1  15
BRANCH   9  25
ATOM     25  O   UNL     1      34.753 -22.507 -18.801  0.00  0.00    -0.399 OA
BRANCH  25  26
ATOM     26  C   UNL     1      34.459 -21.264 -19.420  0.00  0.00    +0.227 C 
BRANCH  26  27
ATOM     27  C   UNL     1      35.750 -20.608 -19.898  0.00  0.00    +0.075 C 
BRANCH  27  29
ATOM     28 CL   UNL     1      34.791 -16.610 -24.270  0.00  0.00    -0.082 Cl
ATOM     29  C   UNL     1      35.510 -19.604 -20.998  0.00  0.00    -0.018 C 
ATOM     30  C   UNL     1      36.028 -18.324 -20.874  0.00  0.00    -0.003 C 
ATOM     31  C   UNL     1      34.775 -19.978 -22.112  0.00  0.00    -0.003 C 
ATOM     32  C   UNL     1      35.805 -17.395 -21.890  0.00  0.00    +0.011 C 
ATOM     33  C   UNL     1      34.552 -19.048 -23.128  0.00  0.00    +0.011 C 
ATOM     34  C   UNL     1      35.068 -17.757 -23.017  0.00  0.00    +0.058 C 
ENDBRANCH  27  29
ENDBRANCH  26  27
ENDBRANCH  25  26
ENDBRANCH   9  25
TORSDOF 9
ENDMDL
MODEL 3
REMARK VINA RESULT:     -11.0      1.589      2.210
REMARK  Name = 9910098
REMARK  9 active torsions:
REMARK  status: ('A' for Active; 'I' for Inactive)
REMARK    1  A    between atoms: N_1  and  C1*_12
REMARK    2  A    between atoms: C_9  and  O_25
REMARK    3  A    between atoms: C2*_11  and  O2*_15
REMARK    4  A    between atoms: C3*_13  and  O3*_17
REMARK    5  A    between atoms: C4*_14  and  C5*_19
REMARK    6  A    between atoms: C5*_19  and  O5*_20
REMARK    7  A    between atoms: O_25  and  C_26
REMARK    8  A    between atoms: C_26  and  C_27
REMARK    9  A    between atoms: C_27  and  C_29
REMARK                            x       y       z     vdW  Elec       q    Type
REMARK                         _______ _______ _______ _____ _____    ______ ____
ROOT
ATOM      1  N   UNL     1      34.651 -24.035 -13.879  0.00  0.00    -0.236 N 
ATOM      2  N   UNL     1      32.824 -24.130 -12.602  0.00  0.00    -0.240 NA
ATOM      3  N   UNL     1      33.644 -23.386 -15.994  0.00  0.00    -0.294 NA
ATOM      4  N   UNL     1      31.224 -23.142 -15.787  0.00  0.00    -0.295 NA
ATOM      5  C   UNL     1      33.601 -23.705 -14.691  0.00  0.00    +0.223 C 
ATOM      6  C   UNL     1      34.131 -24.282 -12.635  0.00  0.00    +0.224 C 
ATOM      7  C   UNL     1      32.479 -23.769 -13.880  0.00  0.00    +0.167 C 
ATOM      8  C   UNL     1      31.256 -23.472 -14.474  0.00  0.00    +0.214 C 
ATOM      9  C   UNL     1      32.404 -23.121 -16.455  0.00  0.00    +0.313 C 
ATOM     10  N   UNL     1      30.066 -23.515 -13.727  0.00  0.00    -0.331 N 
ATOM     11  H   UNL     1      29.208 -23.302 -14.158  0.00  0.00    +0.145 HD
ATOM     12  H   UNL     1      30.093 -23.755 -12.772  0.00  0.00    +0.145 HD
ENDROOT
BRANCH   1  15
ATOM     13  O4* UNL     1      36.255 -25.242 -15.146  0.00  0.00    -0.333 OA
ATOM     14  C2* UNL     1      37.008 -24.300 -13.071  0.00  0.00    +0.187 C 
ATOM     15  C1* UNL     1      36.062 -24.119 -14.259  0.00  0.00    +0.226 C 
ATOM     16  C3* UNL     1      37.362 -25.773 -13.143  0.00  0.00    +0.171 C 
ATOM     17  C4* UNL     1      37.339 -26.037 -14.639  0.00  0.00    +0.175 C 
BRANCH  14  18
ATOM     18  O2* UNL     1      38.161 -23.481 -13.259  0.00  0.00    -0.378 OA
ATOM     19  H2* UNL     1      38.766 -23.598 -12.510  0.00  0.00    +0.211 HD
ENDBRANCH  14  18
BRANCH  16  20
ATOM     20  O3* UNL     1      38.614 -26.079 -12.568  0.00  0.00    -0.379 OA
ATOM     21  H3* UNL     1      38.524 -26.126 -11.603  0.00  0.00    +0.211 HD
ENDBRANCH  16  20
BRANCH  17  22
ATOM     22  C5* UNL     1      37.117 -27.496 -14.992  0.00  0.00    +0.169 C 
BRANCH  22  23
ATOM     23  O5* UNL     1      36.802 -27.586 -16.370  0.00  0.00    -0.379 OA
ATOM     24  H5* UNL     1      37.002 -26.742 -16.805  0.00  0.00    +0.211 HD
ENDBRANCH  22  23
ENDBRANCH  17  22
ENDBRANCH   1  15
BRANCH   9  25
ATOM     25  O   UNL     1      32.325 -22.774 -17.787  0.00  0.00    -0.399 OA
BRANCH  25  26
ATOM     26  C   UNL     1      33.516 -22.282 -18.384  0.00  0.00    +0.227 C 
BRANCH  26  27
ATOM     27  C   UNL     1      33.172 -21.196 -19.398  0.00  0.00    +0.075 C 
BRANCH  27  29
ATOM     28 CL   UNL     1      38.064 -18.523 -21.622  0.00  0.00    -0.082 Cl
ATOM     29  C   UNL     1      34.402 -20.525 -19.959  0.00  0.00    -0.018 C 
ATOM     30  C   UNL     1      35.646 -20.842 -19.436  0.00  0.00    -0.003 C 
ATOM     31  C   UNL     1      34.266 -19.603 -20.985  0.00  0.00    -0.003 C 
ATOM     32  C   UNL     1      36.783 -20.221 -19.953  0.00  0.00    +0.011 C 
ATOM     33  C   UNL     1      35.403 -18.981 -21.501  0.00  0.00    +0.011 C 
ATOM     34  C   UNL     1      36.662 -19.291 -20.985  0.00  0.00    +0.058 C 
ENDBRANCH  27  29
ENDBRANCH  26  27
ENDBRANCH  25  26
ENDBRANCH   9  25
TORSDOF 9
ENDMDL
MODEL 4
REMARK VINA RESULT:     -10.8      1.218      1.859
REMARK  Name = 9910098
REMARK  9 active torsions:
REMARK  status: ('A' for Active; 'I' for Inactive)
REMARK    1  A    between atoms: N_1  and  C1*_12
REMARK    2  A    between atoms: C_9  and  O_25
REMARK    3  A    between atoms: C2*_11  and  O2*_15
REMARK    4  A    between atoms: C3*_13  and  O3*_17
REMARK    5  A    between atoms: C4*_14  and  C5*_19
REMARK    6  A    between atoms: C5*_19  and  O5*_20
REMARK    7  A    between atoms: O_25  and  C_26
REMARK    8  A    between atoms: C_26  and  C_27
REMARK    9  A    between atoms: C_27  and  C_29
REMARK                            x       y       z     vdW  Elec       q    Type
REMARK                         _______ _______ _______ _____ _____    ______ ____
ROOT
ATOM      1  N   UNL     1      33.850 -23.762 -13.792  0.00  0.00    -0.236 N 
ATOM      2  N   UNL     1      31.641 -23.463 -13.893  0.00  0.00    -0.240 NA
ATOM      3  N   UNL     1      34.434 -23.322 -16.109  0.00  0.00    -0.294 NA
ATOM      4  N   UNL     1      32.458 -22.781 -17.436  0.00  0.00    -0.295 NA
ATOM      5  C   UNL     1      33.568 -23.439 -15.090  0.00  0.00    +0.223 C 
ATOM      6  C   UNL     1      32.658 -23.764 -13.114  0.00  0.00    +0.224 C 
ATOM      7  C   UNL     1      32.195 -23.257 -15.132  0.00  0.00    +0.167 C 
ATOM      8  C   UNL     1      31.643 -22.916 -16.362  0.00  0.00    +0.214 C 
ATOM      9  C   UNL     1      33.783 -22.990 -17.245  0.00  0.00    +0.313 C 
ATOM     10  N   UNL     1      30.258 -22.715 -16.496  0.00  0.00    -0.331 N 
ATOM     11  H   UNL     1      29.879 -22.473 -17.371  0.00  0.00    +0.145 HD
ATOM     12  H   UNL     1      29.668 -22.814 -15.714  0.00  0.00    +0.145 HD
ENDROOT
BRANCH   1  15
ATOM     13  O4* UNL     1      36.097 -23.021 -13.603  0.00  0.00    -0.333 OA
ATOM     14  C2* UNL     1      35.748 -25.394 -13.693  0.00  0.00    +0.187 C 
ATOM     15  C1* UNL     1      35.167 -24.059 -13.226  0.00  0.00    +0.226 C 
ATOM     16  C3* UNL     1      36.780 -24.970 -14.721  0.00  0.00    +0.171 C 
ATOM     17  C4* UNL     1      37.264 -23.643 -14.163  0.00  0.00    +0.175 C 
BRANCH  14  18
ATOM     18  O2* UNL     1      36.361 -26.053 -12.586  0.00  0.00    -0.378 OA
ATOM     19  H2* UNL     1      35.812 -26.804 -12.313  0.00  0.00    +0.211 HD
ENDBRANCH  14  18
BRANCH  16  20
ATOM     20  O3* UNL     1      37.833 -25.897 -14.877  0.00  0.00    -0.379 OA
ATOM     21  H3* UNL     1      38.590 -25.459 -15.296  0.00  0.00    +0.211 HD
ENDBRANCH  16  20
BRANCH  17  22
ATOM     22  C5* UNL     1      37.877 -22.733 -15.213  0.00  0.00    +0.169 C 
BRANCH  22  23
ATOM     23  O5* UNL     1      37.212 -22.949 -16.445  0.00  0.00    -0.379 OA
ATOM     24  H5* UNL     1      36.302 -23.238 -16.276  0.00  0.00    +0.211 HD
ENDBRANCH  22  23
ENDBRANCH  17  22
ENDBRANCH   1  15
BRANCH   9  25
ATOM     25  O   UNL     1      34.575 -22.837 -18.362  0.00  0.00    -0.399 OA
BRANCH  25  26
ATOM     26  C   UNL     1      34.332 -21.686 -19.157  0.00  0.00    +0.227 C 
BRANCH  26  27
ATOM     27  C   UNL     1      35.649 -20.977 -19.454  0.00  0.00    +0.075 C 
BRANCH  27  29
ATOM     28 CL   UNL     1      35.132 -16.971 -23.893  0.00  0.00    -0.082 Cl
ATOM     29  C   UNL     1      35.518 -19.968 -20.569  0.00  0.00    -0.018 C 
ATOM     30  C   UNL     1      34.417 -20.024 -21.409  0.00  0.00    -0.003 C 
ATOM     31  C   UNL     1      36.502 -19.006 -20.734  0.00  0.00    -0.003 C 
ATOM     32  C   UNL     1      34.297 -19.092 -22.441  0.00  0.00    +0.011 C 
ATOM     33  C   UNL     1      36.382 -18.075 -21.766  0.00  0.00    +0.011 C 
ATOM     34  C   UNL     1      35.279 -18.118 -22.619  0.00  0.00    +0.058 C 
ENDBRANCH  27  29
ENDBRANCH  26  27
ENDBRANCH  25  26
ENDBRANCH   9  25
TORSDOF 9
ENDMDL
MODEL 5
REMARK VINA RESULT:     -10.2      3.343      5.013
REMARK  Name = 9910098
REMARK  9 active torsions:
REMARK  status: ('A' for Active; 'I' for Inactive)
REMARK    1  A    between atoms: N_1  and  C1*_12
REMARK    2  A    between atoms: C_9  and  O_25
REMARK    3  A    between atoms: C2*_11  and  O2*_15
REMARK    4  A    between atoms: C3*_13  and  O3*_17
REMARK    5  A    between atoms: C4*_14  and  C5*_19
REMARK    6  A    between atoms: C5*_19  and  O5*_20
REMARK    7  A    between atoms: O_25  and  C_26
REMARK    8  A    between atoms: C_26  and  C_27
REMARK    9  A    between atoms: C_27  and  C_29
REMARK                            x       y       z     vdW  Elec       q    Type
REMARK                         _______ _______ _______ _____ _____    ______ ____
ROOT
ATOM      1  N   UNL     1      31.887 -22.897 -15.006  0.00  0.00    -0.236 N 
ATOM      2  N   UNL     1      33.958 -23.304 -14.282  0.00  0.00    -0.240 NA
ATOM      3  N   UNL     1      32.352 -22.415 -17.342  0.00  0.00    -0.294 NA
ATOM      4  N   UNL     1      34.739 -22.582 -17.825  0.00  0.00    -0.295 NA
ATOM      5  C   UNL     1      32.706 -22.744 -16.090  0.00  0.00    +0.223 C 
ATOM      6  C   UNL     1      32.688 -23.233 -13.945  0.00  0.00    +0.224 C 
ATOM      7  C   UNL     1      33.984 -23.001 -15.620  0.00  0.00    +0.167 C 
ATOM      8  C   UNL     1      35.023 -22.910 -16.542  0.00  0.00    +0.214 C 
ATOM      9  C   UNL     1      33.440 -22.358 -18.139  0.00  0.00    +0.313 C 
ATOM     10  N   UNL     1      36.352 -23.153 -16.152  0.00  0.00    -0.331 N 
ATOM     11  H   UNL     1      37.078 -23.086 -16.813  0.00  0.00    +0.145 HD
ATOM     12  H   UNL     1      36.555 -23.391 -15.218  0.00  0.00    +0.145 HD
ENDROOT
BRANCH   1  15
ATOM     13  O4* UNL     1      29.867 -23.622 -13.989  0.00  0.00    -0.333 OA
ATOM     14  C2* UNL     1      29.751 -23.020 -16.310  0.00  0.00    +0.187 C 
ATOM     15  C1* UNL     1      30.434 -22.729 -14.973  0.00  0.00    +0.226 C 
ATOM     16  C3* UNL     1      29.148 -24.394 -16.088  0.00  0.00    +0.171 C 
ATOM     17  C4* UNL     1      28.802 -24.359 -14.609  0.00  0.00    +0.175 C 
BRANCH  14  18
ATOM     18  O2* UNL     1      28.739 -22.043 -16.545  0.00  0.00    -0.378 OA
ATOM     19  H2* UNL     1      28.315 -21.809 -15.704  0.00  0.00    +0.211 HD
ENDBRANCH  14  18
BRANCH  16  20
ATOM     20  O3* UNL     1      28.018 -24.650 -16.893  0.00  0.00    -0.379 OA
ATOM     21  H3* UNL     1      27.262 -24.872 -16.328  0.00  0.00    +0.211 HD
ENDBRANCH  16  20
BRANCH  17  22
ATOM     22  C5* UNL     1      28.695 -25.736 -13.980  0.00  0.00    +0.169 C 
BRANCH  22  23
ATOM     23  O5* UNL     1      29.943 -26.393 -14.110  0.00  0.00    -0.379 OA
ATOM     24  H5* UNL     1      29.950 -27.189 -13.556  0.00  0.00    +0.211 HD
ENDBRANCH  22  23
ENDBRANCH  17  22
ENDBRANCH   1  15
BRANCH   9  25
ATOM     25  O   UNL     1      33.195 -22.032 -19.456  0.00  0.00    -0.399 OA
BRANCH  25  26
ATOM     26  C   UNL     1      33.370 -20.669 -19.815  0.00  0.00    +0.227 C 
BRANCH  26  27
ATOM     27  C   UNL     1      34.785 -20.452 -20.339  0.00  0.00    +0.075 C 
BRANCH  27  29
ATOM     28 CL   UNL     1      35.030 -16.133 -24.499  0.00  0.00    -0.082 Cl
ATOM     29  C   UNL     1      34.848 -19.367 -21.386  0.00  0.00    -0.018 C 
ATOM     30  C   UNL     1      35.290 -18.103 -21.027  0.00  0.00    -0.003 C 
ATOM     31  C   UNL     1      34.461 -19.652 -22.686  0.00  0.00    -0.003 C 
ATOM     32  C   UNL     1      35.348 -17.099 -21.994  0.00  0.00    +0.011 C 
ATOM     33  C   UNL     1      34.518 -18.648 -23.653  0.00  0.00    +0.011 C 
ATOM     34  C   UNL     1      34.961 -17.371 -23.306  0.00  0.00    +0.058 C 
ENDBRANCH  27  29
ENDBRANCH  26  27
ENDBRANCH  25  26
ENDBRANCH   9  25
TORSDOF 9
ENDMDL
MODEL 6
REMARK VINA RESULT:     -10.1      9.086     13.670
REMARK  Name = 9910098
REMARK  9 active torsions:
REMARK  status: ('A' for Active; 'I' for Inactive)
REMARK    1  A    between atoms: N_1  and  C1*_12
REMARK    2  A    between atoms: C_9  and  O_25
REMARK    3  A    between atoms: C2*_11  and  O2*_15
REMARK    4  A    between atoms: C3*_13  and  O3*_17
REMARK    5  A    between atoms: C4*_14  and  C5*_19
REMARK    6  A    between atoms: C5*_19  and  O5*_20
REMARK    7  A    between atoms: O_25  and  C_26
REMARK    8  A    between atoms: C_26  and  C_27
REMARK    9  A    between atoms: C_27  and  C_29
REMARK                            x       y       z     vdW  Elec       q    Type
REMARK                         _______ _______ _______ _____ _____    ______ ____
ROOT
ATOM      1  N   UNL     1      31.924 -10.320 -21.897  0.00  0.00    -0.236 N 
ATOM      2  N   UNL     1      31.571 -11.471 -20.018  0.00  0.00    -0.240 NA
ATOM      3  N   UNL     1      32.888 -12.070 -23.280  0.00  0.00    -0.294 NA
ATOM      4  N   UNL     1      33.031 -14.183 -22.066  0.00  0.00    -0.295 NA
ATOM      5  C   UNL     1      32.357 -11.594 -22.143  0.00  0.00    +0.223 C 
ATOM      6  C   UNL     1      31.462 -10.298 -20.606  0.00  0.00    +0.224 C 
ATOM      7  C   UNL     1      32.128 -12.290 -20.967  0.00  0.00    +0.167 C 
ATOM      8  C   UNL     1      32.488 -13.634 -20.953  0.00  0.00    +0.214 C 
ATOM      9  C   UNL     1      33.195 -13.378 -23.144  0.00  0.00    +0.313 C 
ATOM     10  N   UNL     1      32.294 -14.416 -19.801  0.00  0.00    -0.331 N 
ATOM     11  H   UNL     1      32.552 -15.366 -19.803  0.00  0.00    +0.145 HD
ATOM     12  H   UNL     1      31.899 -14.014 -18.994  0.00  0.00    +0.145 HD
ENDROOT
BRANCH   1  15
ATOM     13  O4* UNL     1      33.244  -9.123 -23.465  0.00  0.00    -0.333 OA
ATOM     14  C2* UNL     1      31.701  -7.838 -22.152  0.00  0.00    +0.187 C 
ATOM     15  C1* UNL     1      31.952  -9.188 -22.824  0.00  0.00    +0.226 C 
ATOM     16  C3* UNL     1      33.090  -7.235 -22.077  0.00  0.00    +0.171 C 
ATOM     17  C4* UNL     1      33.748  -7.785 -23.330  0.00  0.00    +0.175 C 
BRANCH  14  18
ATOM     18  O2* UNL     1      30.841  -7.054 -22.978  0.00  0.00    -0.378 OA
ATOM     19  H2* UNL     1      30.904  -6.121 -22.717  0.00  0.00    +0.211 HD
ENDBRANCH  14  18
BRANCH  16  20
ATOM     20  O3* UNL     1      33.091  -5.824 -22.051  0.00  0.00    -0.379 OA
ATOM     21  H3* UNL     1      33.861  -5.510 -21.552  0.00  0.00    +0.211 HD
ENDBRANCH  16  20
BRANCH  17  22
ATOM     22  C5* UNL     1      35.264  -7.811 -23.256  0.00  0.00    +0.169 C 
BRANCH  22  23
ATOM     23  O5* UNL     1      35.713  -9.112 -23.594  0.00  0.00    -0.379 OA
ATOM     24  H5* UNL     1      36.514  -9.320 -23.089  0.00  0.00    +0.211 HD
ENDBRANCH  22  23
ENDBRANCH  17  22
ENDBRANCH   1  15
BRANCH   9  25
ATOM     25  O   UNL     1      33.746 -13.979 -24.255  0.00  0.00    -0.399 OA
BRANCH  25  26
ATOM     26  C   UNL     1      33.518 -15.373 -24.399  0.00  0.00    +0.227 C 
BRANCH  26  27
ATOM     27  C   UNL     1      34.852 -16.110 -24.455  0.00  0.00    +0.075 C 
BRANCH  27  29
ATOM     28 CL   UNL     1      35.265 -20.419 -20.298  0.00  0.00    -0.082 Cl
ATOM     29  C   UNL     1      34.954 -17.193 -23.410  0.00  0.00    -0.018 C 
ATOM     30  C   UNL     1      35.447 -16.879 -22.153  0.00  0.00    -0.003 C 
ATOM     31  C   UNL     1      34.555 -18.482 -23.725  0.00  0.00    -0.003 C 
ATOM     32  C   UNL     1      35.543 -17.881 -21.187  0.00  0.00    +0.011 C 
ATOM     33  C   UNL     1      34.651 -19.484 -22.759  0.00  0.00    +0.011 C 
ATOM     34  C   UNL     1      35.145 -19.183 -21.490  0.00  0.00    +0.058 C 
ENDBRANCH  27  29
ENDBRANCH  26  27
ENDBRANCH  25  26
ENDBRANCH   9  25
TORSDOF 9
ENDMDL
MODEL 7
REMARK VINA RESULT:     -10.0      4.018      6.279
REMARK  Name = 9910098
REMARK  9 active torsions:
REMARK  status: ('A' for Active; 'I' for Inactive)
REMARK    1  A    between atoms: N_1  and  C1*_12
REMARK    2  A    between atoms: C_9  and  O_25
REMARK    3  A    between atoms: C2*_11  and  O2*_15
REMARK    4  A    between atoms: C3*_13  and  O3*_17
REMARK    5  A    between atoms: C4*_14  and  C5*_19
REMARK    6  A    between atoms: C5*_19  and  O5*_20
REMARK    7  A    between atoms: O_25  and  C_26
REMARK    8  A    between atoms: C_26  and  C_27
REMARK    9  A    between atoms: C_27  and  C_29
REMARK                            x       y       z     vdW  Elec       q    Type
REMARK                         _______ _______ _______ _____ _____    ______ ____
ROOT
ATOM      1  N   UNL     1      36.593 -22.980 -14.976  0.00  0.00    -0.236 N 
ATOM      2  N   UNL     1      36.955 -22.035 -16.965  0.00  0.00    -0.240 NA
ATOM      3  N   UNL     1      34.234 -23.522 -15.199  0.00  0.00    -0.294 NA
ATOM      4  N   UNL     1      33.366 -22.831 -17.373  0.00  0.00    -0.295 NA
ATOM      5  C   UNL     1      35.398 -23.020 -15.640  0.00  0.00    +0.223 C 
ATOM      6  C   UNL     1      37.495 -22.378 -15.815  0.00  0.00    +0.224 C 
ATOM      7  C   UNL     1      35.644 -22.431 -16.870  0.00  0.00    +0.167 C 
ATOM      8  C   UNL     1      34.572 -22.345 -17.753  0.00  0.00    +0.214 C 
ATOM      9  C   UNL     1      33.274 -23.381 -16.138  0.00  0.00    +0.313 C 
ATOM     10  N   UNL     1      34.731 -21.760 -19.021  0.00  0.00    -0.331 N 
ATOM     11  H   UNL     1      33.965 -21.705 -19.636  0.00  0.00    +0.145 HD
ATOM     12  H   UNL     1      35.609 -21.407 -19.293  0.00  0.00    +0.145 HD
ENDROOT
BRANCH   1  15
ATOM     13  O4* UNL     1      38.272 -23.759 -13.490  0.00  0.00    -0.333 OA
ATOM     14  C2* UNL     1      36.098 -24.751 -13.275  0.00  0.00    +0.187 C 
ATOM     15  C1* UNL     1      36.863 -23.474 -13.626  0.00  0.00    +0.226 C 
ATOM     16  C3* UNL     1      37.161 -25.826 -13.398  0.00  0.00    +0.171 C 
ATOM     17  C4* UNL     1      38.416 -25.088 -12.966  0.00  0.00    +0.175 C 
BRANCH  14  18
ATOM     18  O2* UNL     1      35.612 -24.655 -11.936  0.00  0.00    -0.378 OA
ATOM     19  H2* UNL     1      34.645 -24.587 -11.948  0.00  0.00    +0.211 HD
ENDBRANCH  14  18
BRANCH  16  20
ATOM     20  O3* UNL     1      36.909 -26.961 -12.598  0.00  0.00    -0.379 OA
ATOM     21  H3* UNL     1      36.756 -26.683 -11.682  0.00  0.00    +0.211 HD
ENDBRANCH  16  20
BRANCH  17  22
ATOM     22  C5* UNL     1      39.696 -25.713 -13.493  0.00  0.00    +0.169 C 
BRANCH  22  23
ATOM     23  O5* UNL     1      39.366 -26.890 -14.209  0.00  0.00    -0.379 OA
ATOM     24  H5* UNL     1      40.082 -27.537 -14.116  0.00  0.00    +0.211 HD
ENDBRANCH  22  23
ENDBRANCH  17  22
ENDBRANCH   1  15
BRANCH   9  25
ATOM     25  O   UNL     1      32.031 -23.868 -15.796  0.00  0.00    -0.399 OA
BRANCH  25  26
ATOM     26  C   UNL     1      31.875 -24.323 -14.460  0.00  0.00    +0.227 C 
BRANCH  26  27
ATOM     27  C   UNL     1      30.470 -24.883 -14.267  0.00  0.00    +0.075 C 
BRANCH  27  29
ATOM     28 CL   UNL     1      26.302 -21.639 -17.118  0.00  0.00    -0.082 Cl
ATOM     29  C   UNL     1      29.423 -24.067 -14.986  0.00  0.00    -0.018 C 
ATOM     30  C   UNL     1      29.075 -22.821 -14.489  0.00  0.00    -0.003 C 
ATOM     31  C   UNL     1      28.828 -24.579 -16.128  0.00  0.00    -0.003 C 
ATOM     32  C   UNL     1      28.107 -22.067 -15.151  0.00  0.00    +0.011 C 
ATOM     33  C   UNL     1      27.858 -23.825 -16.790  0.00  0.00    +0.011 C 
ATOM     34  C   UNL     1      27.499 -22.569 -16.302  0.00  0.00    +0.058 C 
ENDBRANCH  27  29
ENDBRANCH  26  27
ENDBRANCH  25  26
ENDBRANCH   9  25
TORSDOF 9
ENDMDL
MODEL 8
REMARK VINA RESULT:     -10.0      6.303     11.419
REMARK  Name = 9910098
REMARK  9 active torsions:
REMARK  status: ('A' for Active; 'I' for Inactive)
REMARK    1  A    between atoms: N_1  and  C1*_12
REMARK    2  A    between atoms: C_9  and  O_25
REMARK    3  A    between atoms: C2*_11  and  O2*_15
REMARK    4  A    between atoms: C3*_13  and  O3*_17
REMARK    5  A    between atoms: C4*_14  and  C5*_19
REMARK    6  A    between atoms: C5*_19  and  O5*_20
REMARK    7  A    between atoms: O_25  and  C_26
REMARK    8  A    between atoms: C_26  and  C_27
REMARK    9  A    between atoms: C_27  and  C_29
REMARK                            x       y       z     vdW  Elec       q    Type
REMARK                         _______ _______ _______ _____ _____    ______ ____
ROOT
ATOM      1  N   UNL     1      34.347 -15.008 -23.602  0.00  0.00    -0.236 N 
ATOM      2  N   UNL     1      33.765 -16.510 -25.146  0.00  0.00    -0.240 NA
ATOM      3  N   UNL     1      35.295 -16.486 -21.923  0.00  0.00    -0.294 NA
ATOM      4  N   UNL     1      35.193 -18.819 -22.634  0.00  0.00    -0.295 NA
ATOM      5  C   UNL     1      34.708 -16.228 -23.101  0.00  0.00    +0.223 C 
ATOM      6  C   UNL     1      33.784 -15.232 -24.832  0.00  0.00    +0.224 C 
ATOM      7  C   UNL     1      34.340 -17.144 -24.073  0.00  0.00    +0.167 C 
ATOM      8  C   UNL     1      34.603 -18.484 -23.806  0.00  0.00    +0.214 C 
ATOM      9  C   UNL     1      35.497 -17.813 -21.777  0.00  0.00    +0.313 C 
ATOM     10  N   UNL     1      34.260 -19.482 -24.735  0.00  0.00    -0.331 N 
ATOM     11  H   UNL     1      34.451 -20.426 -24.535  0.00  0.00    +0.145 HD
ATOM     12  H   UNL     1      33.831 -19.235 -25.586  0.00  0.00    +0.145 HD
ENDROOT
BRANCH   1  15
ATOM     13  O4* UNL     1      33.913 -13.741 -21.641  0.00  0.00    -0.333 OA
ATOM     14  C2* UNL     1      33.881 -12.549 -23.724  0.00  0.00    +0.187 C 
ATOM     15  C1* UNL     1      34.516 -13.707 -22.953  0.00  0.00    +0.226 C 
ATOM     16  C3* UNL     1      32.613 -12.275 -22.937  0.00  0.00    +0.171 C 
ATOM     17  C4* UNL     1      33.037 -12.609 -21.517  0.00  0.00    +0.175 C 
BRANCH  14  18
ATOM     18  O2* UNL     1      34.761 -11.426 -23.694  0.00  0.00    -0.378 OA
ATOM     19  H2* UNL     1      34.246 -10.610 -23.802  0.00  0.00    +0.211 HD
ENDBRANCH  14  18
BRANCH  16  20
ATOM     20  O3* UNL     1      32.153 -10.946 -23.056  0.00  0.00    -0.379 OA
ATOM     21  H3* UNL     1      32.895 -10.367 -23.289  0.00  0.00    +0.211 HD
ENDBRANCH  16  20
BRANCH  17  22
ATOM     22  C5* UNL     1      31.874 -12.957 -20.605  0.00  0.00    +0.169 C 
BRANCH  22  23
ATOM     23  O5* UNL     1      30.753 -12.178 -20.983  0.00  0.00    -0.379 OA
ATOM     24  H5* UNL     1      31.045 -11.433 -21.532  0.00  0.00    +0.211 HD
ENDBRANCH  22  23
ENDBRANCH  17  22
ENDBRANCH   1  15
BRANCH   9  25
ATOM     25  O   UNL     1      36.102 -18.198 -20.600  0.00  0.00    -0.399 OA
BRANCH  25  26
ATOM     26  C   UNL     1      36.481 -19.562 -20.500  0.00  0.00    +0.227 C 
BRANCH  26  27
ATOM     27  C   UNL     1      35.239 -20.432 -20.345  0.00  0.00    +0.075 C 
BRANCH  27  29
ATOM     28 CL   UNL     1      35.308 -23.622 -15.261  0.00  0.00    -0.082 Cl
ATOM     29  C   UNL     1      35.257 -21.236 -19.067  0.00  0.00    -0.018 C 
ATOM     30  C   UNL     1      34.128 -21.950 -18.698  0.00  0.00    -0.003 C 
ATOM     31  C   UNL     1      36.401 -21.244 -18.285  0.00  0.00    -0.003 C 
ATOM     32  C   UNL     1      34.144 -22.692 -17.517  0.00  0.00    +0.011 C 
ATOM     33  C   UNL     1      36.417 -21.985 -17.103  0.00  0.00    +0.011 C 
ATOM     34  C   UNL     1      35.288 -22.709 -16.720  0.00  0.00    +0.058 C 
ENDBRANCH  27  29
ENDBRANCH  26  27
ENDBRANCH  25  26
ENDBRANCH   9  25
TORSDOF 9
ENDMDL
MODEL 9
REMARK VINA RESULT:      -9.7      2.856      4.851
REMARK  Name = 9910098
REMARK  9 active torsions:
REMARK  status: ('A' for Active; 'I' for Inactive)
REMARK    1  A    between atoms: N_1  and  C1*_12
REMARK    2  A    between atoms: C_9  and  O_25
REMARK    3  A    between atoms: C2*_11  and  O2*_15
REMARK    4  A    between atoms: C3*_13  and  O3*_17
REMARK    5  A    between atoms: C4*_14  and  C5*_19
REMARK    6  A    between atoms: C5*_19  and  O5*_20
REMARK    7  A    between atoms: O_25  and  C_26
REMARK    8  A    between atoms: C_26  and  C_27
REMARK    9  A    between atoms: C_27  and  C_29
REMARK                            x       y       z     vdW  Elec       q    Type
REMARK                         _______ _______ _______ _____ _____    ______ ____
ROOT
ATOM      1  N   UNL     1      34.070 -23.476 -13.978  0.00  0.00    -0.236 N 
ATOM      2  N   UNL     1      35.375 -24.673 -12.620  0.00  0.00    -0.240 NA
ATOM      3  N   UNL     1      35.747 -22.615 -15.512  0.00  0.00    -0.294 NA
ATOM      4  N   UNL     1      37.981 -23.399 -14.916  0.00  0.00    -0.295 NA
ATOM      5  C   UNL     1      35.345 -23.330 -14.449  0.00  0.00    +0.223 C 
ATOM      6  C   UNL     1      34.142 -24.291 -12.878  0.00  0.00    +0.224 C 
ATOM      7  C   UNL     1      36.138 -24.079 -13.595  0.00  0.00    +0.167 C 
ATOM      8  C   UNL     1      37.504 -24.099 -13.858  0.00  0.00    +0.214 C 
ATOM      9  C   UNL     1      37.085 -22.710 -15.665  0.00  0.00    +0.313 C 
ATOM     10  N   UNL     1      38.382 -24.831 -13.041  0.00  0.00    -0.331 N 
ATOM     11  H   UNL     1      39.347 -24.837 -13.238  0.00  0.00    +0.145 HD
ATOM     12  H   UNL     1      38.032 -25.338 -12.273  0.00  0.00    +0.145 HD
ENDROOT
BRANCH   1  15
ATOM     13  O4* UNL     1      31.854 -22.773 -13.496  0.00  0.00    -0.333 OA
ATOM     14  C2* UNL     1      32.247 -23.672 -15.686  0.00  0.00    +0.187 C 
ATOM     15  C1* UNL     1      32.855 -22.875 -14.531  0.00  0.00    +0.226 C 
ATOM     16  C3* UNL     1      31.068 -24.366 -15.032  0.00  0.00    +0.171 C 
ATOM     17  C4* UNL     1      30.635 -23.352 -13.988  0.00  0.00    +0.175 C 
BRANCH  14  18
ATOM     18  O2* UNL     1      31.816 -22.770 -16.704  0.00  0.00    -0.378 OA
ATOM     19  H2* UNL     1      31.535 -21.934 -16.298  0.00  0.00    +0.211 HD
ENDBRANCH  14  18
BRANCH  16  20
ATOM     20  O3* UNL     1      30.028 -24.679 -15.933  0.00  0.00    -0.379 OA
ATOM     21  H3* UNL     1      29.894 -25.639 -15.952  0.00  0.00    +0.211 HD
ENDBRANCH  16  20
BRANCH  17  22
ATOM     22  C5* UNL     1      29.855 -23.963 -12.837  0.00  0.00    +0.169 C 
BRANCH  22  23
ATOM     23  O5* UNL     1      30.591 -25.058 -12.321  0.00  0.00    -0.379 OA
ATOM     24  H5* UNL     1      30.487 -25.824 -12.906  0.00  0.00    +0.211 HD
ENDBRANCH  22  23
ENDBRANCH  17  22
ENDBRANCH   1  15
BRANCH   9  25
ATOM     25  O   UNL     1      37.613 -22.017 -16.733  0.00  0.00    -0.399 OA
BRANCH  25  26
ATOM     26  C   UNL     1      36.750 -21.089 -17.373  0.00  0.00    +0.227 C 
BRANCH  26  27
ATOM     27  C   UNL     1      36.292 -21.651 -18.715  0.00  0.00    +0.075 C 
BRANCH  27  29
ATOM     28 CL   UNL     1      35.254 -17.348 -22.768  0.00  0.00    -0.082 Cl
ATOM     29  C   UNL     1      36.031 -20.568 -19.732  0.00  0.00    -0.018 C 
ATOM     30  C   UNL     1      34.769 -20.455 -20.294  0.00  0.00    -0.003 C 
ATOM     31  C   UNL     1      37.058 -19.708 -20.088  0.00  0.00    -0.003 C 
ATOM     32  C   UNL     1      34.528 -19.454 -21.236  0.00  0.00    +0.011 C 
ATOM     33  C   UNL     1      36.817 -18.708 -21.031  0.00  0.00    +0.011 C 
ATOM     34  C   UNL     1      35.551 -18.581 -21.604  0.00  0.00    +0.058 C 
ENDBRANCH  27  29
ENDBRANCH  26  27
ENDBRANCH  25  26
ENDBRANCH   9  25
TORSDOF 9
ENDMDL
