MODEL 1
REMARK VINA RESULT:     -11.7      0.000      0.000
REMARK  Name = 15985904
REMARK  7 active torsions:
REMARK  status: ('A' for Active; 'I' for Inactive)
REMARK    1  A    between atoms: N_1  and  S_6
REMARK    2  A    between atoms: C_4  and  C_21
REMARK    3  A    between atoms: S_6  and  C_9
REMARK    4  A    between atoms: C_10  and  C_17
REMARK    5  A    between atoms: C_22  and  C_25
REMARK    6  A    between atoms: N_24  and  C_27
REMARK    7  A    between atoms: C_28  and  N_33
REMARK                            x       y       z     vdW  Elec       q    Type
REMARK                         _______ _______ _______ _____ _____    ______ ____
ROOT
ATOM      1  N   UNL     1      35.303 -19.692 -20.832  0.00  0.00    -0.167 N 
ATOM      2  C   UNL     1      35.853 -20.480 -19.906  0.00  0.00    +0.089 C 
ATOM      3  C   UNL     1      33.972 -19.749 -20.879  0.00  0.00    +0.089 C 
ATOM      4  C   UNL     1      34.797 -21.112 -19.287  0.00  0.00    +0.018 C 
ATOM      5  C   UNL     1      33.607 -20.649 -19.903  0.00  0.00    +0.019 C 
ENDROOT
BRANCH   1   6
ATOM      6  S   UNL     1      36.238 -18.685 -21.881  0.00  0.00    +0.080 S 
ATOM      7  O   UNL     1      36.112 -19.350 -23.165  0.00  0.00    -0.149 OA
ATOM      8  O   UNL     1      37.517 -18.503 -21.221  0.00  0.00    -0.149 OA
BRANCH   6   9
ATOM      9  C   UNL     1      35.414 -17.146 -21.909  0.00  0.00    +0.126 C 
ATOM     10  C   UNL     1      34.100 -14.685 -21.955  0.00  0.00    +0.003 C 
ATOM     11  C   UNL     1      35.041 -16.577 -23.127  0.00  0.00    +0.020 C 
ATOM     12  C   UNL     1      35.130 -16.484 -20.715  0.00  0.00    +0.020 C 
ATOM     13  C   UNL     1      34.385 -15.347 -23.150  0.00  0.00    +0.001 C 
ATOM     14  C   UNL     1      34.473 -15.254 -20.738  0.00  0.00    +0.001 C 
BRANCH  10  17
ATOM     15  N   UNL     1      32.757 -11.451 -22.635  0.00  0.00    -0.208 N 
ATOM     16  N   UNL     1      32.120 -11.623 -21.464  0.00  0.00    -0.176 NA
ATOM     17  C   UNL     1      33.424 -13.419 -21.979  0.00  0.00    +0.037 C 
ATOM     18  C   UNL     1      33.551 -12.501 -22.990  0.00  0.00    +0.086 C 
ATOM     19  C   UNL     1      32.534 -12.829 -21.069  0.00  0.00    +0.119 C 
ATOM     20  C   UNL     1      32.559 -10.234 -23.386  0.00  0.00    +0.140 C 
ENDBRANCH  10  17
ENDBRANCH   6   9
ENDBRANCH   1   6
BRANCH   4  21
ATOM     21  C   UNL     1      34.914 -22.043 -18.235  0.00  0.00    +0.006 C 
ATOM     22  C   UNL     1      35.778 -22.024 -17.180  0.00  0.00    +0.058 C 
BRANCH  22  25
ATOM     23  O   UNL     1      34.847 -23.906 -16.066  0.00  0.00    -0.270 OA
ATOM     24  N   UNL     1      36.902 -23.033 -15.342  0.00  0.00    -0.279 N 
ATOM     25  C   UNL     1      35.769 -23.102 -16.141  0.00  0.00    +0.250 C 
ATOM     26  H   UNL     1      37.541 -22.313 -15.552  0.00  0.00    +0.155 HD
BRANCH  24  27
ATOM     27  C   UNL     1      37.243 -23.880 -14.259  0.00  0.00    +0.064 C 
ATOM     28  C   UNL     1      36.437 -23.936 -13.134  0.00  0.00    +0.055 C 
ATOM     29  C   UNL     1      38.394 -24.643 -14.360  0.00  0.00    +0.016 C 
ATOM     30  C   UNL     1      36.793 -24.777 -12.080  0.00  0.00    +0.015 C 
ATOM     31  C   UNL     1      38.751 -25.485 -13.306  0.00  0.00    +0.001 C 
ATOM     32  C   UNL     1      37.950 -25.552 -12.166  0.00  0.00    +0.001 C 
BRANCH  28  33
ATOM     33  N   UNL     1      35.260 -23.162 -13.025  0.00  0.00    -0.356 N 
ATOM     34  H   UNL     1      34.565 -23.413 -12.374  0.00  0.00    +0.142 HD
ATOM     35  H   UNL     1      35.135 -22.372 -13.598  0.00  0.00    +0.142 HD
ENDBRANCH  28  33
ENDBRANCH  24  27
ENDBRANCH  22  25
ENDBRANCH   4  21
TORSDOF 7
ENDMDL
MODEL 2
REMARK VINA RESULT:     -11.7      2.649      3.471
REMARK  Name = 15985904
REMARK  7 active torsions:
REMARK  status: ('A' for Active; 'I' for Inactive)
REMARK    1  A    between atoms: N_1  and  S_6
REMARK    2  A    between atoms: C_4  and  C_21
REMARK    3  A    between atoms: S_6  and  C_9
REMARK    4  A    between atoms: C_10  and  C_17
REMARK    5  A    between atoms: C_22  and  C_25
REMARK    6  A    between atoms: N_24  and  C_27
REMARK    7  A    between atoms: C_28  and  N_33
REMARK                            x       y       z     vdW  Elec       q    Type
REMARK                         _______ _______ _______ _____ _____    ______ ____
ROOT
ATOM      1  N   UNL     1      34.733 -19.589 -20.821  0.00  0.00    -0.167 N 
ATOM      2  C   UNL     1      34.888 -20.366 -19.749  0.00  0.00    +0.089 C 
ATOM      3  C   UNL     1      33.503 -19.602 -21.334  0.00  0.00    +0.089 C 
ATOM      4  C   UNL     1      33.656 -20.943 -19.532  0.00  0.00    +0.018 C 
ATOM      5  C   UNL     1      32.779 -20.459 -20.535  0.00  0.00    +0.019 C 
ENDROOT
BRANCH   1   6
ATOM      6  S   UNL     1      36.019 -18.646 -21.490  0.00  0.00    +0.080 S 
ATOM      7  O   UNL     1      36.317 -19.340 -22.730  0.00  0.00    -0.149 OA
ATOM      8  O   UNL     1      36.995 -18.497 -20.427  0.00  0.00    -0.149 OA
BRANCH   6   9
ATOM      9  C   UNL     1      35.327 -17.078 -21.821  0.00  0.00    +0.126 C 
ATOM     10  C   UNL     1      34.221 -14.572 -22.351  0.00  0.00    +0.003 C 
ATOM     11  C   UNL     1      34.987 -16.229 -20.768  0.00  0.00    +0.020 C 
ATOM     12  C   UNL     1      35.114 -16.673 -23.139  0.00  0.00    +0.020 C 
ATOM     13  C   UNL     1      34.434 -14.977 -21.033  0.00  0.00    +0.001 C 
ATOM     14  C   UNL     1      34.561 -15.421 -23.404  0.00  0.00    +0.001 C 
BRANCH  10  17
ATOM     15  N   UNL     1      32.349 -11.540 -22.510  0.00  0.00    -0.208 N 
ATOM     16  N   UNL     1      33.216 -11.219 -23.485  0.00  0.00    -0.176 NA
ATOM     17  C   UNL     1      33.651 -13.282 -22.623  0.00  0.00    +0.037 C 
ATOM     18  C   UNL     1      32.567 -12.768 -21.960  0.00  0.00    +0.086 C 
ATOM     19  C   UNL     1      34.010 -12.290 -23.548  0.00  0.00    +0.119 C 
ATOM     20  C   UNL     1      31.310 -10.608 -22.141  0.00  0.00    +0.140 C 
ENDBRANCH  10  17
ENDBRANCH   6   9
ENDBRANCH   1   6
BRANCH   4  21
ATOM     21  C   UNL     1      33.356 -21.845 -18.490  0.00  0.00    +0.006 C 
ATOM     22  C   UNL     1      34.220 -22.574 -17.727  0.00  0.00    +0.058 C 
BRANCH  22  25
ATOM     23  O   UNL     1      34.446 -24.373 -16.189  0.00  0.00    -0.270 OA
ATOM     24  N   UNL     1      32.419 -23.194 -16.302  0.00  0.00    -0.279 N 
ATOM     25  C   UNL     1      33.729 -23.493 -16.652  0.00  0.00    +0.250 C 
ATOM     26  H   UNL     1      31.998 -22.446 -16.785  0.00  0.00    +0.155 HD
BRANCH  24  27
ATOM     27  C   UNL     1      31.620 -23.843 -15.328  0.00  0.00    +0.064 C 
ATOM     28  C   UNL     1      32.001 -23.841 -13.996  0.00  0.00    +0.055 C 
ATOM     29  C   UNL     1      30.458 -24.471 -15.744  0.00  0.00    +0.016 C 
ATOM     30  C   UNL     1      31.199 -24.486 -13.055  0.00  0.00    +0.015 C 
ATOM     31  C   UNL     1      29.656 -25.117 -14.804  0.00  0.00    +0.001 C 
ATOM     32  C   UNL     1      30.026 -25.125 -13.459  0.00  0.00    +0.001 C 
BRANCH  28  33
ATOM     33  N   UNL     1      33.184 -23.200 -13.563  0.00  0.00    -0.356 N 
ATOM     34  H   UNL     1      33.158 -22.255 -13.289  0.00  0.00    +0.142 HD
ATOM     35  H   UNL     1      34.032 -23.698 -13.536  0.00  0.00    +0.142 HD
ENDBRANCH  28  33
ENDBRANCH  24  27
ENDBRANCH  22  25
ENDBRANCH   4  21
TORSDOF 7
ENDMDL
MODEL 3
REMARK VINA RESULT:     -11.5      2.513     12.222
REMARK  Name = 15985904
REMARK  7 active torsions:
REMARK  status: ('A' for Active; 'I' for Inactive)
REMARK    1  A    between atoms: N_1  and  S_6
REMARK    2  A    between atoms: C_4  and  C_21
REMARK    3  A    between atoms: S_6  and  C_9
REMARK    4  A    between atoms: C_10  and  C_17
REMARK    5  A    between atoms: C_22  and  C_25
REMARK    6  A    between atoms: N_24  and  C_27
REMARK    7  A    between atoms: C_28  and  N_33
REMARK                            x       y       z     vdW  Elec       q    Type
REMARK                         _______ _______ _______ _____ _____    ______ ____
ROOT
ATOM      1  N   UNL     1      35.144 -16.972 -21.807  0.00  0.00    -0.167 N 
ATOM      2  C   UNL     1      34.874 -15.972 -22.646  0.00  0.00    +0.089 C 
ATOM      3  C   UNL     1      35.048 -16.646 -20.518  0.00  0.00    +0.089 C 
ATOM      4  C   UNL     1      34.573 -14.892 -21.847  0.00  0.00    +0.018 C 
ATOM      5  C   UNL     1      34.683 -15.318 -20.500  0.00  0.00    +0.019 C 
ENDROOT
BRANCH   1   6
ATOM      6  S   UNL     1      35.583 -18.555 -22.344  0.00  0.00    +0.080 S 
ATOM      7  O   UNL     1      37.026 -18.467 -22.469  0.00  0.00    -0.149 OA
ATOM      8  O   UNL     1      34.720 -18.844 -23.474  0.00  0.00    -0.149 OA
BRANCH   6   9
ATOM      9  C   UNL     1      35.150 -19.631 -21.038  0.00  0.00    +0.126 C 
ATOM     10  C   UNL     1      34.460 -21.347 -18.950  0.00  0.00    +0.003 C 
ATOM     11  C   UNL     1      33.810 -19.930 -20.796  0.00  0.00    +0.020 C 
ATOM     12  C   UNL     1      36.146 -20.190 -20.236  0.00  0.00    +0.020 C 
ATOM     13  C   UNL     1      33.465 -20.788 -19.752  0.00  0.00    +0.001 C 
ATOM     14  C   UNL     1      35.801 -21.048 -19.192  0.00  0.00    +0.001 C 
BRANCH  10  17
ATOM     15  N   UNL     1      34.263 -23.487 -16.103  0.00  0.00    -0.208 N 
ATOM     16  N   UNL     1      32.966 -23.587 -16.441  0.00  0.00    -0.176 NA
ATOM     17  C   UNL     1      34.105 -22.231 -17.875  0.00  0.00    +0.037 C 
ATOM     18  C   UNL     1      34.990 -22.684 -16.931  0.00  0.00    +0.086 C 
ATOM     19  C   UNL     1      32.877 -22.815 -17.527  0.00  0.00    +0.119 C 
ATOM     20  C   UNL     1      34.758 -24.199 -14.948  0.00  0.00    +0.140 C 
ENDBRANCH  10  17
ENDBRANCH   6   9
ENDBRANCH   1   6
BRANCH   4  21
ATOM     21  C   UNL     1      34.222 -13.609 -22.317  0.00  0.00    +0.006 C 
ATOM     22  C   UNL     1      33.070 -12.913 -22.097  0.00  0.00    +0.058 C 
BRANCH  22  25
ATOM     23  O   UNL     1      33.276 -11.257 -23.791  0.00  0.00    -0.270 OA
ATOM     24  N   UNL     1      32.159 -10.737 -21.792  0.00  0.00    -0.279 N 
ATOM     25  C   UNL     1      32.858 -11.548 -22.676  0.00  0.00    +0.250 C 
ATOM     26  H   UNL     1      31.903 -11.145 -20.933  0.00  0.00    +0.155 HD
BRANCH  24  27
ATOM     27  C   UNL     1      31.774  -9.387 -21.987  0.00  0.00    +0.064 C 
ATOM     28  C   UNL     1      31.999  -8.445 -20.996  0.00  0.00    +0.055 C 
ATOM     29  C   UNL     1      31.173  -9.042 -23.186  0.00  0.00    +0.016 C 
ATOM     30  C   UNL     1      31.610  -7.123 -21.210  0.00  0.00    +0.015 C 
ATOM     31  C   UNL     1      30.785  -7.720 -23.401  0.00  0.00    +0.001 C 
ATOM     32  C   UNL     1      31.003  -6.760 -22.412  0.00  0.00    +0.001 C 
BRANCH  28  33
ATOM     33  N   UNL     1      32.613  -8.789 -19.771  0.00  0.00    -0.356 N 
ATOM     34  H   UNL     1      33.528  -9.154 -19.766  0.00  0.00    +0.142 HD
ATOM     35  H   UNL     1      32.127  -8.665 -18.925  0.00  0.00    +0.142 HD
ENDBRANCH  28  33
ENDBRANCH  24  27
ENDBRANCH  22  25
ENDBRANCH   4  21
TORSDOF 7
ENDMDL
MODEL 4
REMARK VINA RESULT:     -10.4      4.078     13.146
REMARK  Name = 15985904
REMARK  7 active torsions:
REMARK  status: ('A' for Active; 'I' for Inactive)
REMARK    1  A    between atoms: N_1  and  S_6
REMARK    2  A    between atoms: C_4  and  C_21
REMARK    3  A    between atoms: S_6  and  C_9
REMARK    4  A    between atoms: C_10  and  C_17
REMARK    5  A    between atoms: C_22  and  C_25
REMARK    6  A    between atoms: N_24  and  C_27
REMARK    7  A    between atoms: C_28  and  N_33
REMARK                            x       y       z     vdW  Elec       q    Type
REMARK                         _______ _______ _______ _____ _____    ______ ____
ROOT
ATOM      1  N   UNL     1      34.164 -14.784 -23.643  0.00  0.00    -0.167 N 
ATOM      2  C   UNL     1      33.576 -13.741 -24.230  0.00  0.00    +0.089 C 
ATOM      3  C   UNL     1      34.479 -14.588 -22.363  0.00  0.00    +0.089 C 
ATOM      4  C   UNL     1      33.494 -12.770 -23.256  0.00  0.00    +0.018 C 
ATOM      5  C   UNL     1      34.065 -13.306 -22.074  0.00  0.00    +0.019 C 
ENDROOT
BRANCH   1   6
ATOM      6  S   UNL     1      34.489 -16.266 -24.473  0.00  0.00    +0.080 S 
ATOM      7  O   UNL     1      35.739 -15.985 -25.157  0.00  0.00    -0.149 OA
ATOM      8  O   UNL     1      33.270 -16.598 -25.185  0.00  0.00    -0.149 OA
BRANCH   6   9
ATOM      9  C   UNL     1      34.735 -17.460 -23.223  0.00  0.00    +0.126 C 
ATOM     10  C   UNL     1      35.125 -19.367 -21.225  0.00  0.00    +0.003 C 
ATOM     11  C   UNL     1      34.322 -18.776 -23.426  0.00  0.00    +0.020 C 
ATOM     12  C   UNL     1      35.343 -17.097 -22.021  0.00  0.00    +0.020 C 
ATOM     13  C   UNL     1      34.516 -19.730 -22.427  0.00  0.00    +0.001 C 
ATOM     14  C   UNL     1      35.538 -18.051 -21.022  0.00  0.00    +0.001 C 
BRANCH  10  17
ATOM     15  N   UNL     1      34.917 -21.879 -18.700  0.00  0.00    -0.208 N 
ATOM     16  N   UNL     1      36.253 -21.742 -18.650  0.00  0.00    -0.176 NA
ATOM     17  C   UNL     1      35.326 -20.349 -20.197  0.00  0.00    +0.037 C 
ATOM     18  C   UNL     1      34.312 -21.065 -19.613  0.00  0.00    +0.086 C 
ATOM     19  C   UNL     1      36.495 -20.804 -19.569  0.00  0.00    +0.119 C 
ATOM     20  C   UNL     1      34.261 -22.826 -17.831  0.00  0.00    +0.140 C 
ENDBRANCH  10  17
ENDBRANCH   6   9
ENDBRANCH   1   6
BRANCH   4  21
ATOM     21  C   UNL     1      32.936 -11.487 -23.435  0.00  0.00    +0.006 C 
ATOM     22  C   UNL     1      33.564 -10.278 -23.393  0.00  0.00    +0.058 C 
BRANCH  22  25
ATOM     23  O   UNL     1      31.979  -8.893 -24.500  0.00  0.00    -0.270 OA
ATOM     24  N   UNL     1      33.206  -8.033 -22.692  0.00  0.00    -0.279 N 
ATOM     25  C   UNL     1      32.815  -9.000 -23.609  0.00  0.00    +0.250 C 
ATOM     26  H   UNL     1      33.897  -8.301 -22.043  0.00  0.00    +0.155 HD
BRANCH  24  27
ATOM     27  C   UNL     1      32.723  -6.706 -22.584  0.00  0.00    +0.064 C 
ATOM     28  C   UNL     1      32.068  -6.291 -21.435  0.00  0.00    +0.055 C 
ATOM     29  C   UNL     1      32.924  -5.845 -23.650  0.00  0.00    +0.016 C 
ATOM     30  C   UNL     1      31.601  -4.979 -21.352  0.00  0.00    +0.015 C 
ATOM     31  C   UNL     1      32.457  -4.533 -23.567  0.00  0.00    +0.001 C 
ATOM     32  C   UNL     1      31.795  -4.100 -22.418  0.00  0.00    +0.001 C 
BRANCH  28  33
ATOM     33  N   UNL     1      31.861  -7.162 -20.343  0.00  0.00    -0.356 N 
ATOM     34  H   UNL     1      30.951  -7.306 -19.994  0.00  0.00    +0.142 HD
ATOM     35  H   UNL     1      32.625  -7.626 -19.932  0.00  0.00    +0.142 HD
ENDBRANCH  28  33
ENDBRANCH  24  27
ENDBRANCH  22  25
ENDBRANCH   4  21
TORSDOF 7
ENDMDL
MODEL 5
REMARK VINA RESULT:     -10.3      2.068      3.037
REMARK  Name = 15985904
REMARK  7 active torsions:
REMARK  status: ('A' for Active; 'I' for Inactive)
REMARK    1  A    between atoms: N_1  and  S_6
REMARK    2  A    between atoms: C_4  and  C_21
REMARK    3  A    between atoms: S_6  and  C_9
REMARK    4  A    between atoms: C_10  and  C_17
REMARK    5  A    between atoms: C_22  and  C_25
REMARK    6  A    between atoms: N_24  and  C_27
REMARK    7  A    between atoms: C_28  and  N_33
REMARK                            x       y       z     vdW  Elec       q    Type
REMARK                         _______ _______ _______ _____ _____    ______ ____
ROOT
ATOM      1  N   UNL     1      34.939 -18.271 -22.963  0.00  0.00    -0.167 N 
ATOM      2  C   UNL     1      34.323 -19.272 -22.334  0.00  0.00    +0.089 C 
ATOM      3  C   UNL     1      36.046 -17.842 -22.358  0.00  0.00    +0.089 C 
ATOM      4  C   UNL     1      35.087 -19.530 -21.217  0.00  0.00    +0.018 C 
ATOM      5  C   UNL     1      36.177 -18.625 -21.232  0.00  0.00    +0.019 C 
ENDROOT
BRANCH   1   6
ATOM      6  S   UNL     1      34.351 -17.586 -24.438  0.00  0.00    +0.080 S 
ATOM      7  O   UNL     1      33.092 -18.281 -24.638  0.00  0.00    -0.149 OA
ATOM      8  O   UNL     1      35.448 -17.678 -25.383  0.00  0.00    -0.149 OA
BRANCH   6   9
ATOM      9  C   UNL     1      34.067 -15.899 -24.092  0.00  0.00    +0.126 C 
ATOM     10  C   UNL     1      33.614 -13.202 -23.540  0.00  0.00    +0.003 C 
ATOM     11  C   UNL     1      33.367 -15.108 -25.004  0.00  0.00    +0.020 C 
ATOM     12  C   UNL     1      34.540 -15.341 -22.905  0.00  0.00    +0.020 C 
ATOM     13  C   UNL     1      33.141 -13.760 -24.728  0.00  0.00    +0.001 C 
ATOM     14  C   UNL     1      34.314 -13.992 -22.629  0.00  0.00    +0.001 C 
BRANCH  10  17
ATOM     15  N   UNL     1      32.488  -9.997 -22.453  0.00  0.00    -0.208 N 
ATOM     16  N   UNL     1      33.526  -9.541 -23.176  0.00  0.00    -0.176 NA
ATOM     17  C   UNL     1      33.381 -11.814 -23.257  0.00  0.00    +0.037 C 
ATOM     18  C   UNL     1      32.358 -11.354 -22.468  0.00  0.00    +0.086 C 
ATOM     19  C   UNL     1      34.067 -10.660 -23.664  0.00  0.00    +0.119 C 
ATOM     20  C   UNL     1      31.638  -9.063 -21.753  0.00  0.00    +0.140 C 
ENDBRANCH  10  17
ENDBRANCH   6   9
ENDBRANCH   1   6
BRANCH   4  21
ATOM     21  C   UNL     1      34.806 -20.522 -20.255  0.00  0.00    +0.006 C 
ATOM     22  C   UNL     1      35.681 -21.208 -19.466  0.00  0.00    +0.058 C 
BRANCH  22  25
ATOM     23  O   UNL     1      34.449 -23.138 -18.825  0.00  0.00    -0.270 OA
ATOM     24  N   UNL     1      35.746 -22.008 -17.227  0.00  0.00    -0.279 N 
ATOM     25  C   UNL     1      35.210 -22.238 -18.487  0.00  0.00    +0.250 C 
ATOM     26  H   UNL     1      36.344 -21.230 -17.142  0.00  0.00    +0.155 HD
BRANCH  24  27
ATOM     27  C   UNL     1      35.531 -22.767 -16.051  0.00  0.00    +0.064 C 
ATOM     28  C   UNL     1      36.606 -23.239 -15.315  0.00  0.00    +0.055 C 
ATOM     29  C   UNL     1      34.225 -23.021 -15.662  0.00  0.00    +0.016 C 
ATOM     30  C   UNL     1      36.370 -23.984 -14.160  0.00  0.00    +0.015 C 
ATOM     31  C   UNL     1      33.989 -23.766 -14.507  0.00  0.00    +0.001 C 
ATOM     32  C   UNL     1      35.061 -24.248 -13.756  0.00  0.00    +0.001 C 
BRANCH  28  33
ATOM     33  N   UNL     1      37.940 -22.982 -15.704  0.00  0.00    -0.356 N 
ATOM     34  H   UNL     1      38.684 -23.275 -15.129  0.00  0.00    +0.142 HD
ATOM     35  H   UNL     1      38.125 -22.513 -16.548  0.00  0.00    +0.142 HD
ENDBRANCH  28  33
ENDBRANCH  24  27
ENDBRANCH  22  25
ENDBRANCH   4  21
TORSDOF 7
ENDMDL
MODEL 6
REMARK VINA RESULT:     -10.2      2.479      3.626
REMARK  Name = 15985904
REMARK  7 active torsions:
REMARK  status: ('A' for Active; 'I' for Inactive)
REMARK    1  A    between atoms: N_1  and  S_6
REMARK    2  A    between atoms: C_4  and  C_21
REMARK    3  A    between atoms: S_6  and  C_9
REMARK    4  A    between atoms: C_10  and  C_17
REMARK    5  A    between atoms: C_22  and  C_25
REMARK    6  A    between atoms: N_24  and  C_27
REMARK    7  A    between atoms: C_28  and  N_33
REMARK                            x       y       z     vdW  Elec       q    Type
REMARK                         _______ _______ _______ _____ _____    ______ ____
ROOT
ATOM      1  N   UNL     1      34.607 -17.512 -23.662  0.00  0.00    -0.167 N 
ATOM      2  C   UNL     1      35.192 -17.487 -22.464  0.00  0.00    +0.089 C 
ATOM      3  C   UNL     1      34.216 -18.724 -24.056  0.00  0.00    +0.089 C 
ATOM      4  C   UNL     1      35.188 -18.794 -22.026  0.00  0.00    +0.018 C 
ATOM      5  C   UNL     1      34.571 -19.576 -23.034  0.00  0.00    +0.019 C 
ENDROOT
BRANCH   1   6
ATOM      6  S   UNL     1      34.377 -16.093 -24.622  0.00  0.00    +0.080 S 
ATOM      7  O   UNL     1      33.354 -16.504 -25.567  0.00  0.00    -0.149 OA
ATOM      8  O   UNL     1      35.703 -15.678 -25.042  0.00  0.00    -0.149 OA
BRANCH   6   9
ATOM      9  C   UNL     1      33.746 -14.884 -23.531  0.00  0.00    +0.126 C 
ATOM     10  C   UNL     1      32.740 -12.953 -21.788  0.00  0.00    +0.003 C 
ATOM     11  C   UNL     1      32.805 -13.960 -23.983  0.00  0.00    +0.020 C 
ATOM     12  C   UNL     1      34.185 -14.843 -22.207  0.00  0.00    +0.020 C 
ATOM     13  C   UNL     1      32.302 -12.995 -23.112  0.00  0.00    +0.001 C 
ATOM     14  C   UNL     1      33.682 -13.877 -21.336  0.00  0.00    +0.001 C 
BRANCH  10  17
ATOM     15  N   UNL     1      31.763 -10.877 -19.056  0.00  0.00    -0.208 N 
ATOM     16  N   UNL     1      31.181 -10.132 -20.012  0.00  0.00    -0.176 NA
ATOM     17  C   UNL     1      32.222 -11.958 -20.891  0.00  0.00    +0.037 C 
ATOM     18  C   UNL     1      32.402 -11.984 -19.532  0.00  0.00    +0.086 C 
ATOM     19  C   UNL     1      31.467 -10.800 -21.132  0.00  0.00    +0.119 C 
ATOM     20  C   UNL     1      31.672 -10.468 -17.675  0.00  0.00    +0.140 C 
ENDBRANCH  10  17
ENDBRANCH   6   9
ENDBRANCH   1   6
BRANCH   4  21
ATOM     21  C   UNL     1      35.711 -19.236 -20.793  0.00  0.00    +0.006 C 
ATOM     22  C   UNL     1      35.537 -20.445 -20.185  0.00  0.00    +0.058 C 
BRANCH  22  25
ATOM     23  O   UNL     1      37.145 -20.128 -18.462  0.00  0.00    -0.270 OA
ATOM     24  N   UNL     1      35.508 -21.794 -18.227  0.00  0.00    -0.279 N 
ATOM     25  C   UNL     1      36.170 -20.753 -18.864  0.00  0.00    +0.250 C 
ATOM     26  H   UNL     1      34.738 -22.180 -18.705  0.00  0.00    +0.155 HD
BRANCH  24  27
ATOM     27  C   UNL     1      35.815 -22.363 -16.966  0.00  0.00    +0.064 C 
ATOM     28  C   UNL     1      34.834 -23.010 -16.232  0.00  0.00    +0.055 C 
ATOM     29  C   UNL     1      37.114 -22.256 -16.495  0.00  0.00    +0.016 C 
ATOM     30  C   UNL     1      35.160 -23.562 -14.994  0.00  0.00    +0.015 C 
ATOM     31  C   UNL     1      37.440 -22.808 -15.257  0.00  0.00    +0.001 C 
ATOM     32  C   UNL     1      36.463 -23.461 -14.506  0.00  0.00    +0.001 C 
BRANCH  28  33
ATOM     33  N   UNL     1      33.508 -23.126 -16.707  0.00  0.00    -0.356 N 
ATOM     34  H   UNL     1      33.045 -23.993 -16.664  0.00  0.00    +0.142 HD
ATOM     35  H   UNL     1      33.048 -22.340 -17.080  0.00  0.00    +0.142 HD
ENDBRANCH  28  33
ENDBRANCH  24  27
ENDBRANCH  22  25
ENDBRANCH   4  21
TORSDOF 7
ENDMDL
MODEL 7
REMARK VINA RESULT:     -10.1      5.029      9.103
REMARK  Name = 15985904
REMARK  7 active torsions:
REMARK  status: ('A' for Active; 'I' for Inactive)
REMARK    1  A    between atoms: N_1  and  S_6
REMARK    2  A    between atoms: C_4  and  C_21
REMARK    3  A    between atoms: S_6  and  C_9
REMARK    4  A    between atoms: C_10  and  C_17
REMARK    5  A    between atoms: C_22  and  C_25
REMARK    6  A    between atoms: N_24  and  C_27
REMARK    7  A    between atoms: C_28  and  N_33
REMARK                            x       y       z     vdW  Elec       q    Type
REMARK                         _______ _______ _______ _____ _____    ______ ____
ROOT
ATOM      1  N   UNL     1      32.829 -11.475 -22.647  0.00  0.00    -0.167 N 
ATOM      2  C   UNL     1      32.751 -12.715 -22.165  0.00  0.00    +0.089 C 
ATOM      3  C   UNL     1      33.666 -11.339 -23.676  0.00  0.00    +0.089 C 
ATOM      4  C   UNL     1      33.607 -13.466 -22.940  0.00  0.00    +0.018 C 
ATOM      5  C   UNL     1      34.186 -12.595 -23.896  0.00  0.00    +0.019 C 
ENDROOT
BRANCH   1   6
ATOM      6  S   UNL     1      31.924 -10.155 -21.993  0.00  0.00    +0.080 S 
ATOM      7  O   UNL     1      32.398 -10.085 -20.622  0.00  0.00    -0.149 OA
ATOM      8  O   UNL     1      30.537 -10.423 -22.323  0.00  0.00    -0.149 OA
BRANCH   6   9
ATOM      9  C   UNL     1      32.436  -8.746 -22.887  0.00  0.00    +0.126 C 
ATOM     10  C   UNL     1      33.256  -6.494 -24.315  0.00  0.00    +0.003 C 
ATOM     11  C   UNL     1      31.731  -8.345 -24.021  0.00  0.00    +0.020 C 
ATOM     12  C   UNL     1      33.551  -8.020 -22.467  0.00  0.00    +0.020 C 
ATOM     13  C   UNL     1      32.140  -7.219 -24.735  0.00  0.00    +0.001 C 
ATOM     14  C   UNL     1      33.961  -6.895 -23.181  0.00  0.00    +0.001 C 
BRANCH  10  17
ATOM     15  N   UNL     1      34.874  -4.009 -26.299  0.00  0.00    -0.208 N 
ATOM     16  N   UNL     1      33.791  -3.269 -26.005  0.00  0.00    -0.176 NA
ATOM     17  C   UNL     1      33.677  -5.335 -25.051  0.00  0.00    +0.037 C 
ATOM     18  C   UNL     1      34.854  -5.258 -25.751  0.00  0.00    +0.086 C 
ATOM     19  C   UNL     1      33.064  -4.088 -25.241  0.00  0.00    +0.119 C 
ATOM     20  C   UNL     1      35.917  -3.455 -27.128  0.00  0.00    +0.140 C 
ENDBRANCH  10  17
ENDBRANCH   6   9
ENDBRANCH   1   6
BRANCH   4  21
ATOM     21  C   UNL     1      33.841 -14.848 -22.783  0.00  0.00    +0.006 C 
ATOM     22  C   UNL     1      34.803 -15.616 -23.371  0.00  0.00    +0.058 C 
BRANCH  22  25
ATOM     23  O   UNL     1      34.743 -17.915 -23.975  0.00  0.00    -0.270 OA
ATOM     24  N   UNL     1      35.214 -17.313 -21.755  0.00  0.00    -0.279 N 
ATOM     25  C   UNL     1      34.912 -17.082 -23.091  0.00  0.00    +0.250 C 
ATOM     26  H   UNL     1      35.314 -16.514 -21.186  0.00  0.00    +0.155 HD
BRANCH  24  27
ATOM     27  C   UNL     1      35.394 -18.565 -21.119  0.00  0.00    +0.064 C 
ATOM     28  C   UNL     1      36.664 -19.100 -20.972  0.00  0.00    +0.055 C 
ATOM     29  C   UNL     1      34.273 -19.232 -20.651  0.00  0.00    +0.016 C 
ATOM     30  C   UNL     1      36.816 -20.335 -20.342  0.00  0.00    +0.015 C 
ATOM     31  C   UNL     1      34.425 -20.467 -20.021  0.00  0.00    +0.001 C 
ATOM     32  C   UNL     1      35.697 -21.018 -19.867  0.00  0.00    +0.001 C 
BRANCH  28  33
ATOM     33  N   UNL     1      37.811 -18.425 -21.444  0.00  0.00    -0.356 N 
ATOM     34  H   UNL     1      38.184 -18.648 -22.328  0.00  0.00    +0.142 HD
ATOM     35  H   UNL     1      38.238 -17.733 -20.891  0.00  0.00    +0.142 HD
ENDBRANCH  28  33
ENDBRANCH  24  27
ENDBRANCH  22  25
ENDBRANCH   4  21
TORSDOF 7
ENDMDL
MODEL 8
REMARK VINA RESULT:      -9.9      2.825      3.636
REMARK  Name = 15985904
REMARK  7 active torsions:
REMARK  status: ('A' for Active; 'I' for Inactive)
REMARK    1  A    between atoms: N_1  and  S_6
REMARK    2  A    between atoms: C_4  and  C_21
REMARK    3  A    between atoms: S_6  and  C_9
REMARK    4  A    between atoms: C_10  and  C_17
REMARK    5  A    between atoms: C_22  and  C_25
REMARK    6  A    between atoms: N_24  and  C_27
REMARK    7  A    between atoms: C_28  and  N_33
REMARK                            x       y       z     vdW  Elec       q    Type
REMARK                         _______ _______ _______ _____ _____    ______ ____
ROOT
ATOM      1  N   UNL     1      34.938 -18.384 -22.876  0.00  0.00    -0.167 N 
ATOM      2  C   UNL     1      34.436 -19.468 -22.285  0.00  0.00    +0.089 C 
ATOM      3  C   UNL     1      35.974 -17.841 -22.235  0.00  0.00    +0.089 C 
ATOM      4  C   UNL     1      35.203 -19.661 -21.157  0.00  0.00    +0.018 C 
ATOM      5  C   UNL     1      36.176 -18.631 -21.126  0.00  0.00    +0.019 C 
ENDROOT
BRANCH   1   6
ATOM      6  S   UNL     1      34.302 -17.738 -24.347  0.00  0.00    +0.080 S 
ATOM      7  O   UNL     1      33.035 -18.434 -24.485  0.00  0.00    -0.149 OA
ATOM      8  O   UNL     1      35.366 -17.857 -25.326  0.00  0.00    -0.149 OA
BRANCH   6   9
ATOM      9  C   UNL     1      34.033 -16.041 -24.037  0.00  0.00    +0.126 C 
ATOM     10  C   UNL     1      33.604 -13.329 -23.541  0.00  0.00    +0.003 C 
ATOM     11  C   UNL     1      33.421 -15.243 -25.004  0.00  0.00    +0.020 C 
ATOM     12  C   UNL     1      34.429 -15.482 -22.822  0.00  0.00    +0.020 C 
ATOM     13  C   UNL     1      33.207 -13.888 -24.757  0.00  0.00    +0.001 C 
ATOM     14  C   UNL     1      34.216 -14.126 -22.574  0.00  0.00    +0.001 C 
BRANCH  10  17
ATOM     15  N   UNL     1      33.673  -9.774 -23.251  0.00  0.00    -0.208 N 
ATOM     16  N   UNL     1      32.506  -9.944 -22.607  0.00  0.00    -0.176 NA
ATOM     17  C   UNL     1      33.384 -11.933 -23.287  0.00  0.00    +0.037 C 
ATOM     18  C   UNL     1      34.241 -10.938 -23.680  0.00  0.00    +0.086 C 
ATOM     19  C   UNL     1      32.336 -11.268 -22.633  0.00  0.00    +0.119 C 
ATOM     20  C   UNL     1      34.206  -8.445 -23.431  0.00  0.00    +0.140 C 
ENDBRANCH  10  17
ENDBRANCH   6   9
ENDBRANCH   1   6
BRANCH   4  21
ATOM     21  C   UNL     1      35.025 -20.705 -20.225  0.00  0.00    +0.006 C 
ATOM     22  C   UNL     1      33.860 -21.280 -19.811  0.00  0.00    +0.058 C 
BRANCH  22  25
ATOM     23  O   UNL     1      34.389 -23.465 -19.037  0.00  0.00    -0.270 OA
ATOM     24  N   UNL     1      33.174 -22.009 -17.653  0.00  0.00    -0.279 N 
ATOM     25  C   UNL     1      33.850 -22.389 -18.805  0.00  0.00    +0.250 C 
ATOM     26  H   UNL     1      32.803 -21.097 -17.645  0.00  0.00    +0.155 HD
BRANCH  24  27
ATOM     27  C   UNL     1      32.957 -22.786 -16.488  0.00  0.00    +0.064 C 
ATOM     28  C   UNL     1      31.669 -23.048 -16.051  0.00  0.00    +0.055 C 
ATOM     29  C   UNL     1      34.062 -23.271 -15.807  0.00  0.00    +0.016 C 
ATOM     30  C   UNL     1      31.481 -23.815 -14.902  0.00  0.00    +0.015 C 
ATOM     31  C   UNL     1      33.874 -24.038 -14.658  0.00  0.00    +0.001 C 
ATOM     32  C   UNL     1      32.584 -24.310 -14.204  0.00  0.00    +0.001 C 
BRANCH  28  33
ATOM     33  N   UNL     1      30.538 -22.559 -16.741  0.00  0.00    -0.356 N 
ATOM     34  H   UNL     1      29.648 -22.938 -16.556  0.00  0.00    +0.142 HD
ATOM     35  H   UNL     1      30.639 -21.841 -17.406  0.00  0.00    +0.142 HD
ENDBRANCH  28  33
ENDBRANCH  24  27
ENDBRANCH  22  25
ENDBRANCH   4  21
TORSDOF 7
ENDMDL
MODEL 9
REMARK VINA RESULT:      -9.7      8.293     12.534
REMARK  Name = 15985904
REMARK  7 active torsions:
REMARK  status: ('A' for Active; 'I' for Inactive)
REMARK    1  A    between atoms: N_1  and  S_6
REMARK    2  A    between atoms: C_4  and  C_21
REMARK    3  A    between atoms: S_6  and  C_9
REMARK    4  A    between atoms: C_10  and  C_17
REMARK    5  A    between atoms: C_22  and  C_25
REMARK    6  A    between atoms: N_24  and  C_27
REMARK    7  A    between atoms: C_28  and  N_33
REMARK                            x       y       z     vdW  Elec       q    Type
REMARK                         _______ _______ _______ _____ _____    ______ ____
ROOT
ATOM      1  N   UNL     1      31.865  -6.982 -21.757  0.00  0.00    -0.167 N 
ATOM      2  C   UNL     1      31.848  -8.197 -22.306  0.00  0.00    +0.089 C 
ATOM      3  C   UNL     1      32.141  -6.974 -20.453  0.00  0.00    +0.089 C 
ATOM      4  C   UNL     1      32.140  -9.069 -21.279  0.00  0.00    +0.018 C 
ATOM      5  C   UNL     1      32.325  -8.294 -20.107  0.00  0.00    +0.019 C 
ENDROOT
BRANCH   1   6
ATOM      6  S   UNL     1      31.553  -5.541 -22.659  0.00  0.00    +0.080 S 
ATOM      7  O   UNL     1      31.698  -4.497 -21.661  0.00  0.00    -0.149 OA
ATOM      8  O   UNL     1      30.307  -5.776 -23.364  0.00  0.00    -0.149 OA
BRANCH   6   9
ATOM      9  C   UNL     1      32.837  -5.438 -23.838  0.00  0.00    +0.126 C 
ATOM     10  C   UNL     1      34.888  -5.274 -25.721  0.00  0.00    +0.003 C 
ATOM     11  C   UNL     1      32.678  -4.646 -24.975  0.00  0.00    +0.020 C 
ATOM     12  C   UNL     1      34.022  -6.147 -23.642  0.00  0.00    +0.020 C 
ATOM     13  C   UNL     1      33.703  -4.565 -25.917  0.00  0.00    +0.001 C 
ATOM     14  C   UNL     1      35.048  -6.066 -24.584  0.00  0.00    +0.001 C 
BRANCH  10  17
ATOM     15  N   UNL     1      37.230  -5.667 -28.384  0.00  0.00    -0.208 N 
ATOM     16  N   UNL     1      37.755  -4.527 -27.904  0.00  0.00    -0.176 NA
ATOM     17  C   UNL     1      35.944  -5.190 -26.691  0.00  0.00    +0.037 C 
ATOM     18  C   UNL     1      36.141  -6.107 -27.691  0.00  0.00    +0.086 C 
ATOM     19  C   UNL     1      36.962  -4.241 -26.869  0.00  0.00    +0.119 C 
ATOM     20  C   UNL     1      37.828  -6.303 -29.534  0.00  0.00    +0.140 C 
ENDBRANCH  10  17
ENDBRANCH   6   9
ENDBRANCH   1   6
BRANCH   4  21
ATOM     21  C   UNL     1      32.229 -10.470 -21.407  0.00  0.00    +0.006 C 
ATOM     22  C   UNL     1      32.660 -11.196 -22.478  0.00  0.00    +0.058 C 
BRANCH  22  25
ATOM     23  O   UNL     1      31.876 -13.334 -21.795  0.00  0.00    -0.270 OA
ATOM     24  N   UNL     1      33.731 -13.185 -23.226  0.00  0.00    -0.279 N 
ATOM     25  C   UNL     1      32.692 -12.693 -22.447  0.00  0.00    +0.250 C 
ATOM     26  H   UNL     1      34.290 -12.514 -23.681  0.00  0.00    +0.155 HD
BRANCH  24  27
ATOM     27  C   UNL     1      34.076 -14.541 -23.439  0.00  0.00    +0.064 C 
ATOM     28  C   UNL     1      33.639 -15.205 -24.574  0.00  0.00    +0.055 C 
ATOM     29  C   UNL     1      34.858 -15.178 -22.489  0.00  0.00    +0.016 C 
ATOM     30  C   UNL     1      33.992 -16.541 -24.763  0.00  0.00    +0.015 C 
ATOM     31  C   UNL     1      35.211 -16.514 -22.677  0.00  0.00    +0.001 C 
ATOM     32  C   UNL     1      34.778 -17.196 -23.814  0.00  0.00    +0.001 C 
BRANCH  28  33
ATOM     33  N   UNL     1      32.844 -14.563 -25.549  0.00  0.00    -0.356 N 
ATOM     34  H   UNL     1      32.076 -14.012 -25.271  0.00  0.00    +0.142 HD
ATOM     35  H   UNL     1      33.056 -14.665 -26.504  0.00  0.00    +0.142 HD
ENDBRANCH  28  33
ENDBRANCH  24  27
ENDBRANCH  22  25
ENDBRANCH   4  21
TORSDOF 7
ENDMDL
