MODEL 1
REMARK VINA RESULT:     -10.7      0.000      0.000
REMARK  Name = 22049997
REMARK  5 active torsions:
REMARK  status: ('A' for Active; 'I' for Inactive)
REMARK    1  A    between atoms: N_3  and  C_10
REMARK    2  A    between atoms: C_7  and  O_22
REMARK    3  A    between atoms: C_13  and  C_19
REMARK    4  A    between atoms: O_22  and  C_23
REMARK    5  A    between atoms: C_23  and  C_26
REMARK                            x       y       z     vdW  Elec       q    Type
REMARK                         _______ _______ _______ _____ _____    ______ ____
ROOT
ATOM      1 BR   UNL     1      33.439 -22.023 -18.785  0.00  0.00    -0.041 Br
ATOM      2  O   UNL     1      33.252 -19.812 -20.843  0.00  0.00    -0.269 OA
ATOM      3  N   UNL     1      35.508 -19.203 -21.114  0.00  0.00    -0.237 N 
ATOM      4  C   UNL     1      36.840 -19.419 -20.713  0.00  0.00    +0.039 C 
ATOM      5  C   UNL     1      34.443 -19.968 -20.564  0.00  0.00    +0.265 C 
ATOM      6  C   UNL     1      37.128 -20.345 -19.783  0.00  0.00    +0.048 C 
ATOM      7  C   UNL     1      36.098 -21.135 -19.176  0.00  0.00    +0.151 C 
ATOM      8  C   UNL     1      34.813 -20.998 -19.533  0.00  0.00    +0.122 C 
ATOM      9  C   UNL     1      37.979 -18.706 -21.397  0.00  0.00    +0.048 C 
ENDROOT
BRANCH   3  10
ATOM     10  C   UNL     1      35.142 -18.197 -22.080  0.00  0.00    +0.054 C 
ATOM     11  C   UNL     1      34.913 -18.535 -23.413  0.00  0.00    -0.008 C 
ATOM     12  C   UNL     1      35.017 -16.871 -21.666  0.00  0.00    +0.019 C 
ATOM     13  C   UNL     1      34.664 -15.884 -22.585  0.00  0.00    +0.055 C 
ATOM     14  C   UNL     1      34.559 -17.548 -24.333  0.00  0.00    -0.003 C 
ATOM     15  C   UNL     1      34.435 -16.221 -23.918  0.00  0.00    +0.004 C 
ATOM     16  C   UNL     1      35.040 -19.947 -23.885  0.00  0.00    +0.032 C 
BRANCH  13  19
ATOM     17  O   UNL     1      34.842 -14.168 -20.995  0.00  0.00    -0.270 OA
ATOM     18  N   UNL     1      34.077 -13.579 -23.103  0.00  0.00    -0.299 N 
ATOM     19  C   UNL     1      34.535 -14.500 -22.153  0.00  0.00    +0.246 C 
ATOM     20  C   UNL     1      33.918 -12.167 -22.835  0.00  0.00    +0.111 C 
ATOM     21  H   UNL     1      33.851 -13.910 -24.002  0.00  0.00    +0.150 HD
ENDBRANCH  13  19
ENDBRANCH   3  10
BRANCH   7  22
ATOM     22  O   UNL     1      36.551 -22.035 -18.238  0.00  0.00    -0.470 OA
BRANCH  22  23
ATOM     23  C   UNL     1      36.794 -21.394 -17.001  0.00  0.00    +0.234 C 
BRANCH  23  26
ATOM     24  F   UNL     1      38.789 -22.947 -15.728  0.00  0.00    -0.204 F 
ATOM     25  F   UNL     1      35.666 -24.994 -12.822  0.00  0.00    -0.204 F 
ATOM     26  C   UNL     1      36.495 -22.353 -15.886  0.00  0.00    +0.049 C 
ATOM     27  C   UNL     1      37.526 -23.090 -15.301  0.00  0.00    +0.142 C 
ATOM     28  C   UNL     1      35.185 -22.509 -15.435  0.00  0.00    +0.004 C 
ATOM     29  C   UNL     1      37.246 -23.982 -14.266  0.00  0.00    +0.059 C 
ATOM     30  C   UNL     1      34.905 -23.401 -14.400  0.00  0.00    +0.030 C 
ATOM     31  C   UNL     1      35.935 -24.137 -13.816  0.00  0.00    +0.142 C 
ENDBRANCH  23  26
ENDBRANCH  22  23
ENDBRANCH   7  22
TORSDOF 5
ENDMDL
MODEL 2
REMARK VINA RESULT:      -9.7      6.946     11.261
REMARK  Name = 22049997
REMARK  5 active torsions:
REMARK  status: ('A' for Active; 'I' for Inactive)
REMARK    1  A    between atoms: N_3  and  C_10
REMARK    2  A    between atoms: C_7  and  O_22
REMARK    3  A    between atoms: C_13  and  C_19
REMARK    4  A    between atoms: O_22  and  C_23
REMARK    5  A    between atoms: C_23  and  C_26
REMARK                            x       y       z     vdW  Elec       q    Type
REMARK                         _______ _______ _______ _____ _____    ______ ____
ROOT
ATOM      1 BR   UNL     1      31.222 -12.283 -22.475  0.00  0.00    -0.041 Br
ATOM      2  O   UNL     1      30.902  -9.295 -22.114  0.00  0.00    -0.269 OA
ATOM      3  N   UNL     1      32.997  -8.490 -22.819  0.00  0.00    -0.237 N 
ATOM      4  C   UNL     1      34.283  -8.815 -23.292  0.00  0.00    +0.039 C 
ATOM      5  C   UNL     1      32.034  -9.503 -22.561  0.00  0.00    +0.265 C 
ATOM      6  C   UNL     1      34.629 -10.098 -23.492  0.00  0.00    +0.048 C 
ATOM      7  C   UNL     1      33.709 -11.166 -23.232  0.00  0.00    +0.151 C 
ATOM      8  C   UNL     1      32.462 -10.923 -22.805  0.00  0.00    +0.122 C 
ATOM      9  C   UNL     1      35.254  -7.736 -23.698  0.00  0.00    +0.048 C 
ENDROOT
BRANCH   3  10
ATOM     10  C   UNL     1      32.589  -7.133 -22.553  0.00  0.00    +0.054 C 
ATOM     11  C   UNL     1      32.705  -6.590 -21.274  0.00  0.00    -0.008 C 
ATOM     12  C   UNL     1      32.075  -6.361 -23.595  0.00  0.00    +0.019 C 
ATOM     13  C   UNL     1      31.677  -5.047 -23.357  0.00  0.00    +0.055 C 
ATOM     14  C   UNL     1      32.307  -5.274 -21.036  0.00  0.00    -0.003 C 
ATOM     15  C   UNL     1      31.792  -4.502 -22.078  0.00  0.00    +0.004 C 
ATOM     16  C   UNL     1      33.253  -7.393 -20.139  0.00  0.00    +0.032 C 
BRANCH  13  19
ATOM     17  O   UNL     1      30.048  -3.658 -24.317  0.00  0.00    -0.270 OA
ATOM     18  N   UNL     1      31.914  -4.145 -25.606  0.00  0.00    -0.299 N 
ATOM     19  C   UNL     1      31.138  -4.242 -24.444  0.00  0.00    +0.246 C 
ATOM     20  C   UNL     1      31.527  -3.366 -26.760  0.00  0.00    +0.111 C 
ATOM     21  H   UNL     1      32.767  -4.634 -25.638  0.00  0.00    +0.150 HD
ENDBRANCH  13  19
ENDBRANCH   3  10
BRANCH   7  22
ATOM     22  O   UNL     1      34.214 -12.422 -23.479  0.00  0.00    -0.470 OA
BRANCH  22  23
ATOM     23  C   UNL     1      34.294 -13.178 -22.285  0.00  0.00    +0.234 C 
BRANCH  23  26
ATOM     24  F   UNL     1      35.112 -15.108 -20.383  0.00  0.00    -0.204 F 
ATOM     25  F   UNL     1      35.178 -18.581 -23.596  0.00  0.00    -0.204 F 
ATOM     26  C   UNL     1      34.529 -14.619 -22.632  0.00  0.00    +0.049 C 
ATOM     27  C   UNL     1      34.932 -15.519 -21.646  0.00  0.00    +0.142 C 
ATOM     28  C   UNL     1      34.345 -15.056 -23.943  0.00  0.00    +0.004 C 
ATOM     29  C   UNL     1      35.151 -16.858 -21.972  0.00  0.00    +0.059 C 
ATOM     30  C   UNL     1      34.564 -16.395 -24.269  0.00  0.00    +0.030 C 
ATOM     31  C   UNL     1      34.967 -17.295 -23.283  0.00  0.00    +0.142 C 
ENDBRANCH  23  26
ENDBRANCH  22  23
ENDBRANCH   7  22
TORSDOF 5
ENDMDL
MODEL 3
REMARK VINA RESULT:      -8.7      2.025      2.847
REMARK  Name = 22049997
REMARK  5 active torsions:
REMARK  status: ('A' for Active; 'I' for Inactive)
REMARK    1  A    between atoms: N_3  and  C_10
REMARK    2  A    between atoms: C_7  and  O_22
REMARK    3  A    between atoms: C_13  and  C_19
REMARK    4  A    between atoms: O_22  and  C_23
REMARK    5  A    between atoms: C_23  and  C_26
REMARK                            x       y       z     vdW  Elec       q    Type
REMARK                         _______ _______ _______ _____ _____    ______ ____
ROOT
ATOM      1 BR   UNL     1      37.348 -21.650 -17.746  0.00  0.00    -0.041 Br
ATOM      2  O   UNL     1      36.983 -19.460 -19.803  0.00  0.00    -0.269 OA
ATOM      3  N   UNL     1      34.739 -19.758 -20.442  0.00  0.00    -0.237 N 
ATOM      4  C   UNL     1      33.563 -20.515 -20.286  0.00  0.00    +0.039 C 
ATOM      5  C   UNL     1      35.910 -20.058 -19.694  0.00  0.00    +0.265 C 
ATOM      6  C   UNL     1      33.532 -21.554 -19.433  0.00  0.00    +0.048 C 
ATOM      7  C   UNL     1      34.685 -21.919 -18.664  0.00  0.00    +0.151 C 
ATOM      8  C   UNL     1      35.827 -21.223 -18.747  0.00  0.00    +0.122 C 
ATOM      9  C   UNL     1      32.284 -20.111 -20.974  0.00  0.00    +0.048 C 
ENDROOT
BRANCH   3  10
ATOM     10  C   UNL     1      34.835 -18.659 -21.370  0.00  0.00    +0.054 C 
ATOM     11  C   UNL     1      35.120 -18.883 -22.717  0.00  0.00    -0.008 C 
ATOM     12  C   UNL     1      34.637 -17.358 -20.907  0.00  0.00    +0.019 C 
ATOM     13  C   UNL     1      34.725 -16.283 -21.789  0.00  0.00    +0.055 C 
ATOM     14  C   UNL     1      35.207 -17.807 -23.600  0.00  0.00    -0.003 C 
ATOM     15  C   UNL     1      35.010 -16.506 -23.136  0.00  0.00    +0.004 C 
ATOM     16  C   UNL     1      35.336 -20.265 -23.242  0.00  0.00    +0.032 C 
BRANCH  13  19
ATOM     17  O   UNL     1      34.889 -14.600 -20.164  0.00  0.00    -0.270 OA
ATOM     18  N   UNL     1      33.918 -14.021 -22.189  0.00  0.00    -0.299 N 
ATOM     19  C   UNL     1      34.520 -14.926 -21.305  0.00  0.00    +0.246 C 
ATOM     20  C   UNL     1      33.669 -12.634 -21.865  0.00  0.00    +0.111 C 
ATOM     21  H   UNL     1      33.650 -14.346 -23.078  0.00  0.00    +0.150 HD
ENDBRANCH  13  19
ENDBRANCH   3  10
BRANCH   7  22
ATOM     22  O   UNL     1      34.497 -23.007 -17.842  0.00  0.00    -0.470 OA
BRANCH  22  23
ATOM     23  C   UNL     1      33.381 -22.812 -16.995  0.00  0.00    +0.234 C 
BRANCH  23  26
ATOM     24  F   UNL     1      31.478 -22.969 -14.905  0.00  0.00    -0.204 F 
ATOM     25  F   UNL     1      34.640 -24.711 -11.847  0.00  0.00    -0.204 F 
ATOM     26  C   UNL     1      33.714 -23.319 -15.622  0.00  0.00    +0.049 C 
ATOM     27  C   UNL     1      32.728 -23.370 -14.636  0.00  0.00    +0.142 C 
ATOM     28  C   UNL     1      35.012 -23.738 -15.332  0.00  0.00    +0.004 C 
ATOM     29  C   UNL     1      33.041 -23.840 -13.361  0.00  0.00    +0.059 C 
ATOM     30  C   UNL     1      35.324 -24.208 -14.057  0.00  0.00    +0.030 C 
ATOM     31  C   UNL     1      34.339 -24.259 -13.072  0.00  0.00    +0.142 C 
ENDBRANCH  23  26
ENDBRANCH  22  23
ENDBRANCH   7  22
TORSDOF 5
ENDMDL
MODEL 4
REMARK VINA RESULT:      -8.6      3.634      6.471
REMARK  Name = 22049997
REMARK  5 active torsions:
REMARK  status: ('A' for Active; 'I' for Inactive)
REMARK    1  A    between atoms: N_3  and  C_10
REMARK    2  A    between atoms: C_7  and  O_22
REMARK    3  A    between atoms: C_13  and  C_19
REMARK    4  A    between atoms: O_22  and  C_23
REMARK    5  A    between atoms: C_23  and  C_26
REMARK                            x       y       z     vdW  Elec       q    Type
REMARK                         _______ _______ _______ _____ _____    ______ ____
ROOT
ATOM      1 BR   UNL     1      33.944 -16.807 -25.202  0.00  0.00    -0.041 Br
ATOM      2  O   UNL     1      32.779 -14.148 -24.345  0.00  0.00    -0.269 OA
ATOM      3  N   UNL     1      33.757 -13.846 -22.227  0.00  0.00    -0.237 N 
ATOM      4  C   UNL     1      34.600 -14.380 -21.234  0.00  0.00    +0.039 C 
ATOM      5  C   UNL     1      33.529 -14.539 -23.447  0.00  0.00    +0.265 C 
ATOM      6  C   UNL     1      35.194 -15.572 -21.416  0.00  0.00    +0.048 C 
ATOM      7  C   UNL     1      34.989 -16.329 -22.616  0.00  0.00    +0.151 C 
ATOM      8  C   UNL     1      34.220 -15.865 -23.610  0.00  0.00    +0.122 C 
ATOM      9  C   UNL     1      34.950 -13.582 -20.004  0.00  0.00    +0.048 C 
ENDROOT
BRANCH   3  10
ATOM     10  C   UNL     1      33.067 -12.590 -22.064  0.00  0.00    +0.054 C 
ATOM     11  C   UNL     1      32.036 -12.456 -21.135  0.00  0.00    -0.008 C 
ATOM     12  C   UNL     1      33.444 -11.501 -22.849  0.00  0.00    +0.019 C 
ATOM     13  C   UNL     1      32.790 -10.278 -22.706  0.00  0.00    +0.055 C 
ATOM     14  C   UNL     1      31.382 -11.232 -20.990  0.00  0.00    -0.003 C 
ATOM     15  C   UNL     1      31.759 -10.143 -21.776  0.00  0.00    +0.004 C 
ATOM     16  C   UNL     1      31.612 -13.605 -20.280  0.00  0.00    +0.032 C 
BRANCH  13  19
ATOM     17  O   UNL     1      32.433  -8.724 -24.426  0.00  0.00    -0.270 OA
ATOM     18  N   UNL     1      34.415  -8.544 -23.235  0.00  0.00    -0.299 N 
ATOM     19  C   UNL     1      33.182  -9.142 -23.526  0.00  0.00    +0.246 C 
ATOM     20  C   UNL     1      34.932  -7.395 -23.943  0.00  0.00    +0.111 C 
ATOM     21  H   UNL     1      34.958  -8.927 -22.509  0.00  0.00    +0.150 HD
ENDBRANCH  13  19
ENDBRANCH   3  10
BRANCH   7  22
ATOM     22  O   UNL     1      35.660 -17.531 -22.650  0.00  0.00    -0.470 OA
BRANCH  22  23
ATOM     23  C   UNL     1      34.781 -18.607 -22.382  0.00  0.00    +0.234 C 
BRANCH  23  26
ATOM     24  F   UNL     1      33.201 -20.431 -20.903  0.00  0.00    -0.204 F 
ATOM     25  F   UNL     1      36.789 -21.567 -18.035  0.00  0.00    -0.204 F 
ATOM     26  C   UNL     1      35.314 -19.398 -21.224  0.00  0.00    +0.049 C 
ATOM     27  C   UNL     1      34.481 -20.281 -20.536  0.00  0.00    +0.142 C 
ATOM     28  C   UNL     1      36.645 -19.248 -20.834  0.00  0.00    +0.004 C 
ATOM     29  C   UNL     1      34.980 -21.013 -19.459  0.00  0.00    +0.059 C 
ATOM     30  C   UNL     1      37.143 -19.981 -19.757  0.00  0.00    +0.030 C 
ATOM     31  C   UNL     1      36.311 -20.863 -19.070  0.00  0.00    +0.142 C 
ENDBRANCH  23  26
ENDBRANCH  22  23
ENDBRANCH   7  22
TORSDOF 5
ENDMDL
MODEL 5
REMARK VINA RESULT:      -8.6      7.413     13.002
REMARK  Name = 22049997
REMARK  5 active torsions:
REMARK  status: ('A' for Active; 'I' for Inactive)
REMARK    1  A    between atoms: N_3  and  C_10
REMARK    2  A    between atoms: C_7  and  O_22
REMARK    3  A    between atoms: C_13  and  C_19
REMARK    4  A    between atoms: O_22  and  C_23
REMARK    5  A    between atoms: C_23  and  C_26
REMARK                            x       y       z     vdW  Elec       q    Type
REMARK                         _______ _______ _______ _____ _____    ______ ____
ROOT
ATOM      1 BR   UNL     1      34.313  -8.582 -23.888  0.00  0.00    -0.041 Br
ATOM      2  O   UNL     1      34.763 -11.543 -24.324  0.00  0.00    -0.269 OA
ATOM      3  N   UNL     1      33.337 -12.497 -22.715  0.00  0.00    -0.237 N 
ATOM      4  C   UNL     1      32.424 -12.266 -21.668  0.00  0.00    +0.039 C 
ATOM      5  C   UNL     1      33.932 -11.416 -23.421  0.00  0.00    +0.265 C 
ATOM      6  C   UNL     1      32.113 -11.011 -21.304  0.00  0.00    +0.048 C 
ATOM      7  C   UNL     1      32.694  -9.879 -21.963  0.00  0.00    +0.151 C 
ATOM      8  C   UNL     1      33.549 -10.030 -22.984  0.00  0.00    +0.122 C 
ATOM      9  C   UNL     1      31.689 -13.409 -21.016  0.00  0.00    +0.048 C 
ENDROOT
BRANCH   3  10
ATOM     10  C   UNL     1      33.733 -13.824 -23.119  0.00  0.00    +0.054 C 
ATOM     11  C   UNL     1      33.450 -14.294 -24.401  0.00  0.00    -0.008 C 
ATOM     12  C   UNL     1      34.408 -14.638 -22.210  0.00  0.00    +0.019 C 
ATOM     13  C   UNL     1      34.800 -15.923 -22.583  0.00  0.00    +0.055 C 
ATOM     14  C   UNL     1      33.843 -15.580 -24.774  0.00  0.00    -0.003 C 
ATOM     15  C   UNL     1      34.517 -16.395 -23.865  0.00  0.00    +0.004 C 
ATOM     16  C   UNL     1      32.729 -13.444 -25.395  0.00  0.00    +0.032 C 
BRANCH  13  19
ATOM     17  O   UNL     1      35.328 -16.635 -20.412  0.00  0.00    -0.270 OA
ATOM     18  N   UNL     1      36.352 -17.752 -22.167  0.00  0.00    -0.299 N 
ATOM     19  C   UNL     1      35.503 -16.774 -21.635  0.00  0.00    +0.246 C 
ATOM     20  C   UNL     1      37.100 -18.687 -21.357  0.00  0.00    +0.111 C 
ATOM     21  H   UNL     1      36.444 -17.805 -23.145  0.00  0.00    +0.150 HD
ENDBRANCH  13  19
ENDBRANCH   3  10
BRANCH   7  22
ATOM     22  O   UNL     1      32.280  -8.661 -21.471  0.00  0.00    -0.470 OA
BRANCH  22  23
ATOM     23  C   UNL     1      31.146  -8.193 -22.176  0.00  0.00    +0.234 C 
BRANCH  23  26
ATOM     24  F   UNL     1      30.653  -6.955 -24.673  0.00  0.00    -0.204 F 
ATOM     25  F   UNL     1      31.668  -2.648 -22.998  0.00  0.00    -0.204 F 
ATOM     26  C   UNL     1      31.283  -6.715 -22.397  0.00  0.00    +0.049 C 
ATOM     27  C   UNL     1      31.025  -6.168 -23.654  0.00  0.00    +0.142 C 
ATOM     28  C   UNL     1      31.671  -5.888 -21.343  0.00  0.00    +0.004 C 
ATOM     29  C   UNL     1      31.155  -4.795 -23.857  0.00  0.00    +0.059 C 
ATOM     30  C   UNL     1      31.801  -4.514 -21.546  0.00  0.00    +0.030 C 
ATOM     31  C   UNL     1      31.543  -3.968 -22.803  0.00  0.00    +0.142 C 
ENDBRANCH  23  26
ENDBRANCH  22  23
ENDBRANCH   7  22
TORSDOF 5
ENDMDL
MODEL 6
REMARK VINA RESULT:      -8.4     10.963     16.133
REMARK  Name = 22049997
REMARK  5 active torsions:
REMARK  status: ('A' for Active; 'I' for Inactive)
REMARK    1  A    between atoms: N_3  and  C_10
REMARK    2  A    between atoms: C_7  and  O_22
REMARK    3  A    between atoms: C_13  and  C_19
REMARK    4  A    between atoms: O_22  and  C_23
REMARK    5  A    between atoms: C_23  and  C_26
REMARK                            x       y       z     vdW  Elec       q    Type
REMARK                         _______ _______ _______ _____ _____    ______ ____
ROOT
ATOM      1 BR   UNL     1      31.302  -3.970 -25.926  0.00  0.00    -0.041 Br
ATOM      2  O   UNL     1      30.935  -5.860 -23.590  0.00  0.00    -0.269 OA
ATOM      3  N   UNL     1      33.124  -6.652 -23.254  0.00  0.00    -0.237 N 
ATOM      4  C   UNL     1      34.463  -6.627 -23.688  0.00  0.00    +0.039 C 
ATOM      5  C   UNL     1      32.131  -5.863 -23.895  0.00  0.00    +0.265 C 
ATOM      6  C   UNL     1      34.824  -5.865 -24.734  0.00  0.00    +0.048 C 
ATOM      7  C   UNL     1      33.866  -5.062 -25.435  0.00  0.00    +0.151 C 
ATOM      8  C   UNL     1      32.581  -5.020 -25.056  0.00  0.00    +0.122 C 
ATOM      9  C   UNL     1      35.539  -7.354 -22.922  0.00  0.00    +0.048 C 
ENDROOT
BRANCH   3  10
ATOM     10  C   UNL     1      32.679  -7.480 -22.160  0.00  0.00    +0.054 C 
ATOM     11  C   UNL     1      32.471  -6.938 -20.892  0.00  0.00    -0.008 C 
ATOM     12  C   UNL     1      32.456  -8.838 -22.383  0.00  0.00    +0.019 C 
ATOM     13  C   UNL     1      32.025  -9.655 -21.339  0.00  0.00    +0.055 C 
ATOM     14  C   UNL     1      32.039  -7.755 -19.847  0.00  0.00    -0.003 C 
ATOM     15  C   UNL     1      31.816  -9.114 -20.070  0.00  0.00    +0.004 C 
ATOM     16  C   UNL     1      32.701  -5.486 -20.624  0.00  0.00    +0.032 C 
BRANCH  13  19
ATOM     17  O   UNL     1      30.864 -11.663 -20.996  0.00  0.00    -0.270 OA
ATOM     18  N   UNL     1      32.645 -11.714 -22.479  0.00  0.00    -0.299 N 
ATOM     19  C   UNL     1      31.793 -11.073 -21.571  0.00  0.00    +0.246 C 
ATOM     20  C   UNL     1      32.528 -13.111 -22.833  0.00  0.00    +0.111 C 
ATOM     21  H   UNL     1      33.361 -11.186 -22.899  0.00  0.00    +0.150 HD
ENDBRANCH  13  19
ENDBRANCH   3  10
BRANCH   7  22
ATOM     22  O   UNL     1      34.388  -4.344 -26.487  0.00  0.00    -0.470 OA
BRANCH  22  23
ATOM     23  C   UNL     1      34.026  -4.928 -27.725  0.00  0.00    +0.234 C 
BRANCH  23  26
ATOM     24  F   UNL     1      33.867  -6.994 -29.653  0.00  0.00    -0.204 F 
ATOM     25  F   UNL     1      38.573  -7.346 -30.000  0.00  0.00    -0.204 F 
ATOM     26  C   UNL     1      35.237  -5.573 -28.333  0.00  0.00    +0.049 C 
ATOM     27  C   UNL     1      35.089  -6.588 -29.280  0.00  0.00    +0.142 C 
ATOM     28  C   UNL     1      36.512  -5.158 -27.951  0.00  0.00    +0.004 C 
ATOM     29  C   UNL     1      36.216  -7.186 -29.842  0.00  0.00    +0.059 C 
ATOM     30  C   UNL     1      37.639  -5.757 -28.514  0.00  0.00    +0.030 C 
ATOM     31  C   UNL     1      37.491  -6.771 -29.459  0.00  0.00    +0.142 C 
ENDBRANCH  23  26
ENDBRANCH  22  23
ENDBRANCH   7  22
TORSDOF 5
ENDMDL
MODEL 7
REMARK VINA RESULT:      -8.0      4.661     10.279
REMARK  Name = 22049997
REMARK  5 active torsions:
REMARK  status: ('A' for Active; 'I' for Inactive)
REMARK    1  A    between atoms: N_3  and  C_10
REMARK    2  A    between atoms: C_7  and  O_22
REMARK    3  A    between atoms: C_13  and  C_19
REMARK    4  A    between atoms: O_22  and  C_23
REMARK    5  A    between atoms: C_23  and  C_26
REMARK                            x       y       z     vdW  Elec       q    Type
REMARK                         _______ _______ _______ _____ _____    ______ ____
ROOT
ATOM      1 BR   UNL     1      32.153 -24.230 -15.986  0.00  0.00    -0.041 Br
ATOM      2  O   UNL     1      34.478 -25.019 -14.216  0.00  0.00    -0.269 OA
ATOM      3  N   UNL     1      36.189 -23.608 -14.998  0.00  0.00    -0.237 N 
ATOM      4  C   UNL     1      36.563 -22.613 -15.922  0.00  0.00    +0.039 C 
ATOM      5  C   UNL     1      34.866 -24.126 -14.974  0.00  0.00    +0.265 C 
ATOM      6  C   UNL     1      35.673 -22.147 -16.816  0.00  0.00    +0.048 C 
ATOM      7  C   UNL     1      34.330 -22.644 -16.855  0.00  0.00    +0.151 C 
ATOM      8  C   UNL     1      33.903 -23.570 -15.986  0.00  0.00    +0.122 C 
ATOM      9  C   UNL     1      37.923 -21.966 -15.856  0.00  0.00    +0.048 C 
ENDROOT
BRANCH   3  10
ATOM     10  C   UNL     1      37.115 -24.167 -14.045  0.00  0.00    +0.054 C 
ATOM     11  C   UNL     1      36.926 -23.988 -12.675  0.00  0.00    -0.008 C 
ATOM     12  C   UNL     1      38.211 -24.895 -14.508  0.00  0.00    +0.019 C 
ATOM     13  C   UNL     1      39.117 -25.444 -13.602  0.00  0.00    +0.055 C 
ATOM     14  C   UNL     1      37.832 -24.538 -11.768  0.00  0.00    -0.003 C 
ATOM     15  C   UNL     1      38.928 -25.266 -12.232  0.00  0.00    +0.004 C 
ATOM     16  C   UNL     1      35.761 -23.213 -12.150  0.00  0.00    +0.032 C 
BRANCH  13  19
ATOM     17  O   UNL     1      40.607 -26.132 -15.277  0.00  0.00    -0.270 OA
ATOM     18  N   UNL     1      40.948 -26.982 -13.147  0.00  0.00    -0.299 N 
ATOM     19  C   UNL     1      40.261 -26.203 -14.085  0.00  0.00    +0.246 C 
ATOM     20  C   UNL     1      42.116 -27.771 -13.466  0.00  0.00    +0.111 C 
ATOM     21  H   UNL     1      40.619 -26.992 -12.219  0.00  0.00    +0.150 HD
ENDBRANCH  13  19
ENDBRANCH   3  10
BRANCH   7  22
ATOM     22  O   UNL     1      33.542 -22.073 -17.829  0.00  0.00    -0.470 OA
BRANCH  22  23
ATOM     23  C   UNL     1      34.014 -22.409 -19.120  0.00  0.00    +0.234 C 
BRANCH  23  26
ATOM     24  F   UNL     1      32.460 -20.456 -20.456  0.00  0.00    -0.204 F 
ATOM     25  F   UNL     1      36.251 -17.828 -21.509  0.00  0.00    -0.204 F 
ATOM     26  C   UNL     1      34.609 -21.186 -19.757  0.00  0.00    +0.049 C 
ATOM     27  C   UNL     1      33.785 -20.262 -20.400  0.00  0.00    +0.142 C 
ATOM     28  C   UNL     1      35.986 -20.976 -19.705  0.00  0.00    +0.004 C 
ATOM     29  C   UNL     1      34.340 -19.128 -20.992  0.00  0.00    +0.059 C 
ATOM     30  C   UNL     1      36.541 -19.842 -20.297  0.00  0.00    +0.030 C 
ATOM     31  C   UNL     1      35.718 -18.917 -20.941  0.00  0.00    +0.142 C 
ENDBRANCH  23  26
ENDBRANCH  22  23
ENDBRANCH   7  22
TORSDOF 5
ENDMDL
MODEL 8
REMARK VINA RESULT:      -7.8      4.750      9.711
REMARK  Name = 22049997
REMARK  5 active torsions:
REMARK  status: ('A' for Active; 'I' for Inactive)
REMARK    1  A    between atoms: N_3  and  C_10
REMARK    2  A    between atoms: C_7  and  O_22
REMARK    3  A    between atoms: C_13  and  C_19
REMARK    4  A    between atoms: O_22  and  C_23
REMARK    5  A    between atoms: C_23  and  C_26
REMARK                            x       y       z     vdW  Elec       q    Type
REMARK                         _______ _______ _______ _____ _____    ______ ____
ROOT
ATOM      1 BR   UNL     1      33.804 -15.579 -25.545  0.00  0.00    -0.041 Br
ATOM      2  O   UNL     1      34.614 -17.964 -23.867  0.00  0.00    -0.269 OA
ATOM      3  N   UNL     1      34.894 -16.996 -21.742  0.00  0.00    -0.237 N 
ATOM      4  C   UNL     1      34.864 -15.816 -20.975  0.00  0.00    +0.039 C 
ATOM      5  C   UNL     1      34.577 -16.977 -23.128  0.00  0.00    +0.265 C 
ATOM      6  C   UNL     1      34.551 -14.641 -21.548  0.00  0.00    +0.048 C 
ATOM      7  C   UNL     1      34.241 -14.554 -22.944  0.00  0.00    +0.151 C 
ATOM      8  C   UNL     1      34.225 -15.643 -23.724  0.00  0.00    +0.122 C 
ATOM      9  C   UNL     1      35.063 -15.858 -19.481  0.00  0.00    +0.048 C 
ENDROOT
BRANCH   3  10
ATOM     10  C   UNL     1      35.260 -18.274 -21.184  0.00  0.00    +0.054 C 
ATOM     11  C   UNL     1      36.582 -18.715 -21.215  0.00  0.00    -0.008 C 
ATOM     12  C   UNL     1      34.272 -19.071 -20.606  0.00  0.00    +0.019 C 
ATOM     13  C   UNL     1      34.606 -20.309 -20.060  0.00  0.00    +0.055 C 
ATOM     14  C   UNL     1      36.917 -19.954 -20.667  0.00  0.00    -0.003 C 
ATOM     15  C   UNL     1      35.928 -20.752 -20.091  0.00  0.00    +0.004 C 
ATOM     16  C   UNL     1      37.661 -17.882 -21.826  0.00  0.00    +0.032 C 
BRANCH  13  19
ATOM     17  O   UNL     1      32.416 -21.134 -19.908  0.00  0.00    -0.270 OA
ATOM     18  N   UNL     1      33.960 -21.953 -18.385  0.00  0.00    -0.299 N 
ATOM     19  C   UNL     1      33.575 -21.142 -19.459  0.00  0.00    +0.246 C 
ATOM     20  C   UNL     1      33.059 -22.851 -17.699  0.00  0.00    +0.111 C 
ATOM     21  H   UNL     1      34.895 -21.909 -18.080  0.00  0.00    +0.150 HD
ENDBRANCH  13  19
ENDBRANCH   3  10
BRANCH   7  22
ATOM     22  O   UNL     1      33.948 -13.282 -23.382  0.00  0.00    -0.470 OA
BRANCH  22  23
ATOM     23  C   UNL     1      32.554 -13.042 -23.336  0.00  0.00    +0.234 C 
BRANCH  23  26
ATOM     24  F   UNL     1      31.605 -13.392 -20.692  0.00  0.00    -0.204 F 
ATOM     25  F   UNL     1      31.543  -8.736 -19.853  0.00  0.00    -0.204 F 
ATOM     26  C   UNL     1      32.285 -11.895 -22.406  0.00  0.00    +0.049 C 
ATOM     27  C   UNL     1      31.817 -12.138 -21.114  0.00  0.00    +0.142 C 
ATOM     28  C   UNL     1      32.502 -10.586 -22.835  0.00  0.00    +0.004 C 
ATOM     29  C   UNL     1      31.566 -11.070 -20.252  0.00  0.00    +0.059 C 
ATOM     30  C   UNL     1      32.251  -9.520 -21.973  0.00  0.00    +0.030 C 
ATOM     31  C   UNL     1      31.783  -9.761 -20.681  0.00  0.00    +0.142 C 
ENDBRANCH  23  26
ENDBRANCH  22  23
ENDBRANCH   7  22
TORSDOF 5
ENDMDL
