MODEL 1
REMARK VINA RESULT:     -10.6      0.000      0.000
REMARK  Name = 10298385
REMARK  4 active torsions:
REMARK  status: ('A' for Active; 'I' for Inactive)
REMARK    1  A    between atoms: C_1  and  C_21
REMARK    2  A    between atoms: C_2  and  C_16
REMARK    3  A    between atoms: C_21  and  N_24
REMARK    4  A    between atoms: C_25  and  C_33
REMARK                            x       y       z     vdW  Elec       q    Type
REMARK                         _______ _______ _______ _____ _____    ______ ____
ROOT
ATOM      1  C   UNL     1      35.737 -20.430 -20.022  0.00  0.00    -0.006 C 
ATOM      2  C   UNL     1      35.037 -17.869 -20.881  0.00  0.00    +0.054 C 
ATOM      3  C   UNL     1      34.394 -20.091 -20.184  0.00  0.00    -0.024 C 
ATOM      4  C   UNL     1      34.043 -18.811 -20.612  0.00  0.00    +0.000 C 
ATOM      5  C   UNL     1      36.730 -19.487 -20.290  0.00  0.00    -0.003 C 
ATOM      6  C   UNL     1      36.380 -18.207 -20.720  0.00  0.00    +0.004 C 
ATOM      7  C   UNL     1      33.312 -21.082 -19.901  0.00  0.00    +0.031 C 
ENDROOT
BRANCH   2  16
ATOM      8  O   UNL     1      34.247 -15.773 -20.448  0.00  0.00    -0.270 OA
ATOM      9  N   UNL     1      34.789 -16.220 -22.702  0.00  0.00    -0.255 N 
ATOM     10  C   UNL     1      34.199 -18.029 -24.302  0.00  0.00    +0.022 C 
ATOM     11  C   UNL     1      33.015 -17.208 -24.801  0.00  0.00    +0.006 C 
ATOM     12  C   UNL     1      35.305 -17.180 -23.690  0.00  0.00    +0.099 C 
ATOM     13  C   UNL     1      33.436 -15.894 -25.455  0.00  0.00    +0.028 C 
ATOM     14  C   UNL     1      33.787 -14.772 -24.496  0.00  0.00    -0.008 C 
ATOM     15  C   UNL     1      34.359 -14.938 -23.210  0.00  0.00    +0.050 C 
ATOM     16  C   UNL     1      34.668 -16.520 -21.330  0.00  0.00    +0.253 C 
ATOM     17  C   UNL     1      33.484 -13.468 -24.942  0.00  0.00    -0.003 C 
ATOM     18  C   UNL     1      34.565 -13.790 -22.415  0.00  0.00    +0.015 C 
ATOM     19  C   UNL     1      33.699 -12.351 -24.139  0.00  0.00    -0.000 C 
ATOM     20  C   UNL     1      34.236 -12.514 -22.871  0.00  0.00    +0.001 C 
ENDBRANCH   2  16
BRANCH   1  21
ATOM     21  C   UNL     1      36.137 -21.793 -19.564  0.00  0.00    +0.117 C 
BRANCH  21  24
ATOM     22  O   UNL     1      36.964 -22.267 -16.897  0.00  0.00    -0.253 OA
ATOM     23  N   UNL     1      34.842 -22.956 -16.294  0.00  0.00    -0.257 N 
ATOM     24  N   UNL     1      35.300 -22.277 -18.491  0.00  0.00    -0.285 N 
ATOM     25  C   UNL     1      35.131 -23.077 -14.871  0.00  0.00    +0.153 C 
ATOM     26  C   UNL     1      33.763 -23.154 -14.204  0.00  0.00    +0.031 C 
ATOM     27  C   UNL     1      32.883 -23.802 -15.269  0.00  0.00    +0.024 C 
ATOM     28  C   UNL     1      33.435 -23.238 -16.570  0.00  0.00    +0.095 C 
ATOM     29  C   UNL     1      35.789 -22.483 -17.206  0.00  0.00    +0.305 C 
ATOM     30  H   UNL     1      34.351 -22.467 -18.676  0.00  0.00    +0.151 HD
BRANCH  25  33
ATOM     31  O   UNL     1      35.678 -25.309 -15.414  0.00  0.00    -0.273 OA
ATOM     32  N   UNL     1      36.877 -24.339 -13.674  0.00  0.00    -0.275 N 
ATOM     33  C   UNL     1      35.914 -24.343 -14.684  0.00  0.00    +0.244 C 
ATOM     34  C   UNL     1      37.709 -25.500 -13.386  0.00  0.00    +0.115 C 
ATOM     35  C   UNL     1      37.124 -23.170 -12.834  0.00  0.00    +0.115 C 
ENDBRANCH  25  33
ENDBRANCH  21  24
ENDBRANCH   1  21
TORSDOF 4
ENDMDL
MODEL 2
REMARK VINA RESULT:     -10.4      3.250      6.413
REMARK  Name = 10298385
REMARK  4 active torsions:
REMARK  status: ('A' for Active; 'I' for Inactive)
REMARK    1  A    between atoms: C_1  and  C_21
REMARK    2  A    between atoms: C_2  and  C_16
REMARK    3  A    between atoms: C_21  and  N_24
REMARK    4  A    between atoms: C_25  and  C_33
REMARK                            x       y       z     vdW  Elec       q    Type
REMARK                         _______ _______ _______ _____ _____    ______ ____
ROOT
ATOM      1  C   UNL     1      34.306 -15.925 -23.875  0.00  0.00    -0.006 C 
ATOM      2  C   UNL     1      33.882 -13.187 -23.546  0.00  0.00    +0.054 C 
ATOM      3  C   UNL     1      34.690 -15.297 -22.691  0.00  0.00    -0.024 C 
ATOM      4  C   UNL     1      34.480 -13.928 -22.526  0.00  0.00    +0.000 C 
ATOM      5  C   UNL     1      33.710 -15.183 -24.896  0.00  0.00    -0.003 C 
ATOM      6  C   UNL     1      33.498 -13.814 -24.731  0.00  0.00    +0.004 C 
ATOM      7  C   UNL     1      35.333 -16.069 -21.585  0.00  0.00    +0.031 C 
ENDROOT
BRANCH   2  16
ATOM      8  O   UNL     1      34.526 -11.022 -23.868  0.00  0.00    -0.270 OA
ATOM      9  N   UNL     1      32.530 -11.328 -22.645  0.00  0.00    -0.255 N 
ATOM     10  C   UNL     1      31.897 -12.703 -20.673  0.00  0.00    +0.022 C 
ATOM     11  C   UNL     1      32.227 -11.537 -19.748  0.00  0.00    +0.006 C 
ATOM     12  C   UNL     1      31.544 -12.268 -22.088  0.00  0.00    +0.099 C 
ATOM     13  C   UNL     1      31.336 -10.320 -19.985  0.00  0.00    +0.028 C 
ATOM     14  C   UNL     1      31.714  -9.458 -21.176  0.00  0.00    -0.008 C 
ATOM     15  C   UNL     1      32.312  -9.926 -22.372  0.00  0.00    +0.050 C 
ATOM     16  C   UNL     1      33.661 -11.745 -23.374  0.00  0.00    +0.253 C 
ATOM     17  C   UNL     1      31.456  -8.077 -21.039  0.00  0.00    -0.003 C 
ATOM     18  C   UNL     1      32.660  -8.982 -23.361  0.00  0.00    +0.015 C 
ATOM     19  C   UNL     1      31.807  -7.166 -22.032  0.00  0.00    -0.000 C 
ATOM     20  C   UNL     1      32.414  -7.619 -23.193  0.00  0.00    +0.001 C 
ENDBRANCH   2  16
BRANCH   1  21
ATOM     21  C   UNL     1      34.522 -17.388 -24.075  0.00  0.00    +0.117 C 
BRANCH  21  24
ATOM     22  O   UNL     1      33.697 -19.792 -22.824  0.00  0.00    -0.253 OA
ATOM     23  N   UNL     1      35.412 -19.651 -21.280  0.00  0.00    -0.257 N 
ATOM     24  N   UNL     1      35.154 -18.009 -22.934  0.00  0.00    -0.285 N 
ATOM     25  C   UNL     1      35.163 -20.952 -20.672  0.00  0.00    +0.153 C 
ATOM     26  C   UNL     1      36.424 -21.251 -19.869  0.00  0.00    +0.031 C 
ATOM     27  C   UNL     1      36.934 -19.866 -19.480  0.00  0.00    +0.024 C 
ATOM     28  C   UNL     1      36.586 -19.011 -20.690  0.00  0.00    +0.095 C 
ATOM     29  C   UNL     1      34.683 -19.194 -22.380  0.00  0.00    +0.305 C 
ATOM     30  H   UNL     1      35.945 -17.579 -22.535  0.00  0.00    +0.151 HD
BRANCH  25  33
ATOM     31  O   UNL     1      33.342 -19.739 -19.787  0.00  0.00    -0.273 OA
ATOM     32  N   UNL     1      33.617 -21.914 -19.013  0.00  0.00    -0.275 N 
ATOM     33  C   UNL     1      33.961 -20.806 -19.789  0.00  0.00    +0.244 C 
ATOM     34  C   UNL     1      32.471 -21.908 -18.112  0.00  0.00    +0.115 C 
ATOM     35  C   UNL     1      34.379 -23.159 -19.047  0.00  0.00    +0.115 C 
ENDBRANCH  25  33
ENDBRANCH  21  24
ENDBRANCH   1  21
TORSDOF 4
ENDMDL
MODEL 3
REMARK VINA RESULT:     -10.3      6.834     14.610
REMARK  Name = 10298385
REMARK  4 active torsions:
REMARK  status: ('A' for Active; 'I' for Inactive)
REMARK    1  A    between atoms: C_1  and  C_21
REMARK    2  A    between atoms: C_2  and  C_16
REMARK    3  A    between atoms: C_21  and  N_24
REMARK    4  A    between atoms: C_25  and  C_33
REMARK                            x       y       z     vdW  Elec       q    Type
REMARK                         _______ _______ _______ _____ _____    ______ ____
ROOT
ATOM      1  C   UNL     1      32.611  -9.618 -22.305  0.00  0.00    -0.006 C 
ATOM      2  C   UNL     1      33.050 -12.265 -23.068  0.00  0.00    +0.054 C 
ATOM      3  C   UNL     1      31.935 -10.652 -21.657  0.00  0.00    -0.024 C 
ATOM      4  C   UNL     1      32.154 -11.975 -22.039  0.00  0.00    +0.000 C 
ATOM      5  C   UNL     1      33.506  -9.908 -23.335  0.00  0.00    -0.003 C 
ATOM      6  C   UNL     1      33.727 -11.232 -23.716  0.00  0.00    +0.004 C 
ATOM      7  C   UNL     1      30.970 -10.366 -20.554  0.00  0.00    +0.031 C 
ENDROOT
BRANCH   2  16
ATOM      8  O   UNL     1      32.541 -14.072 -24.364  0.00  0.00    -0.270 OA
ATOM      9  N   UNL     1      34.274 -14.392 -22.793  0.00  0.00    -0.255 N 
ATOM     10  C   UNL     1      34.500 -13.983 -20.352  0.00  0.00    +0.022 C 
ATOM     11  C   UNL     1      34.045 -15.409 -20.066  0.00  0.00    +0.006 C 
ATOM     12  C   UNL     1      35.115 -13.813 -21.734  0.00  0.00    +0.099 C 
ATOM     13  C   UNL     1      35.000 -16.462 -20.624  0.00  0.00    +0.028 C 
ATOM     14  C   UNL     1      34.869 -16.738 -22.111  0.00  0.00    -0.008 C 
ATOM     15  C   UNL     1      34.482 -15.791 -23.091  0.00  0.00    +0.050 C 
ATOM     16  C   UNL     1      33.280 -13.659 -23.471  0.00  0.00    +0.253 C 
ATOM     17  C   UNL     1      35.139 -18.063 -22.514  0.00  0.00    -0.003 C 
ATOM     18  C   UNL     1      34.346 -16.226 -24.426  0.00  0.00    +0.015 C 
ATOM     19  C   UNL     1      35.000 -18.467 -23.839  0.00  0.00    -0.000 C 
ATOM     20  C   UNL     1      34.598 -17.547 -24.796  0.00  0.00    +0.001 C 
ENDBRANCH   2  16
BRANCH   1  21
ATOM     21  C   UNL     1      32.392  -8.194 -21.915  0.00  0.00    +0.117 C 
BRANCH  21  24
ATOM     22  O   UNL     1      32.157  -5.372 -21.825  0.00  0.00    -0.253 OA
ATOM     23  N   UNL     1      32.299  -5.224 -24.126  0.00  0.00    -0.257 N 
ATOM     24  N   UNL     1      32.398  -7.307 -23.055  0.00  0.00    -0.285 N 
ATOM     25  C   UNL     1      32.345  -3.768 -24.173  0.00  0.00    +0.153 C 
ATOM     26  C   UNL     1      32.828  -3.441 -25.581  0.00  0.00    +0.031 C 
ATOM     27  C   UNL     1      32.317  -4.613 -26.414  0.00  0.00    +0.024 C 
ATOM     28  C   UNL     1      32.437  -5.796 -25.465  0.00  0.00    +0.095 C 
ATOM     29  C   UNL     1      32.277  -5.928 -22.921  0.00  0.00    +0.305 C 
ATOM     30  H   UNL     1      32.491  -7.691 -23.957  0.00  0.00    +0.151 HD
BRANCH  25  33
ATOM     31  O   UNL     1      30.032  -3.696 -24.640  0.00  0.00    -0.273 OA
ATOM     32  N   UNL     1      30.784  -2.347 -22.902  0.00  0.00    -0.275 N 
ATOM     33  C   UNL     1      30.950  -3.273 -23.933  0.00  0.00    +0.244 C 
ATOM     34  C   UNL     1      29.483  -1.786 -22.562  0.00  0.00    +0.115 C 
ATOM     35  C   UNL     1      31.900  -1.874 -22.089  0.00  0.00    +0.115 C 
ENDBRANCH  25  33
ENDBRANCH  21  24
ENDBRANCH   1  21
TORSDOF 4
ENDMDL
MODEL 4
REMARK VINA RESULT:     -10.3      1.130      2.116
REMARK  Name = 10298385
REMARK  4 active torsions:
REMARK  status: ('A' for Active; 'I' for Inactive)
REMARK    1  A    between atoms: C_1  and  C_21
REMARK    2  A    between atoms: C_2  and  C_16
REMARK    3  A    between atoms: C_21  and  N_24
REMARK    4  A    between atoms: C_25  and  C_33
REMARK                            x       y       z     vdW  Elec       q    Type
REMARK                         _______ _______ _______ _____ _____    ______ ____
ROOT
ATOM      1  C   UNL     1      36.374 -20.280 -19.881  0.00  0.00    -0.006 C 
ATOM      2  C   UNL     1      35.557 -18.376 -21.750  0.00  0.00    +0.054 C 
ATOM      3  C   UNL     1      35.048 -20.250 -20.312  0.00  0.00    -0.024 C 
ATOM      4  C   UNL     1      34.639 -19.298 -21.245  0.00  0.00    +0.000 C 
ATOM      5  C   UNL     1      37.292 -19.357 -20.385  0.00  0.00    -0.003 C 
ATOM      6  C   UNL     1      36.883 -18.406 -21.320  0.00  0.00    +0.004 C 
ATOM      7  C   UNL     1      34.047 -21.225 -19.785  0.00  0.00    +0.031 C 
ENDROOT
BRANCH   2  16
ATOM      8  O   UNL     1      35.557 -17.541 -23.873  0.00  0.00    -0.270 OA
ATOM      9  N   UNL     1      34.310 -16.314 -22.288  0.00  0.00    -0.255 N 
ATOM     10  C   UNL     1      34.801 -15.392 -20.031  0.00  0.00    +0.022 C 
ATOM     11  C   UNL     1      35.216 -14.066 -20.658  0.00  0.00    +0.006 C 
ATOM     12  C   UNL     1      33.840 -16.194 -20.899  0.00  0.00    +0.099 C 
ATOM     13  C   UNL     1      34.071 -13.371 -21.392  0.00  0.00    +0.028 C 
ATOM     14  C   UNL     1      33.764 -13.909 -22.778  0.00  0.00    -0.008 C 
ATOM     15  C   UNL     1      33.930 -15.254 -23.193  0.00  0.00    +0.050 C 
ATOM     16  C   UNL     1      35.126 -17.373 -22.733  0.00  0.00    +0.253 C 
ATOM     17  C   UNL     1      33.299 -12.961 -23.714  0.00  0.00    -0.003 C 
ATOM     18  C   UNL     1      33.658 -15.578 -24.539  0.00  0.00    +0.015 C 
ATOM     19  C   UNL     1      33.036 -13.307 -25.036  0.00  0.00    -0.000 C 
ATOM     20  C   UNL     1      33.221 -14.617 -25.450  0.00  0.00    +0.001 C 
ENDBRANCH   2  16
BRANCH   1  21
ATOM     21  C   UNL     1      36.836 -21.288 -18.882  0.00  0.00    +0.117 C 
BRANCH  21  24
ATOM     22  O   UNL     1      36.934 -22.096 -16.169  0.00  0.00    -0.253 OA
ATOM     23  N   UNL     1      34.717 -22.747 -16.217  0.00  0.00    -0.257 N 
ATOM     24  N   UNL     1      35.741 -21.850 -18.125  0.00  0.00    -0.285 N 
ATOM     25  C   UNL     1      34.624 -23.040 -14.792  0.00  0.00    +0.153 C 
ATOM     26  C   UNL     1      33.128 -23.126 -14.511  0.00  0.00    +0.031 C 
ATOM     27  C   UNL     1      32.546 -23.609 -15.836  0.00  0.00    +0.024 C 
ATOM     28  C   UNL     1      33.425 -22.930 -16.875  0.00  0.00    +0.095 C 
ATOM     29  C   UNL     1      35.875 -22.220 -16.792  0.00  0.00    +0.305 C 
ATOM     30  H   UNL     1      34.870 -21.973 -18.568  0.00  0.00    +0.151 HD
BRANCH  25  33
ATOM     31  O   UNL     1      35.171 -25.257 -15.393  0.00  0.00    -0.273 OA
ATOM     32  N   UNL     1      36.078 -24.465 -13.403  0.00  0.00    -0.275 N 
ATOM     33  C   UNL     1      35.311 -24.353 -14.563  0.00  0.00    +0.244 C 
ATOM     34  C   UNL     1      36.798 -25.685 -13.060  0.00  0.00    +0.115 C 
ATOM     35  C   UNL     1      36.216 -23.368 -12.450  0.00  0.00    +0.115 C 
ENDBRANCH  25  33
ENDBRANCH  21  24
ENDBRANCH   1  21
TORSDOF 4
ENDMDL
MODEL 5
REMARK VINA RESULT:      -9.6      6.704     14.662
REMARK  Name = 10298385
REMARK  4 active torsions:
REMARK  status: ('A' for Active; 'I' for Inactive)
REMARK    1  A    between atoms: C_1  and  C_21
REMARK    2  A    between atoms: C_2  and  C_16
REMARK    3  A    between atoms: C_21  and  N_24
REMARK    4  A    between atoms: C_25  and  C_33
REMARK                            x       y       z     vdW  Elec       q    Type
REMARK                         _______ _______ _______ _____ _____    ______ ____
ROOT
ATOM      1  C   UNL     1      32.501  -9.776 -23.170  0.00  0.00    -0.006 C 
ATOM      2  C   UNL     1      33.061 -12.488 -23.512  0.00  0.00    +0.054 C 
ATOM      3  C   UNL     1      31.783 -10.732 -22.452  0.00  0.00    -0.024 C 
ATOM      4  C   UNL     1      32.062 -12.088 -22.624  0.00  0.00    +0.000 C 
ATOM      5  C   UNL     1      33.499 -10.177 -24.059  0.00  0.00    -0.003 C 
ATOM      6  C   UNL     1      33.779 -11.532 -24.230  0.00  0.00    +0.004 C 
ATOM      7  C   UNL     1      30.709 -10.329 -21.497  0.00  0.00    +0.031 C 
ENDROOT
BRANCH   2  16
ATOM      8  O   UNL     1      32.689 -14.478 -24.563  0.00  0.00    -0.270 OA
ATOM      9  N   UNL     1      34.317 -14.509 -22.854  0.00  0.00    -0.255 N 
ATOM     10  C   UNL     1      34.364 -13.749 -20.488  0.00  0.00    +0.022 C 
ATOM     11  C   UNL     1      33.927 -15.135 -20.029  0.00  0.00    +0.006 C 
ATOM     12  C   UNL     1      35.068 -13.756 -21.838  0.00  0.00    +0.099 C 
ATOM     13  C   UNL     1      34.945 -16.222 -20.366  0.00  0.00    +0.028 C 
ATOM     14  C   UNL     1      34.924 -16.711 -21.803  0.00  0.00    -0.008 C 
ATOM     15  C   UNL     1      34.580 -15.928 -22.933  0.00  0.00    +0.050 C 
ATOM     16  C   UNL     1      33.354 -13.916 -23.694  0.00  0.00    +0.253 C 
ATOM     17  C   UNL     1      35.255 -18.070 -21.992  0.00  0.00    -0.003 C 
ATOM     18  C   UNL     1      34.549 -16.554 -24.197  0.00  0.00    +0.015 C 
ATOM     19  C   UNL     1      35.219 -18.663 -23.251  0.00  0.00    -0.000 C 
ATOM     20  C   UNL     1      34.859 -17.904 -24.354  0.00  0.00    +0.001 C 
ENDBRANCH   2  16
BRANCH   1  21
ATOM     21  C   UNL     1      32.221  -8.319 -23.004  0.00  0.00    +0.117 C 
BRANCH  21  24
ATOM     22  O   UNL     1      31.558  -6.295 -24.871  0.00  0.00    -0.253 OA
ATOM     23  N   UNL     1      33.788  -5.819 -25.242  0.00  0.00    -0.257 N 
ATOM     24  N   UNL     1      33.160  -7.495 -23.728  0.00  0.00    -0.285 N 
ATOM     25  C   UNL     1      33.547  -4.659 -26.091  0.00  0.00    +0.153 C 
ATOM     26  C   UNL     1      34.889  -3.938 -26.151  0.00  0.00    +0.031 C 
ATOM     27  C   UNL     1      35.905  -5.063 -25.986  0.00  0.00    +0.024 C 
ATOM     28  C   UNL     1      35.219  -6.016 -25.018  0.00  0.00    +0.095 C 
ATOM     29  C   UNL     1      32.747  -6.520 -24.630  0.00  0.00    +0.305 C 
ATOM     30  H   UNL     1      34.124  -7.627 -23.578  0.00  0.00    +0.151 HD
BRANCH  25  33
ATOM     31  O   UNL     1      33.420  -6.330 -27.754  0.00  0.00    -0.273 OA
ATOM     32  N   UNL     1      32.425  -4.288 -28.253  0.00  0.00    -0.275 N 
ATOM     33  C   UNL     1      33.129  -5.173 -27.436  0.00  0.00    +0.244 C 
ATOM     34  C   UNL     1      31.959  -4.659 -29.583  0.00  0.00    +0.115 C 
ATOM     35  C   UNL     1      32.102  -2.927 -27.835  0.00  0.00    +0.115 C 
ENDBRANCH  25  33
ENDBRANCH  21  24
ENDBRANCH   1  21
TORSDOF 4
ENDMDL
MODEL 6
REMARK VINA RESULT:      -9.5      6.803     14.688
REMARK  Name = 10298385
REMARK  4 active torsions:
REMARK  status: ('A' for Active; 'I' for Inactive)
REMARK    1  A    between atoms: C_1  and  C_21
REMARK    2  A    between atoms: C_2  and  C_16
REMARK    3  A    between atoms: C_21  and  N_24
REMARK    4  A    between atoms: C_25  and  C_33
REMARK                            x       y       z     vdW  Elec       q    Type
REMARK                         _______ _______ _______ _____ _____    ______ ____
ROOT
ATOM      1  C   UNL     1      32.502  -9.690 -22.496  0.00  0.00    -0.006 C 
ATOM      2  C   UNL     1      33.033 -12.343 -23.179  0.00  0.00    +0.054 C 
ATOM      3  C   UNL     1      33.654 -10.008 -23.214  0.00  0.00    -0.024 C 
ATOM      4  C   UNL     1      33.921 -11.335 -23.554  0.00  0.00    +0.000 C 
ATOM      5  C   UNL     1      31.615 -10.700 -22.119  0.00  0.00    -0.003 C 
ATOM      6  C   UNL     1      31.880 -12.026 -22.462  0.00  0.00    +0.004 C 
ATOM      7  C   UNL     1      34.621  -8.946 -23.625  0.00  0.00    +0.031 C 
ENDROOT
BRANCH   2  16
ATOM      8  O   UNL     1      32.624 -14.193 -24.449  0.00  0.00    -0.270 OA
ATOM      9  N   UNL     1      34.295 -14.431 -22.799  0.00  0.00    -0.255 N 
ATOM     10  C   UNL     1      34.406 -13.957 -20.361  0.00  0.00    +0.022 C 
ATOM     11  C   UNL     1      33.974 -15.387 -20.058  0.00  0.00    +0.006 C 
ATOM     12  C   UNL     1      35.076 -13.805 -21.720  0.00  0.00    +0.099 C 
ATOM     13  C   UNL     1      34.978 -16.428 -20.548  0.00  0.00    +0.028 C 
ATOM     14  C   UNL     1      34.917 -16.743 -22.032  0.00  0.00    -0.008 C 
ATOM     15  C   UNL     1      34.549 -15.830 -23.052  0.00  0.00    +0.050 C 
ATOM     16  C   UNL     1      33.314 -13.740 -23.537  0.00  0.00    +0.253 C 
ATOM     17  C   UNL     1      35.237 -18.070 -22.390  0.00  0.00    -0.003 C 
ATOM     18  C   UNL     1      34.482 -16.302 -24.380  0.00  0.00    +0.015 C 
ATOM     19  C   UNL     1      35.164 -18.510 -23.709  0.00  0.00    -0.000 C 
ATOM     20  C   UNL     1      34.781 -17.625 -24.705  0.00  0.00    +0.001 C 
ENDBRANCH   2  16
BRANCH   1  21
ATOM     21  C   UNL     1      32.196  -8.279 -22.119  0.00  0.00    +0.117 C 
BRANCH  21  24
ATOM     22  O   UNL     1      32.070  -5.451 -22.008  0.00  0.00    -0.253 OA
ATOM     23  N   UNL     1      32.275  -5.289 -24.304  0.00  0.00    -0.257 N 
ATOM     24  N   UNL     1      32.264  -7.383 -23.250  0.00  0.00    -0.285 N 
ATOM     25  C   UNL     1      32.379  -3.836 -24.336  0.00  0.00    +0.153 C 
ATOM     26  C   UNL     1      32.910  -3.516 -25.729  0.00  0.00    +0.031 C 
ATOM     27  C   UNL     1      32.374  -4.660 -26.584  0.00  0.00    +0.024 C 
ATOM     28  C   UNL     1      32.424  -5.855 -25.644  0.00  0.00    +0.095 C 
ATOM     29  C   UNL     1      32.195  -6.002 -23.106  0.00  0.00    +0.305 C 
ATOM     30  H   UNL     1      32.365  -7.763 -24.153  0.00  0.00    +0.151 HD
BRANCH  25  33
ATOM     31  O   UNL     1      30.090  -3.644 -24.878  0.00  0.00    -0.273 OA
ATOM     32  N   UNL     1      30.837  -2.393 -23.067  0.00  0.00    -0.275 N 
ATOM     33  C   UNL     1      31.000  -3.287 -24.125  0.00  0.00    +0.244 C 
ATOM     34  C   UNL     1      29.550  -1.786 -22.751  0.00  0.00    +0.115 C 
ATOM     35  C   UNL     1      31.943  -2.000 -22.199  0.00  0.00    +0.115 C 
ENDBRANCH  25  33
ENDBRANCH  21  24
ENDBRANCH   1  21
TORSDOF 4
ENDMDL
MODEL 7
REMARK VINA RESULT:      -9.4     10.306     17.371
REMARK  Name = 10298385
REMARK  4 active torsions:
REMARK  status: ('A' for Active; 'I' for Inactive)
REMARK    1  A    between atoms: C_1  and  C_21
REMARK    2  A    between atoms: C_2  and  C_16
REMARK    3  A    between atoms: C_21  and  N_24
REMARK    4  A    between atoms: C_25  and  C_33
REMARK                            x       y       z     vdW  Elec       q    Type
REMARK                         _______ _______ _______ _____ _____    ______ ____
ROOT
ATOM      1  C   UNL     1      31.817  -3.810 -23.194  0.00  0.00    -0.006 C 
ATOM      2  C   UNL     1      32.094  -6.187 -21.759  0.00  0.00    +0.054 C 
ATOM      3  C   UNL     1      31.048  -4.028 -22.051  0.00  0.00    -0.024 C 
ATOM      4  C   UNL     1      31.186  -5.217 -21.334  0.00  0.00    +0.000 C 
ATOM      5  C   UNL     1      32.724  -4.781 -23.619  0.00  0.00    -0.003 C 
ATOM      6  C   UNL     1      32.864  -5.969 -22.902  0.00  0.00    +0.004 C 
ATOM      7  C   UNL     1      30.068  -3.006 -21.577  0.00  0.00    +0.031 C 
ENDROOT
BRANCH   2  16
ATOM      8  O   UNL     1      32.816  -7.333 -19.923  0.00  0.00    -0.270 OA
ATOM      9  N   UNL     1      31.752  -8.626 -21.587  0.00  0.00    -0.255 N 
ATOM     10  C   UNL     1      32.043  -8.872 -24.044  0.00  0.00    +0.022 C 
ATOM     11  C   UNL     1      32.999 -10.037 -23.819  0.00  0.00    +0.006 C 
ATOM     12  C   UNL     1      31.071  -8.659 -22.891  0.00  0.00    +0.099 C 
ATOM     13  C   UNL     1      32.333 -11.230 -23.136  0.00  0.00    +0.028 C 
ATOM     14  C   UNL     1      32.158 -11.107 -21.634  0.00  0.00    -0.008 C 
ATOM     15  C   UNL     1      31.946  -9.897 -20.927  0.00  0.00    +0.050 C 
ATOM     16  C   UNL     1      32.239  -7.439 -21.005  0.00  0.00    +0.253 C 
ATOM     17  C   UNL     1      32.243 -12.313 -20.906  0.00  0.00    -0.003 C 
ATOM     18  C   UNL     1      31.867  -9.948 -19.519  0.00  0.00    +0.015 C 
ATOM     19  C   UNL     1      32.160 -12.337 -19.517  0.00  0.00    -0.000 C 
ATOM     20  C   UNL     1      31.977 -11.151 -18.822  0.00  0.00    +0.001 C 
ENDBRANCH   2  16
BRANCH   1  21
ATOM     21  C   UNL     1      31.686  -2.547 -23.978  0.00  0.00    +0.117 C 
BRANCH  21  24
ATOM     22  O   UNL     1      31.617  -3.398 -26.678  0.00  0.00    -0.253 OA
ATOM     23  N   UNL     1      33.756  -2.606 -27.049  0.00  0.00    -0.257 N 
ATOM     24  N   UNL     1      32.749  -2.389 -24.943  0.00  0.00    -0.285 N 
ATOM     25  C   UNL     1      33.756  -2.862 -28.484  0.00  0.00    +0.153 C 
ATOM     26  C   UNL     1      34.936  -2.060 -29.020  0.00  0.00    +0.031 C 
ATOM     27  C   UNL     1      35.910  -2.032 -27.846  0.00  0.00    +0.024 C 
ATOM     28  C   UNL     1      34.996  -1.952 -26.633  0.00  0.00    +0.095 C 
ATOM     29  C   UNL     1      32.632  -2.838 -26.254  0.00  0.00    +0.305 C 
ATOM     30  H   UNL     1      33.585  -1.949 -24.664  0.00  0.00    +0.151 HD
BRANCH  25  33
ATOM     31  O   UNL     1      34.939  -4.880 -28.165  0.00  0.00    -0.273 OA
ATOM     32  N   UNL     1      32.987  -5.007 -29.421  0.00  0.00    -0.275 N 
ATOM     33  C   UNL     1      33.954  -4.337 -28.671  0.00  0.00    +0.244 C 
ATOM     34  C   UNL     1      33.056  -6.440 -29.678  0.00  0.00    +0.115 C 
ATOM     35  C   UNL     1      31.835  -4.323 -30.000  0.00  0.00    +0.115 C 
ENDBRANCH  25  33
ENDBRANCH  21  24
ENDBRANCH   1  21
TORSDOF 4
ENDMDL
MODEL 8
REMARK VINA RESULT:      -9.4      2.417      9.940
REMARK  Name = 10298385
REMARK  4 active torsions:
REMARK  status: ('A' for Active; 'I' for Inactive)
REMARK    1  A    between atoms: C_1  and  C_21
REMARK    2  A    between atoms: C_2  and  C_16
REMARK    3  A    between atoms: C_21  and  N_24
REMARK    4  A    between atoms: C_25  and  C_33
REMARK                            x       y       z     vdW  Elec       q    Type
REMARK                         _______ _______ _______ _____ _____    ______ ____
ROOT
ATOM      1  C   UNL     1      35.063 -19.064 -22.480  0.00  0.00    -0.006 C 
ATOM      2  C   UNL     1      33.892 -20.295 -20.267  0.00  0.00    +0.054 C 
ATOM      3  C   UNL     1      35.801 -19.244 -21.311  0.00  0.00    -0.024 C 
ATOM      4  C   UNL     1      35.216 -19.859 -20.203  0.00  0.00    +0.000 C 
ATOM      5  C   UNL     1      33.739 -19.499 -22.542  0.00  0.00    -0.003 C 
ATOM      6  C   UNL     1      33.154 -20.115 -21.436  0.00  0.00    +0.004 C 
ATOM      7  C   UNL     1      37.219 -18.785 -21.218  0.00  0.00    +0.031 C 
ENDROOT
BRANCH   2  16
ATOM      8  O   UNL     1      32.171 -20.499 -18.784  0.00  0.00    -0.270 OA
ATOM      9  N   UNL     1      33.997 -21.956 -18.443  0.00  0.00    -0.255 N 
ATOM     10  C   UNL     1      36.456 -21.642 -18.256  0.00  0.00    +0.022 C 
ATOM     11  C   UNL     1      36.331 -21.526 -16.742  0.00  0.00    +0.006 C 
ATOM     12  C   UNL     1      35.316 -22.423 -18.896  0.00  0.00    +0.099 C 
ATOM     13  C   UNL     1      35.802 -22.801 -16.088  0.00  0.00    +0.028 C 
ATOM     14  C   UNL     1      34.301 -23.005 -16.179  0.00  0.00    -0.008 C 
ATOM     15  C   UNL     1      33.474 -22.564 -17.242  0.00  0.00    +0.050 C 
ATOM     16  C   UNL     1      33.275 -20.941 -19.101  0.00  0.00    +0.253 C 
ATOM     17  C   UNL     1      33.707 -23.672 -15.086  0.00  0.00    -0.003 C 
ATOM     18  C   UNL     1      32.083 -22.779 -17.141  0.00  0.00    +0.015 C 
ATOM     19  C   UNL     1      32.331 -23.874 -15.013  0.00  0.00    -0.000 C 
ATOM     20  C   UNL     1      31.518 -23.421 -16.040  0.00  0.00    +0.001 C 
ENDBRANCH   2  16
BRANCH   1  21
ATOM     21  C   UNL     1      35.668 -18.408 -23.677  0.00  0.00    +0.117 C 
BRANCH  21  24
ATOM     22  O   UNL     1      35.320 -16.161 -21.987  0.00  0.00    -0.253 OA
ATOM     23  N   UNL     1      34.182 -15.015 -23.640  0.00  0.00    -0.257 N 
ATOM     24  N   UNL     1      34.992 -17.180 -24.028  0.00  0.00    -0.285 N 
ATOM     25  C   UNL     1      34.093 -13.759 -22.907  0.00  0.00    +0.153 C 
ATOM     26  C   UNL     1      33.712 -12.723 -23.958  0.00  0.00    +0.031 C 
ATOM     27  C   UNL     1      32.916 -13.529 -24.980  0.00  0.00    +0.024 C 
ATOM     28  C   UNL     1      33.614 -14.882 -24.981  0.00  0.00    +0.095 C 
ATOM     29  C   UNL     1      34.867 -16.122 -23.135  0.00  0.00    +0.305 C 
ATOM     30  H   UNL     1      34.609 -17.089 -24.931  0.00  0.00    +0.151 HD
BRANCH  25  33
ATOM     31  O   UNL     1      31.838 -13.923 -22.228  0.00  0.00    -0.273 OA
ATOM     32  N   UNL     1      33.441 -14.073 -20.551  0.00  0.00    -0.275 N 
ATOM     33  C   UNL     1      33.019 -13.924 -21.873  0.00  0.00    +0.244 C 
ATOM     34  C   UNL     1      32.504 -14.243 -19.449  0.00  0.00    +0.115 C 
ATOM     35  C   UNL     1      34.852 -14.069 -20.177  0.00  0.00    +0.115 C 
ENDBRANCH  25  33
ENDBRANCH  21  24
ENDBRANCH   1  21
TORSDOF 4
ENDMDL
MODEL 9
REMARK VINA RESULT:      -9.2      1.410      2.325
REMARK  Name = 10298385
REMARK  4 active torsions:
REMARK  status: ('A' for Active; 'I' for Inactive)
REMARK    1  A    between atoms: C_1  and  C_21
REMARK    2  A    between atoms: C_2  and  C_16
REMARK    3  A    between atoms: C_21  and  N_24
REMARK    4  A    between atoms: C_25  and  C_33
REMARK                            x       y       z     vdW  Elec       q    Type
REMARK                         _______ _______ _______ _____ _____    ______ ____
ROOT
ATOM      1  C   UNL     1      35.565 -20.477 -20.131  0.00  0.00    -0.006 C 
ATOM      2  C   UNL     1      34.931 -17.867 -20.886  0.00  0.00    +0.054 C 
ATOM      3  C   UNL     1      34.230 -20.094 -20.263  0.00  0.00    -0.024 C 
ATOM      4  C   UNL     1      33.913 -18.789 -20.639  0.00  0.00    +0.000 C 
ATOM      5  C   UNL     1      36.582 -19.555 -20.377  0.00  0.00    -0.003 C 
ATOM      6  C   UNL     1      36.265 -18.250 -20.755  0.00  0.00    +0.004 C 
ATOM      7  C   UNL     1      33.123 -21.062 -20.002  0.00  0.00    +0.031 C 
ENDROOT
BRANCH   2  16
ATOM      8  O   UNL     1      34.157 -15.783 -20.378  0.00  0.00    -0.270 OA
ATOM      9  N   UNL     1      34.769 -16.128 -22.632  0.00  0.00    -0.255 N 
ATOM     10  C   UNL     1      34.210 -17.848 -24.338  0.00  0.00    +0.022 C 
ATOM     11  C   UNL     1      33.056 -16.986 -24.836  0.00  0.00    +0.006 C 
ATOM     12  C   UNL     1      35.306 -17.048 -23.648  0.00  0.00    +0.099 C 
ATOM     13  C   UNL     1      33.518 -15.648 -25.411  0.00  0.00    +0.028 C 
ATOM     14  C   UNL     1      33.851 -14.579 -24.386  0.00  0.00    -0.008 C 
ATOM     15  C   UNL     1      34.375 -14.816 -23.091  0.00  0.00    +0.050 C 
ATOM     16  C   UNL     1      34.597 -16.493 -21.282  0.00  0.00    +0.253 C 
ATOM     17  C   UNL     1      33.582 -13.250 -24.778  0.00  0.00    -0.003 C 
ATOM     18  C   UNL     1      34.570 -13.712 -22.235  0.00  0.00    +0.015 C 
ATOM     19  C   UNL     1      33.785 -12.178 -23.914  0.00  0.00    -0.000 C 
ATOM     20  C   UNL     1      34.275 -12.410 -22.638  0.00  0.00    +0.001 C 
ENDBRANCH   2  16
BRANCH   1  21
ATOM     21  C   UNL     1      35.929 -21.868 -19.729  0.00  0.00    +0.117 C 
BRANCH  21  24
ATOM     22  O   UNL     1      34.026 -23.551 -18.476  0.00  0.00    -0.253 OA
ATOM     23  N   UNL     1      34.835 -23.012 -16.380  0.00  0.00    -0.257 N 
ATOM     24  N   UNL     1      35.792 -22.080 -18.306  0.00  0.00    -0.285 N 
ATOM     25  C   UNL     1      34.005 -23.967 -15.657  0.00  0.00    +0.153 C 
ATOM     26  C   UNL     1      34.642 -24.065 -14.275  0.00  0.00    +0.031 C 
ATOM     27  C   UNL     1      35.270 -22.689 -14.075  0.00  0.00    +0.024 C 
ATOM     28  C   UNL     1      35.743 -22.312 -15.472  0.00  0.00    +0.095 C 
ATOM     29  C   UNL     1      34.827 -22.927 -17.774  0.00  0.00    +0.305 C 
ATOM     30  H   UNL     1      36.403 -21.609 -17.694  0.00  0.00    +0.151 HD
BRANCH  25  33
ATOM     31  O   UNL     1      32.319 -22.468 -16.351  0.00  0.00    -0.273 OA
ATOM     32  N   UNL     1      31.751 -23.960 -14.661  0.00  0.00    -0.275 N 
ATOM     33  C   UNL     1      32.621 -23.394 -15.593  0.00  0.00    +0.244 C 
ATOM     34  C   UNL     1      30.379 -23.499 -14.496  0.00  0.00    +0.115 C 
ATOM     35  C   UNL     1      32.152 -25.057 -13.784  0.00  0.00    +0.115 C 
ENDBRANCH  25  33
ENDBRANCH  21  24
ENDBRANCH   1  21
TORSDOF 4
ENDMDL
