MODEL 1
REMARK VINA RESULT:     -12.7      0.000      0.000
REMARK  Name = 58212050
REMARK  2 active torsions:
REMARK  status: ('A' for Active; 'I' for Inactive)
REMARK    1  A    between atoms: C_2  and  C_13
REMARK    2  A    between atoms: C_10  and  C_26
REMARK                            x       y       z     vdW  Elec       q    Type
REMARK                         _______ _______ _______ _____ _____    ______ ____
ROOT
ATOM      1  N   UNL     1      36.987 -22.898 -16.425  0.00  0.00    +0.389 N 
ATOM      2  C   UNL     1      34.544 -23.164 -16.719  0.00  0.00    +0.023 C 
ATOM      3  C   UNL     1      35.712 -23.033 -15.712  0.00  0.00    -0.068 C 
ATOM      4  C   UNL     1      34.636 -22.163 -17.865  0.00  0.00    -0.026 C 
ATOM      5  C   UNL     1      35.831 -21.452 -18.082  0.00  0.00    -0.047 C 
ATOM      6  C   UNL     1      37.013 -21.621 -17.155  0.00  0.00    -0.050 C 
ATOM      7  C   UNL     1      33.572 -21.996 -18.768  0.00  0.00    -0.004 C 
ATOM      8  C   UNL     1      35.916 -20.541 -19.146  0.00  0.00    -0.005 C 
ATOM      9  C   UNL     1      38.112 -22.972 -15.491  0.00  0.00    -0.100 C 
ATOM     10  C   UNL     1      34.841 -20.365 -20.015  0.00  0.00    +0.019 C 
ATOM     11  C   UNL     1      33.672 -21.097 -19.830  0.00  0.00    +0.001 C 
ATOM     12  H   UNL     1      37.077 -23.667 -17.090  0.00  0.00    -0.079 HD
ENDROOT
BRANCH   2  13
ATOM     13  C   UNL     1      33.222 -23.130 -15.962  0.00  0.00    -0.020 C 
ATOM     14  C   UNL     1      32.022 -22.992 -16.660  0.00  0.00    -0.004 C 
ATOM     15  C   UNL     1      33.213 -23.237 -14.575  0.00  0.00    -0.004 C 
ATOM     16  C   UNL     1      30.796 -22.958 -15.977  0.00  0.00    -0.000 C 
ATOM     17  C   UNL     1      30.786 -23.065 -14.566  0.00  0.00    -0.000 C 
ATOM     18  C   UNL     1      32.003 -23.204 -13.880  0.00  0.00    -0.000 C 
ATOM     19  C   UNL     1      29.578 -22.818 -16.664  0.00  0.00    -0.000 C 
ATOM     20  C   UNL     1      29.560 -23.031 -13.882  0.00  0.00    -0.000 C 
ATOM     21  C   UNL     1      28.369 -22.786 -15.969  0.00  0.00    -0.000 C 
ATOM     22  C   UNL     1      28.359 -22.892 -14.581  0.00  0.00    -0.000 C 
ENDBRANCH   2  13
BRANCH  10  26
ATOM     23  N   UNL     1      35.390 -18.197 -20.784  0.00  0.00    -0.147 NA
ATOM     24  N   UNL     1      35.515 -17.255 -21.758  0.00  0.00    -0.133 NA
ATOM     25  N   UNL     1      35.318 -16.597 -24.041  0.00  0.00    -0.341 N 
ATOM     26  C   UNL     1      34.942 -19.428 -21.113  0.00  0.00    +0.103 C 
ATOM     27  C   UNL     1      34.601 -19.783 -22.402  0.00  0.00    +0.024 C 
ATOM     28  C   UNL     1      34.728 -18.826 -23.393  0.00  0.00    +0.037 C 
ATOM     29  C   UNL     1      35.188 -17.576 -23.028  0.00  0.00    +0.147 C 
ATOM     30  H   UNL     1      35.643 -15.696 -23.815  0.00  0.00    +0.144 HD
ATOM     31  H   UNL     1      35.082 -16.817 -24.971  0.00  0.00    +0.144 HD
ENDBRANCH  10  26
TORSDOF 2
ENDMDL
MODEL 2
REMARK VINA RESULT:     -12.3      8.153     13.886
REMARK  Name = 58212050
REMARK  2 active torsions:
REMARK  status: ('A' for Active; 'I' for Inactive)
REMARK    1  A    between atoms: C_2  and  C_13
REMARK    2  A    between atoms: C_10  and  C_26
REMARK                            x       y       z     vdW  Elec       q    Type
REMARK                         _______ _______ _______ _____ _____    ______ ____
ROOT
ATOM      1  N   UNL     1      31.124 -10.376 -20.373  0.00  0.00    +0.389 N 
ATOM      2  C   UNL     1      32.113  -9.698 -22.539  0.00  0.00    +0.023 C 
ATOM      3  C   UNL     1      31.799  -9.283 -21.081  0.00  0.00    -0.068 C 
ATOM      4  C   UNL     1      32.697 -11.102 -22.641  0.00  0.00    -0.026 C 
ATOM      5  C   UNL     1      32.634 -11.972 -21.536  0.00  0.00    -0.047 C 
ATOM      6  C   UNL     1      32.049 -11.511 -20.221  0.00  0.00    -0.050 C 
ATOM      7  C   UNL     1      33.224 -11.580 -23.852  0.00  0.00    -0.004 C 
ATOM      8  C   UNL     1      33.161 -13.268 -21.638  0.00  0.00    -0.005 C 
ATOM      9  C   UNL     1      30.649  -9.929 -19.063  0.00  0.00    -0.100 C 
ATOM     10  C   UNL     1      33.708 -13.717 -22.839  0.00  0.00    +0.019 C 
ATOM     11  C   UNL     1      33.733 -12.875 -23.947  0.00  0.00    +0.001 C 
ATOM     12  H   UNL     1      30.315 -10.673 -20.919  0.00  0.00    -0.079 HD
ENDROOT
BRANCH   2  13
ATOM     13  C   UNL     1      32.961  -8.616 -23.197  0.00  0.00    -0.020 C 
ATOM     14  C   UNL     1      32.382  -7.736 -24.112  0.00  0.00    -0.004 C 
ATOM     15  C   UNL     1      34.313  -8.508 -22.886  0.00  0.00    -0.004 C 
ATOM     16  C   UNL     1      33.150  -6.735 -24.728  0.00  0.00    -0.000 C 
ATOM     17  C   UNL     1      34.525  -6.625 -24.412  0.00  0.00    -0.000 C 
ATOM     18  C   UNL     1      35.091  -7.519 -23.489  0.00  0.00    -0.000 C 
ATOM     19  C   UNL     1      32.582  -5.841 -25.651  0.00  0.00    -0.000 C 
ATOM     20  C   UNL     1      35.293  -5.624 -25.029  0.00  0.00    -0.000 C 
ATOM     21  C   UNL     1      33.360  -4.853 -26.254  0.00  0.00    -0.000 C 
ATOM     22  C   UNL     1      34.713  -4.744 -25.944  0.00  0.00    -0.000 C 
ENDBRANCH   2  13
BRANCH  10  26
ATOM     23  N   UNL     1      34.772 -15.553 -21.796  0.00  0.00    -0.147 NA
ATOM     24  N   UNL     1      35.296 -16.808 -21.801  0.00  0.00    -0.133 NA
ATOM     25  N   UNL     1      35.818 -18.832 -22.949  0.00  0.00    -0.341 N 
ATOM     26  C   UNL     1      34.242 -15.057 -22.935  0.00  0.00    +0.103 C 
ATOM     27  C   UNL     1      34.205 -15.769 -24.118  0.00  0.00    +0.024 C 
ATOM     28  C   UNL     1      34.738 -17.045 -24.122  0.00  0.00    +0.037 C 
ATOM     29  C   UNL     1      35.273 -17.526 -22.944  0.00  0.00    +0.147 C 
ATOM     30  H   UNL     1      36.208 -19.206 -22.126  0.00  0.00    +0.144 HD
ATOM     31  H   UNL     1      35.809 -19.366 -23.776  0.00  0.00    +0.144 HD
ENDBRANCH  10  26
TORSDOF 2
ENDMDL
MODEL 3
REMARK VINA RESULT:     -12.3      7.840     13.400
REMARK  Name = 58212050
REMARK  2 active torsions:
REMARK  status: ('A' for Active; 'I' for Inactive)
REMARK    1  A    between atoms: C_2  and  C_13
REMARK    2  A    between atoms: C_10  and  C_26
REMARK                            x       y       z     vdW  Elec       q    Type
REMARK                         _______ _______ _______ _____ _____    ______ ____
ROOT
ATOM      1  N   UNL     1      31.078 -10.600 -19.536  0.00  0.00    +0.389 N 
ATOM      2  C   UNL     1      31.535 -10.128 -21.923  0.00  0.00    +0.023 C 
ATOM      3  C   UNL     1      31.440  -9.547 -20.492  0.00  0.00    -0.068 C 
ATOM      4  C   UNL     1      32.290 -11.450 -21.977  0.00  0.00    -0.026 C 
ATOM      5  C   UNL     1      32.564 -12.152 -20.787  0.00  0.00    -0.047 C 
ATOM      6  C   UNL     1      32.172 -11.581 -19.444  0.00  0.00    -0.050 C 
ATOM      7  C   UNL     1      32.647 -12.031 -23.205  0.00  0.00    -0.004 C 
ATOM      8  C   UNL     1      33.248 -13.375 -20.842  0.00  0.00    -0.005 C 
ATOM      9  C   UNL     1      30.795 -10.030 -18.219  0.00  0.00    -0.100 C 
ATOM     10  C   UNL     1      33.622 -13.923 -22.068  0.00  0.00    +0.019 C 
ATOM     11  C   UNL     1      33.315 -13.255 -23.249  0.00  0.00    +0.001 C 
ATOM     12  H   UNL     1      30.235 -11.069 -19.866  0.00  0.00    -0.079 HD
ENDROOT
BRANCH   2  13
ATOM     13  C   UNL     1      32.076  -9.058 -22.864  0.00  0.00    -0.020 C 
ATOM     14  C   UNL     1      33.373  -8.572 -22.694  0.00  0.00    -0.004 C 
ATOM     15  C   UNL     1      31.276  -8.566 -23.891  0.00  0.00    -0.004 C 
ATOM     16  C   UNL     1      33.886  -7.585 -23.551  0.00  0.00    -0.000 C 
ATOM     17  C   UNL     1      33.073  -7.085 -24.596  0.00  0.00    -0.000 C 
ATOM     18  C   UNL     1      31.770  -7.585 -24.752  0.00  0.00    -0.000 C 
ATOM     19  C   UNL     1      35.189  -7.085 -23.394  0.00  0.00    -0.000 C 
ATOM     20  C   UNL     1      33.586  -6.097 -25.453  0.00  0.00    -0.000 C 
ATOM     21  C   UNL     1      35.683  -6.104 -24.255  0.00  0.00    -0.000 C 
ATOM     22  C   UNL     1      34.883  -5.611 -25.282  0.00  0.00    -0.000 C 
ENDBRANCH   2  13
BRANCH  10  26
ATOM     23  N   UNL     1      34.664 -15.704 -20.912  0.00  0.00    -0.147 NA
ATOM     24  N   UNL     1      35.324 -16.892 -20.865  0.00  0.00    -0.133 NA
ATOM     25  N   UNL     1      36.306 -18.763 -21.972  0.00  0.00    -0.341 N 
ATOM     26  C   UNL     1      34.320 -15.189 -22.112  0.00  0.00    +0.103 C 
ATOM     27  C   UNL     1      34.609 -15.815 -23.308  0.00  0.00    +0.024 C 
ATOM     28  C   UNL     1      35.280 -17.024 -23.260  0.00  0.00    +0.037 C 
ATOM     29  C   UNL     1      35.619 -17.527 -22.020  0.00  0.00    +0.147 C 
ATOM     30  H   UNL     1      36.562 -19.149 -21.103  0.00  0.00    +0.144 HD
ATOM     31  H   UNL     1      36.528 -19.235 -22.806  0.00  0.00    +0.144 HD
ENDBRANCH  10  26
TORSDOF 2
ENDMDL
MODEL 4
REMARK VINA RESULT:     -10.6     10.903     17.063
REMARK  Name = 58212050
REMARK  2 active torsions:
REMARK  status: ('A' for Active; 'I' for Inactive)
REMARK    1  A    between atoms: C_2  and  C_13
REMARK    2  A    between atoms: C_10  and  C_26
REMARK                            x       y       z     vdW  Elec       q    Type
REMARK                         _______ _______ _______ _____ _____    ______ ____
ROOT
ATOM      1  N   UNL     1      30.828  -5.067 -22.478  0.00  0.00    +0.389 N 
ATOM      2  C   UNL     1      31.993  -6.072 -24.418  0.00  0.00    +0.023 C 
ATOM      3  C   UNL     1      31.847  -4.829 -23.507  0.00  0.00    -0.068 C 
ATOM      4  C   UNL     1      32.042  -7.377 -23.634  0.00  0.00    -0.026 C 
ATOM      5  C   UNL     1      31.676  -7.395 -22.274  0.00  0.00    -0.047 C 
ATOM      6  C   UNL     1      31.291  -6.120 -21.559  0.00  0.00    -0.050 C 
ATOM      7  C   UNL     1      32.366  -8.590 -24.265  0.00  0.00    -0.004 C 
ATOM      8  C   UNL     1      31.709  -8.602 -21.559  0.00  0.00    -0.005 C 
ATOM      9  C   UNL     1      30.542  -3.838 -21.738  0.00  0.00    -0.100 C 
ATOM     10  C   UNL     1      32.062  -9.791 -22.194  0.00  0.00    +0.019 C 
ATOM     11  C   UNL     1      32.383  -9.786 -23.548  0.00  0.00    +0.001 C 
ATOM     12  H   UNL     1      29.966  -5.372 -22.931  0.00  0.00    -0.079 HD
ENDROOT
BRANCH   2  13
ATOM     13  C   UNL     1      33.169  -5.864 -25.365  0.00  0.00    -0.020 C 
ATOM     14  C   UNL     1      32.986  -5.988 -26.742  0.00  0.00    -0.004 C 
ATOM     15  C   UNL     1      34.425  -5.553 -24.854  0.00  0.00    -0.004 C 
ATOM     16  C   UNL     1      34.059  -5.801 -27.627  0.00  0.00    -0.000 C 
ATOM     17  C   UNL     1      35.337  -5.485 -27.108  0.00  0.00    -0.000 C 
ATOM     18  C   UNL     1      35.504  -5.364 -25.720  0.00  0.00    -0.000 C 
ATOM     19  C   UNL     1      33.892  -5.923 -29.017  0.00  0.00    -0.000 C 
ATOM     20  C   UNL     1      36.411  -5.298 -27.994  0.00  0.00    -0.000 C 
ATOM     21  C   UNL     1      34.970  -5.734 -29.882  0.00  0.00    -0.000 C 
ATOM     22  C   UNL     1      36.227  -5.422 -29.372  0.00  0.00    -0.000 C 
ENDBRANCH   2  13
BRANCH  10  26
ATOM     23  N   UNL     1      32.222 -12.151 -22.190  0.00  0.00    -0.147 NA
ATOM     24  N   UNL     1      32.254 -13.359 -21.566  0.00  0.00    -0.133 NA
ATOM     25  N   UNL     1      32.184 -14.664 -19.572  0.00  0.00    -0.341 N 
ATOM     26  C   UNL     1      32.087 -11.031 -21.448  0.00  0.00    +0.103 C 
ATOM     27  C   UNL     1      31.979 -11.050 -20.072  0.00  0.00    +0.024 C 
ATOM     28  C   UNL     1      32.012 -12.279 -19.438  0.00  0.00    +0.037 C 
ATOM     29  C   UNL     1      32.151 -13.407 -20.221  0.00  0.00    +0.147 C 
ATOM     30  H   UNL     1      32.282 -15.488 -20.101  0.00  0.00    +0.144 HD
ATOM     31  H   UNL     1      32.109 -14.713 -18.592  0.00  0.00    +0.144 HD
ENDBRANCH  10  26
TORSDOF 2
ENDMDL
MODEL 5
REMARK VINA RESULT:     -10.4      2.333      5.774
REMARK  Name = 58212050
REMARK  2 active torsions:
REMARK  status: ('A' for Active; 'I' for Inactive)
REMARK    1  A    between atoms: C_2  and  C_13
REMARK    2  A    between atoms: C_10  and  C_26
REMARK                            x       y       z     vdW  Elec       q    Type
REMARK                         _______ _______ _______ _____ _____    ______ ____
ROOT
ATOM      1  N   UNL     1      32.383 -23.530 -15.458  0.00  0.00    +0.389 N 
ATOM      2  C   UNL     1      34.834 -23.569 -15.110  0.00  0.00    +0.023 C 
ATOM      3  C   UNL     1      33.513 -24.372 -15.045  0.00  0.00    -0.068 C 
ATOM      4  C   UNL     1      34.966 -22.749 -16.388  0.00  0.00    -0.026 C 
ATOM      5  C   UNL     1      33.844 -22.550 -17.215  0.00  0.00    -0.047 C 
ATOM      6  C   UNL     1      32.516 -23.192 -16.884  0.00  0.00    -0.050 C 
ATOM      7  C   UNL     1      36.174 -22.111 -16.718  0.00  0.00    -0.004 C 
ATOM      8  C   UNL     1      33.966 -21.783 -18.383  0.00  0.00    -0.005 C 
ATOM      9  C   UNL     1      31.113 -24.213 -15.214  0.00  0.00    -0.100 C 
ATOM     10  C   UNL     1      35.180 -21.182 -18.712  0.00  0.00    +0.019 C 
ATOM     11  C   UNL     1      36.281 -21.341 -17.876  0.00  0.00    +0.001 C 
ATOM     12  H   UNL     1      32.393 -22.672 -14.907  0.00  0.00    -0.079 HD
ENDROOT
BRANCH   2  13
ATOM     13  C   UNL     1      36.005 -24.507 -14.844  0.00  0.00    -0.020 C 
ATOM     14  C   UNL     1      37.299 -23.996 -14.741  0.00  0.00    -0.004 C 
ATOM     15  C   UNL     1      35.783 -25.874 -14.705  0.00  0.00    -0.004 C 
ATOM     16  C   UNL     1      38.389 -24.847 -14.497  0.00  0.00    -0.000 C 
ATOM     17  C   UNL     1      38.163 -26.237 -14.355  0.00  0.00    -0.000 C 
ATOM     18  C   UNL     1      36.854 -26.734 -14.462  0.00  0.00    -0.000 C 
ATOM     19  C   UNL     1      39.698 -24.349 -14.390  0.00  0.00    -0.000 C 
ATOM     20  C   UNL     1      39.253 -27.089 -14.112  0.00  0.00    -0.000 C 
ATOM     21  C   UNL     1      40.769 -25.209 -14.148  0.00  0.00    -0.000 C 
ATOM     22  C   UNL     1      40.547 -26.576 -14.009  0.00  0.00    -0.000 C 
ENDBRANCH   2  13
BRANCH  10  26
ATOM     23  N   UNL     1      36.442 -19.691 -20.045  0.00  0.00    -0.147 NA
ATOM     24  N   UNL     1      36.628 -18.919 -21.149  0.00  0.00    -0.133 NA
ATOM     25  N   UNL     1      35.852 -18.066 -23.236  0.00  0.00    -0.341 N 
ATOM     26  C   UNL     1      35.292 -20.388 -19.916  0.00  0.00    +0.103 C 
ATOM     27  C   UNL     1      34.285 -20.357 -20.859  0.00  0.00    +0.024 C 
ATOM     28  C   UNL     1      34.475 -19.571 -21.982  0.00  0.00    +0.037 C 
ATOM     29  C   UNL     1      35.659 -18.869 -22.088  0.00  0.00    +0.147 C 
ATOM     30  H   UNL     1      36.685 -17.553 -23.343  0.00  0.00    +0.144 HD
ATOM     31  H   UNL     1      35.153 -18.020 -23.928  0.00  0.00    +0.144 HD
ENDBRANCH  10  26
TORSDOF 2
ENDMDL
MODEL 6
REMARK VINA RESULT:     -10.1      9.246     14.977
REMARK  Name = 58212050
REMARK  2 active torsions:
REMARK  status: ('A' for Active; 'I' for Inactive)
REMARK    1  A    between atoms: C_2  and  C_13
REMARK    2  A    between atoms: C_10  and  C_26
REMARK                            x       y       z     vdW  Elec       q    Type
REMARK                         _______ _______ _______ _____ _____    ______ ____
ROOT
ATOM      1  N   UNL     1      31.413  -8.851 -20.123  0.00  0.00    +0.389 N 
ATOM      2  C   UNL     1      31.586  -8.239 -22.515  0.00  0.00    +0.023 C 
ATOM      3  C   UNL     1      31.767  -7.771 -21.051  0.00  0.00    -0.068 C 
ATOM      4  C   UNL     1      32.155  -9.630 -22.766  0.00  0.00    -0.026 C 
ATOM      5  C   UNL     1      32.503 -10.454 -21.679  0.00  0.00    -0.047 C 
ATOM      6  C   UNL     1      32.378  -9.954 -20.258  0.00  0.00    -0.050 C 
ATOM      7  C   UNL     1      32.260 -10.145 -24.069  0.00  0.00    -0.004 C 
ATOM      8  C   UNL     1      33.013 -11.739 -21.914  0.00  0.00    -0.005 C 
ATOM      9  C   UNL     1      31.391  -8.362 -18.744  0.00  0.00    -0.100 C 
ATOM     10  C   UNL     1      33.140 -12.224 -23.215  0.00  0.00    +0.019 C 
ATOM     11  C   UNL     1      32.757 -11.429 -24.291  0.00  0.00    +0.001 C 
ATOM     12  H   UNL     1      30.480  -9.191 -20.353  0.00  0.00    -0.079 HD
ENDROOT
BRANCH   2  13
ATOM     13  C   UNL     1      32.120  -7.164 -23.455  0.00  0.00    -0.020 C 
ATOM     14  C   UNL     1      33.482  -7.113 -23.753  0.00  0.00    -0.004 C 
ATOM     15  C   UNL     1      31.248  -6.235 -24.015  0.00  0.00    -0.004 C 
ATOM     16  C   UNL     1      33.989  -6.128 -24.616  0.00  0.00    -0.000 C 
ATOM     17  C   UNL     1      33.103  -5.183 -25.185  0.00  0.00    -0.000 C 
ATOM     18  C   UNL     1      31.736  -5.250 -24.874  0.00  0.00    -0.000 C 
ATOM     19  C   UNL     1      35.358  -6.062 -24.926  0.00  0.00    -0.000 C 
ATOM     20  C   UNL     1      33.612  -4.198 -26.047  0.00  0.00    -0.000 C 
ATOM     21  C   UNL     1      35.846  -5.077 -25.785  0.00  0.00    -0.000 C 
ATOM     22  C   UNL     1      34.974  -4.146 -26.345  0.00  0.00    -0.000 C 
ENDBRANCH   2  13
BRANCH  10  26
ATOM     23  N   UNL     1      34.546 -13.996 -22.526  0.00  0.00    -0.147 NA
ATOM     24  N   UNL     1      35.085 -15.237 -22.668  0.00  0.00    -0.133 NA
ATOM     25  N   UNL     1      35.280 -17.285 -23.873  0.00  0.00    -0.341 N 
ATOM     26  C   UNL     1      33.661 -13.553 -23.445  0.00  0.00    +0.103 C 
ATOM     27  C   UNL     1      33.270 -14.306 -24.534  0.00  0.00    +0.024 C 
ATOM     28  C   UNL     1      33.818 -15.568 -24.679  0.00  0.00    +0.037 C 
ATOM     29  C   UNL     1      34.720 -15.994 -23.725  0.00  0.00    +0.147 C 
ATOM     30  H   UNL     1      35.927 -17.620 -23.211  0.00  0.00    +0.144 HD
ATOM     31  H   UNL     1      35.024 -17.848 -24.639  0.00  0.00    +0.144 HD
ENDBRANCH  10  26
TORSDOF 2
ENDMDL
MODEL 7
REMARK VINA RESULT:     -10.1     11.867     17.928
REMARK  Name = 58212050
REMARK  2 active torsions:
REMARK  status: ('A' for Active; 'I' for Inactive)
REMARK    1  A    between atoms: C_2  and  C_13
REMARK    2  A    between atoms: C_10  and  C_26
REMARK                            x       y       z     vdW  Elec       q    Type
REMARK                         _______ _______ _______ _____ _____    ______ ____
ROOT
ATOM      1  N   UNL     1      30.308  -4.128 -22.406  0.00  0.00    +0.389 N 
ATOM      2  C   UNL     1      31.245  -4.974 -24.535  0.00  0.00    +0.023 C 
ATOM      3  C   UNL     1      31.191  -3.798 -23.530  0.00  0.00    -0.068 C 
ATOM      4  C   UNL     1      31.407  -6.328 -23.854  0.00  0.00    -0.026 C 
ATOM      5  C   UNL     1      31.207  -6.444 -22.465  0.00  0.00    -0.047 C 
ATOM      6  C   UNL     1      30.893  -5.229 -21.624  0.00  0.00    -0.050 C 
ATOM      7  C   UNL     1      31.670  -7.488 -24.602  0.00  0.00    -0.004 C 
ATOM      8  C   UNL     1      31.344  -7.694 -21.844  0.00  0.00    -0.005 C 
ATOM      9  C   UNL     1      30.095  -2.957 -21.554  0.00  0.00    -0.100 C 
ATOM     10  C   UNL     1      31.635  -8.831 -22.596  0.00  0.00    +0.019 C 
ATOM     11  C   UNL     1      31.791  -8.728 -23.975  0.00  0.00    +0.001 C 
ATOM     12  H   UNL     1      29.402  -4.421 -22.773  0.00  0.00    -0.079 HD
ENDROOT
BRANCH   2  13
ATOM     13  C   UNL     1      32.295  -4.678 -25.599  0.00  0.00    -0.020 C 
ATOM     14  C   UNL     1      33.642  -4.933 -25.339  0.00  0.00    -0.004 C 
ATOM     15  C   UNL     1      31.910  -4.151 -26.828  0.00  0.00    -0.004 C 
ATOM     16  C   UNL     1      34.622  -4.665 -26.308  0.00  0.00    -0.000 C 
ATOM     17  C   UNL     1      34.231  -4.129 -27.558  0.00  0.00    -0.000 C 
ATOM     18  C   UNL     1      32.871  -3.878 -27.802  0.00  0.00    -0.000 C 
ATOM     19  C   UNL     1      35.982  -4.916 -26.062  0.00  0.00    -0.000 C 
ATOM     20  C   UNL     1      35.211  -3.860 -28.527  0.00  0.00    -0.000 C 
ATOM     21  C   UNL     1      36.943  -4.643 -27.037  0.00  0.00    -0.000 C 
ATOM     22  C   UNL     1      36.558  -4.115 -28.266  0.00  0.00    -0.000 C 
ENDBRANCH   2  13
BRANCH  10  26
ATOM     23  N   UNL     1      32.128 -11.138 -22.751  0.00  0.00    -0.147 NA
ATOM     24  N   UNL     1      32.275 -12.381 -22.219  0.00  0.00    -0.133 NA
ATOM     25  N   UNL     1      32.209 -13.854 -20.344  0.00  0.00    -0.341 N 
ATOM     26  C   UNL     1      31.768 -10.116 -21.946  0.00  0.00    +0.103 C 
ATOM     27  C   UNL     1      31.538 -10.271 -20.594  0.00  0.00    +0.024 C 
ATOM     28  C   UNL     1      31.687 -11.535 -20.052  0.00  0.00    +0.037 C 
ATOM     29  C   UNL     1      32.056 -12.561 -20.898  0.00  0.00    +0.147 C 
ATOM     30  H   UNL     1      32.472 -14.608 -20.920  0.00  0.00    +0.144 HD
ATOM     31  H   UNL     1      32.051 -13.999 -19.383  0.00  0.00    +0.144 HD
ENDBRANCH  10  26
TORSDOF 2
ENDMDL
