MODEL 1
REMARK VINA RESULT:     -11.4      0.000      0.000
REMARK  Name = 24778473
REMARK  2 active torsions:
REMARK  status: ('A' for Active; 'I' for Inactive)
REMARK    1  A    between atoms: C_11  and  C_22
REMARK    2  A    between atoms: C_17  and  N_29
REMARK                            x       y       z     vdW  Elec       q    Type
REMARK                         _______ _______ _______ _____ _____    ______ ____
ROOT
ATOM      1  O   UNL     1      32.876 -22.379 -17.652  0.00  0.00    -0.270 OA
ATOM      2  O   UNL     1      36.963 -22.976 -15.627  0.00  0.00    -0.270 OA
ATOM      3  N   UNL     1      31.230 -24.726 -13.231  0.00  0.00    -0.353 N 
ATOM      4  N   UNL     1      35.089 -22.515 -16.937  0.00  0.00    -0.248 N 
ATOM      5  C   UNL     1      32.317 -23.776 -14.939  0.00  0.00    +0.022 A 
ATOM      6  C   UNL     1      33.498 -23.351 -15.561  0.00  0.00    +0.060 C 
ATOM      7  C   UNL     1      32.481 -24.379 -13.681  0.00  0.00    +0.057 A 
ATOM      8  C   UNL     1      30.911 -23.775 -15.228  0.00  0.00    +0.018 A 
ATOM      9  C   UNL     1      34.740 -23.528 -14.952  0.00  0.00    +0.058 C 
ATOM     10  C   UNL     1      30.266 -24.373 -14.142  0.00  0.00    +0.057 A 
ATOM     11  C   UNL     1      34.888 -24.122 -13.719  0.00  0.00    +0.007 C 
ATOM     12  C   UNL     1      33.737 -24.561 -13.061  0.00  0.00    +0.017 C 
ATOM     13  C   UNL     1      33.728 -22.694 -16.847  0.00  0.00    +0.252 C 
ATOM     14  C   UNL     1      35.766 -22.989 -15.841  0.00  0.00    +0.252 C 
ATOM     15  C   UNL     1      30.111 -23.326 -16.301  0.00  0.00    +0.016 C 
ATOM     16  C   UNL     1      28.877 -24.544 -14.079  0.00  0.00    +0.018 C 
ATOM     17  C   UNL     1      28.721 -23.490 -16.252  0.00  0.00    +0.051 C 
ATOM     18  C   UNL     1      28.114 -24.091 -15.155  0.00  0.00    +0.016 C 
ATOM     19  H   UNL     1      31.050 -25.167 -12.371  0.00  0.00    +0.166 HD
ATOM     20  H   UNL     1      35.531 -22.091 -17.707  0.00  0.00    +0.158 HD
ENDROOT
BRANCH  11  22
ATOM     21 CL   UNL     1      36.562 -26.562 -14.585  0.00  0.00    -0.082 Cl
ATOM     22  C   UNL     1      36.178 -24.304 -13.088  0.00  0.00    +0.011 C 
ATOM     23  C   UNL     1      37.011 -25.375 -13.412  0.00  0.00    +0.058 C 
ATOM     24  C   UNL     1      36.581 -23.369 -12.135  0.00  0.00    +0.001 C 
ATOM     25  C   UNL     1      38.248 -25.512 -12.781  0.00  0.00    +0.011 C 
ATOM     26  C   UNL     1      37.818 -23.507 -11.504  0.00  0.00    +0.000 C 
ATOM     27  C   UNL     1      38.651 -24.578 -11.827  0.00  0.00    +0.001 C 
ENDBRANCH  11  22
BRANCH  17  29
ATOM     28  O   UNL     1      26.113 -21.941 -16.289  0.00  0.00    -0.265 OA
ATOM     29  N   UNL     1      27.936 -23.045 -17.317  0.00  0.00    -0.277 N 
ATOM     30  C   UNL     1      26.742 -22.334 -17.261  0.00  0.00    +0.303 C 
ATOM     31  H   UNL     1      28.269 -23.260 -18.218  0.00  0.00    +0.155 HD
ENDBRANCH  17  29
TORSDOF 2
ENDMDL
MODEL 2
REMARK VINA RESULT:     -10.9      2.339      7.597
REMARK  Name = 24778473
REMARK  2 active torsions:
REMARK  status: ('A' for Active; 'I' for Inactive)
REMARK    1  A    between atoms: C_11  and  C_22
REMARK    2  A    between atoms: C_17  and  N_29
REMARK                            x       y       z     vdW  Elec       q    Type
REMARK                         _______ _______ _______ _____ _____    ______ ____
ROOT
ATOM      1  O   UNL     1      36.076 -23.040 -16.765  0.00  0.00    -0.270 OA
ATOM      2  O   UNL     1      31.562 -22.426 -17.410  0.00  0.00    -0.270 OA
ATOM      3  N   UNL     1      34.357 -24.920 -12.152  0.00  0.00    -0.353 N 
ATOM      4  N   UNL     1      33.889 -22.588 -17.430  0.00  0.00    -0.248 N 
ATOM      5  C   UNL     1      34.673 -24.056 -14.190  0.00  0.00    +0.022 A 
ATOM      6  C   UNL     1      34.184 -23.502 -15.380  0.00  0.00    +0.060 C 
ATOM      7  C   UNL     1      33.698 -24.399 -13.239  0.00  0.00    +0.057 A 
ATOM      8  C   UNL     1      35.950 -24.392 -13.627  0.00  0.00    +0.018 A 
ATOM      9  C   UNL     1      32.817 -23.315 -15.582  0.00  0.00    +0.058 C 
ATOM     10  C   UNL     1      35.714 -24.928 -12.359  0.00  0.00    +0.057 A 
ATOM     11  C   UNL     1      31.871 -23.654 -14.643  0.00  0.00    +0.007 C 
ATOM     12  C   UNL     1      32.313 -24.210 -13.440  0.00  0.00    +0.017 C 
ATOM     13  C   UNL     1      34.876 -23.030 -16.579  0.00  0.00    +0.252 C 
ATOM     14  C   UNL     1      32.628 -22.724 -16.905  0.00  0.00    +0.252 C 
ATOM     15  C   UNL     1      37.290 -24.299 -14.061  0.00  0.00    +0.016 C 
ATOM     16  C   UNL     1      36.739 -25.369 -11.512  0.00  0.00    +0.018 C 
ATOM     17  C   UNL     1      38.327 -24.736 -13.227  0.00  0.00    +0.051 C 
ATOM     18  C   UNL     1      38.053 -25.264 -11.970  0.00  0.00    +0.016 C 
ATOM     19  H   UNL     1      33.914 -25.244 -11.335  0.00  0.00    +0.166 HD
ATOM     20  H   UNL     1      34.068 -22.213 -18.322  0.00  0.00    +0.158 HD
ENDROOT
BRANCH  11  22
ATOM     21 CL   UNL     1      30.239 -26.075 -15.633  0.00  0.00    -0.082 Cl
ATOM     22  C   UNL     1      30.453 -23.460 -14.855  0.00  0.00    +0.011 C 
ATOM     23  C   UNL     1      29.627 -24.492 -15.301  0.00  0.00    +0.058 C 
ATOM     24  C   UNL     1      29.916 -22.198 -14.599  0.00  0.00    +0.001 C 
ATOM     25  C   UNL     1      28.264 -24.263 -15.491  0.00  0.00    +0.011 C 
ATOM     26  C   UNL     1      28.553 -21.969 -14.790  0.00  0.00    +0.000 C 
ATOM     27  C   UNL     1      27.728 -23.001 -15.236  0.00  0.00    +0.001 C 
ENDBRANCH  11  22
BRANCH  17  29
ATOM     28  O   UNL     1      40.245 -26.858 -14.238  0.00  0.00    -0.265 OA
ATOM     29  N   UNL     1      39.649 -24.640 -13.663  0.00  0.00    -0.277 N 
ATOM     30  C   UNL     1      40.476 -25.663 -14.117  0.00  0.00    +0.303 C 
ATOM     31  H   UNL     1      40.045 -23.740 -13.648  0.00  0.00    +0.155 HD
ENDBRANCH  17  29
TORSDOF 2
ENDMDL
MODEL 3
REMARK VINA RESULT:     -10.4      3.161      5.721
REMARK  Name = 24778473
REMARK  2 active torsions:
REMARK  status: ('A' for Active; 'I' for Inactive)
REMARK    1  A    between atoms: C_11  and  C_22
REMARK    2  A    between atoms: C_17  and  N_29
REMARK                            x       y       z     vdW  Elec       q    Type
REMARK                         _______ _______ _______ _____ _____    ______ ____
ROOT
ATOM      1  O   UNL     1      32.219 -22.648 -17.675  0.00  0.00    -0.270 OA
ATOM      2  O   UNL     1      33.335 -24.766 -13.746  0.00  0.00    -0.270 OA
ATOM      3  N   UNL     1      37.345 -21.436 -17.554  0.00  0.00    -0.353 N 
ATOM      4  N   UNL     1      32.418 -23.820 -15.671  0.00  0.00    -0.248 N 
ATOM      5  C   UNL     1      35.251 -22.152 -17.239  0.00  0.00    +0.022 A 
ATOM      6  C   UNL     1      34.288 -22.847 -16.497  0.00  0.00    +0.060 C 
ATOM      7  C   UNL     1      36.548 -22.158 -16.700  0.00  0.00    +0.057 A 
ATOM      8  C   UNL     1      35.302 -21.394 -18.456  0.00  0.00    +0.018 A 
ATOM      9  C   UNL     1      34.620 -23.492 -15.306  0.00  0.00    +0.058 C 
ATOM     10  C   UNL     1      36.621 -20.964 -18.620  0.00  0.00    +0.057 A 
ATOM     11  C   UNL     1      35.895 -23.490 -14.786  0.00  0.00    +0.007 C 
ATOM     12  C   UNL     1      36.889 -22.809 -15.494  0.00  0.00    +0.017 C 
ATOM     13  C   UNL     1      32.861 -23.062 -16.730  0.00  0.00    +0.252 C 
ATOM     14  C   UNL     1      33.412 -24.119 -14.774  0.00  0.00    +0.252 C 
ATOM     15  C   UNL     1      34.364 -21.023 -19.444  0.00  0.00    +0.016 C 
ATOM     16  C   UNL     1      37.044 -20.190 -19.709  0.00  0.00    +0.018 C 
ATOM     17  C   UNL     1      34.770 -20.250 -20.539  0.00  0.00    +0.051 C 
ATOM     18  C   UNL     1      36.093 -19.841 -20.668  0.00  0.00    +0.016 C 
ATOM     19  H   UNL     1      38.307 -21.278 -17.419  0.00  0.00    +0.166 HD
ATOM     20  H   UNL     1      31.486 -24.117 -15.567  0.00  0.00    +0.158 HD
ENDROOT
BRANCH  11  22
ATOM     21 CL   UNL     1      36.807 -26.429 -14.973  0.00  0.00    -0.082 Cl
ATOM     22  C   UNL     1      36.237 -24.161 -13.551  0.00  0.00    +0.011 C 
ATOM     23  C   UNL     1      36.662 -25.489 -13.528  0.00  0.00    +0.058 C 
ATOM     24  C   UNL     1      36.136 -23.441 -12.361  0.00  0.00    +0.001 C 
ATOM     25  C   UNL     1      36.984 -26.099 -12.316  0.00  0.00    +0.011 C 
ATOM     26  C   UNL     1      36.457 -24.050 -11.148  0.00  0.00    +0.000 C 
ATOM     27  C   UNL     1      36.882 -25.378 -11.125  0.00  0.00    +0.001 C 
ENDBRANCH  11  22
BRANCH  17  29
ATOM     28  O   UNL     1      35.142 -19.314 -23.400  0.00  0.00    -0.265 OA
ATOM     29  N   UNL     1      33.836 -19.887 -21.511  0.00  0.00    -0.277 N 
ATOM     30  C   UNL     1      34.079 -19.464 -22.814  0.00  0.00    +0.303 C 
ATOM     31  H   UNL     1      32.891 -19.937 -21.242  0.00  0.00    +0.155 HD
ENDBRANCH  17  29
TORSDOF 2
ENDMDL
MODEL 4
REMARK VINA RESULT:     -10.4     14.167     16.353
REMARK  Name = 24778473
REMARK  2 active torsions:
REMARK  status: ('A' for Active; 'I' for Inactive)
REMARK    1  A    between atoms: C_11  and  C_22
REMARK    2  A    between atoms: C_17  and  N_29
REMARK                            x       y       z     vdW  Elec       q    Type
REMARK                         _______ _______ _______ _____ _____    ______ ____
ROOT
ATOM      1  O   UNL     1      30.824  -9.792 -20.053  0.00  0.00    -0.270 OA
ATOM      2  O   UNL     1      31.899 -14.125 -21.164  0.00  0.00    -0.270 OA
ATOM      3  N   UNL     1      34.160  -8.787 -24.006  0.00  0.00    -0.353 N 
ATOM      4  N   UNL     1      31.133 -12.084 -20.334  0.00  0.00    -0.248 N 
ATOM      5  C   UNL     1      32.830  -9.622 -22.414  0.00  0.00    +0.022 A 
ATOM      6  C   UNL     1      32.272 -10.703 -21.720  0.00  0.00    +0.060 C 
ATOM      7  C   UNL     1      33.718  -9.962 -23.447  0.00  0.00    +0.057 A 
ATOM      8  C   UNL     1      32.757  -8.189 -22.373  0.00  0.00    +0.018 A 
ATOM      9  C   UNL     1      32.593 -12.019 -22.053  0.00  0.00    +0.058 C 
ATOM     10  C   UNL     1      33.597  -7.704 -23.379  0.00  0.00    +0.057 A 
ATOM     11  C   UNL     1      33.465 -12.340 -23.068  0.00  0.00    +0.007 C 
ATOM     12  C   UNL     1      34.047 -11.293 -23.788  0.00  0.00    +0.017 C 
ATOM     13  C   UNL     1      31.326 -10.749 -20.606  0.00  0.00    +0.252 C 
ATOM     14  C   UNL     1      31.858 -12.909 -21.157  0.00  0.00    +0.252 C 
ATOM     15  C   UNL     1      32.062  -7.245 -21.586  0.00  0.00    +0.016 C 
ATOM     16  C   UNL     1      33.775  -6.338 -23.632  0.00  0.00    +0.018 C 
ATOM     17  C   UNL     1      32.229  -5.876 -21.828  0.00  0.00    +0.051 C 
ATOM     18  C   UNL     1      33.075  -5.430 -22.838  0.00  0.00    +0.016 C 
ATOM     19  H   UNL     1      34.795  -8.731 -24.755  0.00  0.00    +0.166 HD
ATOM     20  H   UNL     1      30.538 -12.413 -19.623  0.00  0.00    +0.158 HD
ENDROOT
BRANCH  11  22
ATOM     21 CL   UNL     1      35.193 -13.930 -21.070  0.00  0.00    -0.082 Cl
ATOM     22  C   UNL     1      33.796 -13.706 -23.412  0.00  0.00    +0.011 C 
ATOM     23  C   UNL     1      34.571 -14.509 -22.576  0.00  0.00    +0.058 C 
ATOM     24  C   UNL     1      33.314 -14.216 -24.618  0.00  0.00    +0.001 C 
ATOM     25  C   UNL     1      34.865 -15.822 -22.945  0.00  0.00    +0.011 C 
ATOM     26  C   UNL     1      33.609 -15.528 -24.988  0.00  0.00    +0.000 C 
ATOM     27  C   UNL     1      34.384 -16.331 -24.151  0.00  0.00    +0.001 C 
ENDBRANCH  11  22
BRANCH  17  29
ATOM     28  O   UNL     1      30.102  -3.843 -22.565  0.00  0.00    -0.265 OA
ATOM     29  N   UNL     1      31.540  -4.948 -21.045  0.00  0.00    -0.277 N 
ATOM     30  C   UNL     1      30.569  -4.040 -21.452  0.00  0.00    +0.303 C 
ATOM     31  H   UNL     1      31.768  -4.937 -20.088  0.00  0.00    +0.155 HD
ENDBRANCH  17  29
TORSDOF 2
ENDMDL
MODEL 5
REMARK VINA RESULT:     -10.1     13.901     16.042
REMARK  Name = 24778473
REMARK  2 active torsions:
REMARK  status: ('A' for Active; 'I' for Inactive)
REMARK    1  A    between atoms: C_11  and  C_22
REMARK    2  A    between atoms: C_17  and  N_29
REMARK                            x       y       z     vdW  Elec       q    Type
REMARK                         _______ _______ _______ _____ _____    ______ ____
ROOT
ATOM      1  O   UNL     1      30.841 -10.184 -20.099  0.00  0.00    -0.270 OA
ATOM      2  O   UNL     1      32.097 -14.520 -20.987  0.00  0.00    -0.270 OA
ATOM      3  N   UNL     1      34.285  -9.232 -23.972  0.00  0.00    -0.353 N 
ATOM      4  N   UNL     1      31.235 -12.474 -20.271  0.00  0.00    -0.248 N 
ATOM      5  C   UNL     1      32.926 -10.045 -22.393  0.00  0.00    +0.022 A 
ATOM      6  C   UNL     1      32.378 -11.115 -21.674  0.00  0.00    +0.060 C 
ATOM      7  C   UNL     1      33.862 -10.396 -23.379  0.00  0.00    +0.057 A 
ATOM      8  C   UNL     1      32.804  -8.615 -22.417  0.00  0.00    +0.018 A 
ATOM      9  C   UNL     1      32.753 -12.431 -21.940  0.00  0.00    +0.058 C 
ATOM     10  C   UNL     1      33.664  -8.143 -23.412  0.00  0.00    +0.057 A 
ATOM     11  C   UNL     1      33.673 -12.764 -22.908  0.00  0.00    +0.007 C 
ATOM     12  C   UNL     1      34.245 -11.728 -23.651  0.00  0.00    +0.017 C 
ATOM     13  C   UNL     1      31.394 -11.146 -20.593  0.00  0.00    +0.252 C 
ATOM     14  C   UNL     1      32.016 -13.307 -21.033  0.00  0.00    +0.252 C 
ATOM     15  C   UNL     1      32.051  -7.663 -21.695  0.00  0.00    +0.016 C 
ATOM     16  C   UNL     1      33.807  -6.783 -23.717  0.00  0.00    +0.018 C 
ATOM     17  C   UNL     1      32.182  -6.300 -21.988  0.00  0.00    +0.051 C 
ATOM     18  C   UNL     1      33.049  -5.867 -22.986  0.00  0.00    +0.016 C 
ATOM     19  H   UNL     1      34.944  -9.184 -24.701  0.00  0.00    +0.166 HD
ATOM     20  H   UNL     1      30.626 -12.794 -19.569  0.00  0.00    +0.158 HD
ENDROOT
BRANCH  11  22
ATOM     21 CL   UNL     1      32.731 -13.999 -25.572  0.00  0.00    -0.082 Cl
ATOM     22  C   UNL     1      34.060 -14.131 -23.183  0.00  0.00    +0.011 C 
ATOM     23  C   UNL     1      33.685 -14.780 -24.359  0.00  0.00    +0.058 C 
ATOM     24  C   UNL     1      34.831 -14.800 -22.232  0.00  0.00    +0.001 C 
ATOM     25  C   UNL     1      34.081 -16.098 -24.586  0.00  0.00    +0.011 C 
ATOM     26  C   UNL     1      35.226 -16.118 -22.458  0.00  0.00    +0.000 C 
ATOM     27  C   UNL     1      34.851 -16.767 -23.634  0.00  0.00    +0.001 C 
ENDBRANCH  11  22
BRANCH  17  29
ATOM     28  O   UNL     1      30.190  -4.210 -22.919  0.00  0.00    -0.265 OA
ATOM     29  N   UNL     1      31.435  -5.365 -21.270  0.00  0.00    -0.277 N 
ATOM     30  C   UNL     1      30.533  -4.430 -21.766  0.00  0.00    +0.303 C 
ATOM     31  H   UNL     1      31.561  -5.368 -20.295  0.00  0.00    +0.155 HD
ENDBRANCH  17  29
TORSDOF 2
ENDMDL
MODEL 6
REMARK VINA RESULT:      -9.4     15.487     17.974
REMARK  Name = 24778473
REMARK  2 active torsions:
REMARK  status: ('A' for Active; 'I' for Inactive)
REMARK    1  A    between atoms: C_11  and  C_22
REMARK    2  A    between atoms: C_17  and  N_29
REMARK                            x       y       z     vdW  Elec       q    Type
REMARK                         _______ _______ _______ _____ _____    ______ ____
ROOT
ATOM      1  O   UNL     1      32.176  -9.537 -19.301  0.00  0.00    -0.270 OA
ATOM      2  O   UNL     1      31.713  -5.337 -21.121  0.00  0.00    -0.270 OA
ATOM      3  N   UNL     1      32.778 -10.807 -24.380  0.00  0.00    -0.353 N 
ATOM      4  N   UNL     1      31.894  -7.294 -19.865  0.00  0.00    -0.248 N 
ATOM      5  C   UNL     1      32.476  -9.871 -22.372  0.00  0.00    +0.022 A 
ATOM      6  C   UNL     1      32.246  -8.754 -21.557  0.00  0.00    +0.060 C 
ATOM      7  C   UNL     1      32.552  -9.608 -23.749  0.00  0.00    +0.057 A 
ATOM      8  C   UNL     1      32.665 -11.283 -22.200  0.00  0.00    +0.018 A 
ATOM      9  C   UNL     1      32.106  -7.479 -22.103  0.00  0.00    +0.058 C 
ATOM     10  C   UNL     1      32.851 -11.833 -23.471  0.00  0.00    +0.057 A 
ATOM     11  C   UNL     1      32.182  -7.233 -23.455  0.00  0.00    +0.007 C 
ATOM     12  C   UNL     1      32.410  -8.317 -24.306  0.00  0.00    +0.017 C 
ATOM     13  C   UNL     1      32.108  -8.631 -20.107  0.00  0.00    +0.252 C 
ATOM     14  C   UNL     1      31.878  -6.537 -21.010  0.00  0.00    +0.252 C 
ATOM     15  C   UNL     1      32.699 -12.160 -21.094  0.00  0.00    +0.016 C 
ATOM     16  C   UNL     1      33.066 -13.200 -23.688  0.00  0.00    +0.018 C 
ATOM     17  C   UNL     1      32.914 -13.530 -21.294  0.00  0.00    +0.051 C 
ATOM     18  C   UNL     1      33.095 -14.041 -22.575  0.00  0.00    +0.016 C 
ATOM     19  H   UNL     1      32.875 -10.915 -25.353  0.00  0.00    +0.166 HD
ATOM     20  H   UNL     1      31.765  -6.919 -18.964  0.00  0.00    +0.158 HD
ENDROOT
BRANCH  11  22
ATOM     21 CL   UNL     1      34.753  -5.775 -24.331  0.00  0.00    -0.082 Cl
ATOM     22  C   UNL     1      32.038  -5.908 -24.019  0.00  0.00    +0.011 C 
ATOM     23  C   UNL     1      33.139  -5.166 -24.446  0.00  0.00    +0.058 C 
ATOM     24  C   UNL     1      30.752  -5.378 -24.132  0.00  0.00    +0.001 C 
ATOM     25  C   UNL     1      32.956  -3.893 -24.986  0.00  0.00    +0.011 C 
ATOM     26  C   UNL     1      30.569  -4.104 -24.670  0.00  0.00    +0.000 C 
ATOM     27  C   UNL     1      31.670  -3.362 -25.097  0.00  0.00    +0.001 C 
ENDBRANCH  11  22
BRANCH  17  29
ATOM     28  O   UNL     1      34.979 -15.578 -20.434  0.00  0.00    -0.265 OA
ATOM     29  N   UNL     1      32.946 -14.391 -20.196  0.00  0.00    -0.277 N 
ATOM     30  C   UNL     1      33.933 -15.312 -19.861  0.00  0.00    +0.303 C 
ATOM     31  H   UNL     1      32.177 -14.340 -19.585  0.00  0.00    +0.155 HD
ENDBRANCH  17  29
TORSDOF 2
ENDMDL
MODEL 7
REMARK VINA RESULT:      -9.3     15.708     18.134
REMARK  Name = 24778473
REMARK  2 active torsions:
REMARK  status: ('A' for Active; 'I' for Inactive)
REMARK    1  A    between atoms: C_11  and  C_22
REMARK    2  A    between atoms: C_17  and  N_29
REMARK                            x       y       z     vdW  Elec       q    Type
REMARK                         _______ _______ _______ _____ _____    ______ ____
ROOT
ATOM      1  O   UNL     1      35.854  -9.701 -23.775  0.00  0.00    -0.270 OA
ATOM      2  O   UNL     1      34.276  -5.403 -24.227  0.00  0.00    -0.270 OA
ATOM      3  N   UNL     1      30.996 -10.439 -21.872  0.00  0.00    -0.353 N 
ATOM      4  N   UNL     1      35.399  -7.446 -24.143  0.00  0.00    -0.248 N 
ATOM      5  C   UNL     1      32.932  -9.721 -22.730  0.00  0.00    +0.022 A 
ATOM      6  C   UNL     1      33.743  -8.708 -23.257  0.00  0.00    +0.060 C 
ATOM      7  C   UNL     1      31.635  -9.327 -22.363  0.00  0.00    +0.057 A 
ATOM      8  C   UNL     1      33.047 -11.122 -22.437  0.00  0.00    +0.018 A 
ATOM      9  C   UNL     1      33.270  -7.404 -23.398  0.00  0.00    +0.058 C 
ATOM     10  C   UNL     1      31.822 -11.535 -21.906  0.00  0.00    +0.057 A 
ATOM     11  C   UNL     1      31.997  -7.029 -23.034  0.00  0.00    +0.007 C 
ATOM     12  C   UNL     1      31.152  -8.007 -22.503  0.00  0.00    +0.017 C 
ATOM     13  C   UNL     1      35.122  -8.732 -23.741  0.00  0.00    +0.252 C 
ATOM     14  C   UNL     1      34.340  -6.590 -23.969  0.00  0.00    +0.252 C 
ATOM     15  C   UNL     1      34.065 -12.091 -22.568  0.00  0.00    +0.016 C 
ATOM     16  C   UNL     1      31.569 -12.852 -21.502  0.00  0.00    +0.018 C 
ATOM     17  C   UNL     1      33.827 -13.413 -22.170  0.00  0.00    +0.051 C 
ATOM     18  C   UNL     1      32.595 -13.786 -21.644  0.00  0.00    +0.016 C 
ATOM     19  H   UNL     1      30.069 -10.449 -21.542  0.00  0.00    +0.166 HD
ATOM     20  H   UNL     1      36.266  -7.168 -24.517  0.00  0.00    +0.158 HD
ENDROOT
BRANCH  11  22
ATOM     21 CL   UNL     1      32.320  -5.131 -20.626  0.00  0.00    -0.082 Cl
ATOM     22  C   UNL     1      31.509  -5.674 -23.182  0.00  0.00    +0.011 C 
ATOM     23  C   UNL     1      31.608  -4.739 -22.152  0.00  0.00    +0.058 C 
ATOM     24  C   UNL     1      30.927  -5.314 -24.398  0.00  0.00    +0.001 C 
ATOM     25  C   UNL     1      31.126  -3.444 -22.337  0.00  0.00    +0.011 C 
ATOM     26  C   UNL     1      30.444  -4.019 -24.582  0.00  0.00    +0.000 C 
ATOM     27  C   UNL     1      30.544  -3.084 -23.552  0.00  0.00    +0.001 C 
ENDBRANCH  11  22
BRANCH  17  29
ATOM     28  O   UNL     1      34.190 -15.664 -24.170  0.00  0.00    -0.265 OA
ATOM     29  N   UNL     1      34.840 -14.365 -22.302  0.00  0.00    -0.277 N 
ATOM     30  C   UNL     1      34.943 -15.377 -23.251  0.00  0.00    +0.303 C 
ATOM     31  H   UNL     1      35.569 -14.314 -21.643  0.00  0.00    +0.155 HD
ENDBRANCH  17  29
TORSDOF 2
ENDMDL
MODEL 8
REMARK VINA RESULT:      -9.3      5.293      8.495
REMARK  Name = 24778473
REMARK  2 active torsions:
REMARK  status: ('A' for Active; 'I' for Inactive)
REMARK    1  A    between atoms: C_11  and  C_22
REMARK    2  A    between atoms: C_17  and  N_29
REMARK                            x       y       z     vdW  Elec       q    Type
REMARK                         _______ _______ _______ _____ _____    ______ ____
ROOT
ATOM      1  O   UNL     1      37.427 -21.505 -17.628  0.00  0.00    -0.270 OA
ATOM      2  O   UNL     1      37.422 -18.853 -21.387  0.00  0.00    -0.270 OA
ATOM      3  N   UNL     1      32.280 -21.715 -18.735  0.00  0.00    -0.353 N 
ATOM      4  N   UNL     1      37.798 -20.130 -19.472  0.00  0.00    -0.248 N 
ATOM      5  C   UNL     1      34.487 -21.377 -18.611  0.00  0.00    +0.022 A 
ATOM      6  C   UNL     1      35.673 -20.808 -19.093  0.00  0.00    +0.060 C 
ATOM      7  C   UNL     1      33.331 -21.079 -19.350  0.00  0.00    +0.057 A 
ATOM      8  C   UNL     1      34.086 -22.220 -17.521  0.00  0.00    +0.018 A 
ATOM      9  C   UNL     1      35.678 -20.005 -20.232  0.00  0.00    +0.058 C 
ATOM     10  C   UNL     1      32.706 -22.410 -17.631  0.00  0.00    +0.057 A 
ATOM     11  C   UNL     1      34.538 -19.719 -20.949  0.00  0.00    +0.007 C 
ATOM     12  C   UNL     1      33.331 -20.265 -20.505  0.00  0.00    +0.017 C 
ATOM     13  C   UNL     1      37.048 -20.888 -18.603  0.00  0.00    +0.252 C 
ATOM     14  C   UNL     1      37.050 -19.567 -20.476  0.00  0.00    +0.252 C 
ATOM     15  C   UNL     1      34.750 -22.848 -16.445  0.00  0.00    +0.016 C 
ATOM     16  C   UNL     1      31.967 -23.186 -16.729  0.00  0.00    +0.018 C 
ATOM     17  C   UNL     1      34.026 -23.627 -15.535  0.00  0.00    +0.051 C 
ATOM     18  C   UNL     1      32.652 -23.793 -15.676  0.00  0.00    +0.016 C 
ATOM     19  H   UNL     1      31.347 -21.677 -19.045  0.00  0.00    +0.166 HD
ATOM     20  H   UNL     1      38.770 -20.005 -19.385  0.00  0.00    +0.158 HD
ENDROOT
BRANCH  11  22
ATOM     21 CL   UNL     1      35.058 -16.705 -20.559  0.00  0.00    -0.082 Cl
ATOM     22  C   UNL     1      34.546 -18.886 -22.132  0.00  0.00    +0.011 C 
ATOM     23  C   UNL     1      34.773 -17.511 -22.062  0.00  0.00    +0.058 C 
ATOM     24  C   UNL     1      34.322 -19.494 -23.367  0.00  0.00    +0.001 C 
ATOM     25  C   UNL     1      34.774 -16.744 -23.227  0.00  0.00    +0.011 C 
ATOM     26  C   UNL     1      34.322 -18.727 -24.532  0.00  0.00    +0.000 C 
ATOM     27  C   UNL     1      34.549 -17.353 -24.462  0.00  0.00    +0.001 C 
ENDBRANCH  11  22
BRANCH  17  29
ATOM     28  O   UNL     1      35.791 -26.093 -15.459  0.00  0.00    -0.265 OA
ATOM     29  N   UNL     1      34.690 -24.244 -14.473  0.00  0.00    -0.277 N 
ATOM     30  C   UNL     1      35.489 -25.382 -14.511  0.00  0.00    +0.303 C 
ATOM     31  H   UNL     1      34.580 -23.823 -13.591  0.00  0.00    +0.155 HD
ENDBRANCH  17  29
TORSDOF 2
ENDMDL
MODEL 9
REMARK VINA RESULT:      -9.2     12.183     15.152
REMARK  Name = 24778473
REMARK  2 active torsions:
REMARK  status: ('A' for Active; 'I' for Inactive)
REMARK    1  A    between atoms: C_11  and  C_22
REMARK    2  A    between atoms: C_17  and  N_29
REMARK                            x       y       z     vdW  Elec       q    Type
REMARK                         _______ _______ _______ _____ _____    ______ ____
ROOT
ATOM      1  O   UNL     1      32.852 -14.043 -19.331  0.00  0.00    -0.270 OA
ATOM      2  O   UNL     1      31.480  -9.771 -20.345  0.00  0.00    -0.270 OA
ATOM      3  N   UNL     1      34.315 -13.925 -24.391  0.00  0.00    -0.353 N 
ATOM      4  N   UNL     1      32.042 -11.864 -19.483  0.00  0.00    -0.248 N 
ATOM      5  C   UNL     1      33.559 -13.578 -22.316  0.00  0.00    +0.022 A 
ATOM      6  C   UNL     1      32.952 -12.767 -21.348  0.00  0.00    +0.060 C 
ATOM      7  C   UNL     1      33.709 -12.993 -23.584  0.00  0.00    +0.057 A 
ATOM      8  C   UNL     1      34.100 -14.905 -22.395  0.00  0.00    +0.018 A 
ATOM      9  C   UNL     1      32.536 -11.471 -21.649  0.00  0.00    +0.058 C 
ATOM     10  C   UNL     1      34.562 -15.086 -23.701  0.00  0.00    +0.057 A 
ATOM     11  C   UNL     1      32.688 -10.909 -22.896  0.00  0.00    +0.007 C 
ATOM     12  C   UNL     1      33.288 -11.681 -23.893  0.00  0.00    +0.017 C 
ATOM     13  C   UNL     1      32.631 -13.019 -19.944  0.00  0.00    +0.252 C 
ATOM     14  C   UNL     1      31.947 -10.890 -20.444  0.00  0.00    +0.252 C 
ATOM     15  C   UNL     1      34.248 -15.980 -21.492  0.00  0.00    +0.016 C 
ATOM     16  C   UNL     1      35.157 -16.274 -24.143  0.00  0.00    +0.018 C 
ATOM     17  C   UNL     1      34.842 -17.174 -21.918  0.00  0.00    +0.051 C 
ATOM     18  C   UNL     1      35.290 -17.318 -23.227  0.00  0.00    +0.016 C 
ATOM     19  H   UNL     1      34.541 -13.780 -25.338  0.00  0.00    +0.166 HD
ATOM     20  H   UNL     1      31.721 -11.749 -18.560  0.00  0.00    +0.158 HD
ENDROOT
BRANCH  11  22
ATOM     21 CL   UNL     1      34.875  -8.783 -23.346  0.00  0.00    -0.082 Cl
ATOM     22  C   UNL     1      32.255  -9.563 -23.205  0.00  0.00    +0.011 C 
ATOM     23  C   UNL     1      33.166  -8.530 -23.427  0.00  0.00    +0.058 C 
ATOM     24  C   UNL     1      30.885  -9.313 -23.282  0.00  0.00    +0.001 C 
ATOM     25  C   UNL     1      32.707  -7.247 -23.725  0.00  0.00    +0.011 C 
ATOM     26  C   UNL     1      30.426  -8.030 -23.578  0.00  0.00    +0.000 C 
ATOM     27  C   UNL     1      31.337  -6.997 -23.800  0.00  0.00    +0.001 C 
ENDBRANCH  11  22
BRANCH  17  29
ATOM     28  O   UNL     1      37.313 -18.657 -20.970  0.00  0.00    -0.265 OA
ATOM     29  N   UNL     1      34.985 -18.233 -21.019  0.00  0.00    -0.277 N 
ATOM     30  C   UNL     1      36.158 -18.869 -20.628  0.00  0.00    +0.303 C 
ATOM     31  H   UNL     1      34.155 -18.569 -20.613  0.00  0.00    +0.155 HD
ENDBRANCH  17  29
TORSDOF 2
ENDMDL
