MODEL 1
REMARK VINA RESULT:     -11.9      0.000      0.000
REMARK  Name = 23586146
REMARK  5 active torsions:
REMARK  status: ('A' for Active; 'I' for Inactive)
REMARK    1  A    between atoms: N_1  and  C_12
REMARK    2  A    between atoms: C_8  and  N_18
REMARK    3  A    between atoms: N_18  and  C_20
REMARK    4  A    between atoms: C_23  and  S_26
REMARK    5  A    between atoms: S_26  and  N_29
REMARK                            x       y       z     vdW  Elec       q    Type
REMARK                         _______ _______ _______ _____ _____    ______ ____
ROOT
ATOM      1  N   UNL     1      35.578 -24.295 -13.949  0.00  0.00    -0.309 N 
ATOM      2  N   UNL     1      33.348 -23.751 -13.971  0.00  0.00    -0.321 NA
ATOM      3  N   UNL     1      32.317 -23.169 -16.062  0.00  0.00    -0.106 N 
ATOM      4  N   UNL     1      31.090 -22.800 -16.515  0.00  0.00    -0.139 NA
ATOM      5  N   UNL     1      31.022 -23.139 -14.265  0.00  0.00    -0.145 NA
ATOM      6  C   UNL     1      34.476 -23.922 -14.620  0.00  0.00    +0.196 C 
ATOM      7  C   UNL     1      34.601 -23.716 -16.105  0.00  0.00    +0.081 C 
ATOM      8  C   UNL     1      33.503 -23.343 -16.779  0.00  0.00    +0.140 C 
ATOM      9  C   UNL     1      32.252 -23.372 -14.682  0.00  0.00    +0.176 C 
ATOM     10  C   UNL     1      30.364 -22.800 -15.402  0.00  0.00    +0.230 C 
ATOM     11  H   UNL     1      36.419 -24.403 -14.448  0.00  0.00    +0.149 HD
ENDROOT
BRANCH   1  12
ATOM     12  C   UNL     1      35.582 -24.545 -12.520  0.00  0.00    +0.071 C 
ATOM     13  C   UNL     1      36.519 -25.712 -12.192  0.00  0.00    +0.020 C 
ATOM     14  C   UNL     1      35.982 -23.273 -11.765  0.00  0.00    +0.020 C 
ATOM     15  C   UNL     1      37.995 -25.351 -12.364  0.00  0.00    +0.002 C 
ATOM     16  C   UNL     1      37.459 -22.922 -11.938  0.00  0.00    +0.002 C 
ATOM     17  C   UNL     1      38.364 -24.097 -11.580  0.00  0.00    +0.000 C 
ENDBRANCH   1  12
BRANCH   8  18
ATOM     18  N   UNL     1      33.467 -23.120 -18.126  0.00  0.00    -0.299 N 
ATOM     19  H   UNL     1      32.968 -23.781 -18.657  0.00  0.00    +0.153 HD
BRANCH  18  20
ATOM     20  C   UNL     1      34.050 -22.072 -18.847  0.00  0.00    +0.049 C 
ATOM     21  C   UNL     1      33.242 -21.167 -19.539  0.00  0.00    +0.016 C 
ATOM     22  C   UNL     1      35.437 -21.930 -18.877  0.00  0.00    +0.016 C 
ATOM     23  C   UNL     1      35.210 -19.982 -20.286  0.00  0.00    +0.122 C 
ATOM     24  C   UNL     1      33.822 -20.122 -20.257  0.00  0.00    +0.021 C 
ATOM     25  C   UNL     1      36.017 -20.886 -19.596  0.00  0.00    +0.021 C 
BRANCH  23  26
ATOM     26  S   UNL     1      35.936 -18.674 -21.186  0.00  0.00    +0.057 S 
ATOM     27  O   UNL     1      35.770 -18.947 -22.607  0.00  0.00    -0.153 OA
ATOM     28  O   UNL     1      35.463 -17.412 -20.632  0.00  0.00    -0.153 OA
BRANCH  26  29
ATOM     29  N   UNL     1      37.583 -18.870 -20.776  0.00  0.00    -0.203 NA
ATOM     30  H   UNL     1      37.661 -19.473 -19.959  0.00  0.00    +0.144 HD
ATOM     31  H   UNL     1      37.992 -17.959 -20.567  0.00  0.00    +0.144 HD
ENDBRANCH  26  29
ENDBRANCH  23  26
ENDBRANCH  18  20
ENDBRANCH   8  18
TORSDOF 5
ENDMDL
MODEL 2
REMARK VINA RESULT:     -10.2      1.641      4.611
REMARK  Name = 23586146
REMARK  5 active torsions:
REMARK  status: ('A' for Active; 'I' for Inactive)
REMARK    1  A    between atoms: N_1  and  C_12
REMARK    2  A    between atoms: C_8  and  N_18
REMARK    3  A    between atoms: N_18  and  C_20
REMARK    4  A    between atoms: C_23  and  S_26
REMARK    5  A    between atoms: S_26  and  N_29
REMARK                            x       y       z     vdW  Elec       q    Type
REMARK                         _______ _______ _______ _____ _____    ______ ____
ROOT
ATOM      1  N   UNL     1      30.938 -22.829 -15.558  0.00  0.00    -0.309 N 
ATOM      2  N   UNL     1      32.957 -23.160 -14.517  0.00  0.00    -0.321 NA
ATOM      3  N   UNL     1      34.960 -23.147 -15.842  0.00  0.00    -0.106 N 
ATOM      4  N   UNL     1      36.299 -23.294 -15.653  0.00  0.00    -0.139 NA
ATOM      5  N   UNL     1      35.202 -23.485 -13.667  0.00  0.00    -0.145 NA
ATOM      6  C   UNL     1      32.275 -22.939 -15.617  0.00  0.00    +0.196 C 
ATOM      7  C   UNL     1      32.927 -22.802 -16.966  0.00  0.00    +0.081 C 
ATOM      8  C   UNL     1      34.262 -22.912 -17.029  0.00  0.00    +0.140 C 
ATOM      9  C   UNL     1      34.310 -23.267 -14.613  0.00  0.00    +0.176 C 
ATOM     10  C   UNL     1      36.380 -23.491 -14.341  0.00  0.00    +0.230 C 
ATOM     11  H   UNL     1      30.440 -22.680 -16.394  0.00  0.00    +0.149 HD
ENDROOT
BRANCH   1  12
ATOM     12  C   UNL     1      30.195 -22.921 -14.315  0.00  0.00    +0.071 C 
ATOM     13  C   UNL     1      28.696 -23.052 -14.606  0.00  0.00    +0.020 C 
ATOM     14  C   UNL     1      30.710 -24.098 -13.481  0.00  0.00    +0.020 C 
ATOM     15  C   UNL     1      28.324 -24.413 -15.195  0.00  0.00    +0.002 C 
ATOM     16  C   UNL     1      30.331 -25.455 -14.074  0.00  0.00    +0.002 C 
ATOM     17  C   UNL     1      28.830 -25.560 -14.327  0.00  0.00    +0.000 C 
ENDBRANCH   1  12
BRANCH   8  18
ATOM     18  N   UNL     1      34.987 -22.811 -18.182  0.00  0.00    -0.299 N 
ATOM     19  H   UNL     1      35.471 -23.622 -18.457  0.00  0.00    +0.153 HD
BRANCH  18  20
ATOM     20  C   UNL     1      35.129 -21.701 -19.022  0.00  0.00    +0.049 C 
ATOM     21  C   UNL     1      36.395 -21.161 -19.257  0.00  0.00    +0.016 C 
ATOM     22  C   UNL     1      34.007 -21.133 -19.624  0.00  0.00    +0.016 C 
ATOM     23  C   UNL     1      35.413 -19.488 -20.697  0.00  0.00    +0.122 C 
ATOM     24  C   UNL     1      36.537 -20.055 -20.096  0.00  0.00    +0.021 C 
ATOM     25  C   UNL     1      34.149 -20.027 -20.462  0.00  0.00    +0.021 C 
BRANCH  23  26
ATOM     26  S   UNL     1      35.592 -18.104 -21.746  0.00  0.00    +0.057 S 
ATOM     27  O   UNL     1      34.823 -18.344 -22.959  0.00  0.00    -0.153 OA
ATOM     28  O   UNL     1      35.353 -16.897 -20.966  0.00  0.00    -0.153 OA
BRANCH  26  29
ATOM     29  N   UNL     1      37.257 -18.192 -22.122  0.00  0.00    -0.203 NA
ATOM     30  H   UNL     1      37.786 -17.625 -21.462  0.00  0.00    +0.144 HD
ATOM     31  H   UNL     1      37.410 -17.844 -23.069  0.00  0.00    +0.144 HD
ENDBRANCH  26  29
ENDBRANCH  23  26
ENDBRANCH  18  20
ENDBRANCH   8  18
TORSDOF 5
ENDMDL
MODEL 3
REMARK VINA RESULT:      -9.9      5.421     10.855
REMARK  Name = 23586146
REMARK  5 active torsions:
REMARK  status: ('A' for Active; 'I' for Inactive)
REMARK    1  A    between atoms: N_1  and  C_12
REMARK    2  A    between atoms: C_8  and  N_18
REMARK    3  A    between atoms: N_18  and  C_20
REMARK    4  A    between atoms: C_23  and  S_26
REMARK    5  A    between atoms: S_26  and  N_29
REMARK                            x       y       z     vdW  Elec       q    Type
REMARK                         _______ _______ _______ _____ _____    ______ ____
ROOT
ATOM      1  N   UNL     1      34.472 -14.092 -22.911  0.00  0.00    -0.309 N 
ATOM      2  N   UNL     1      34.082 -16.041 -24.059  0.00  0.00    -0.321 NA
ATOM      3  N   UNL     1      34.911 -18.106 -23.153  0.00  0.00    -0.106 N 
ATOM      4  N   UNL     1      34.910 -19.426 -23.480  0.00  0.00    -0.139 NA
ATOM      5  N   UNL     1      33.806 -18.226 -25.069  0.00  0.00    -0.145 NA
ATOM      6  C   UNL     1      34.599 -15.424 -23.023  0.00  0.00    +0.196 C 
ATOM      7  C   UNL     1      35.343 -16.147 -21.932  0.00  0.00    +0.081 C 
ATOM      8  C   UNL     1      35.473 -17.477 -22.039  0.00  0.00    +0.140 C 
ATOM      9  C   UNL     1      34.229 -17.391 -24.140  0.00  0.00    +0.176 C 
ATOM     10  C   UNL     1      34.239 -19.434 -24.628  0.00  0.00    +0.230 C 
ATOM     11  H   UNL     1      34.880 -13.643 -22.136  0.00  0.00    +0.149 HD
ENDROOT
BRANCH   1  12
ATOM     12  C   UNL     1      33.759 -13.286 -23.885  0.00  0.00    +0.071 C 
ATOM     13  C   UNL     1      32.256 -13.317 -23.595  0.00  0.00    +0.020 C 
ATOM     14  C   UNL     1      34.303 -11.854 -23.880  0.00  0.00    +0.020 C 
ATOM     15  C   UNL     1      31.880 -12.538 -22.334  0.00  0.00    +0.002 C 
ATOM     16  C   UNL     1      33.920 -11.079 -22.619  0.00  0.00    +0.002 C 
ATOM     17  C   UNL     1      32.414 -11.111 -22.374  0.00  0.00    +0.000 C 
ENDBRANCH   1  12
BRANCH   8  18
ATOM     18  N   UNL     1      36.121 -18.262 -21.129  0.00  0.00    -0.299 N 
ATOM     19  H   UNL     1      37.052 -18.012 -20.933  0.00  0.00    +0.153 HD
BRANCH  18  20
ATOM     20  C   UNL     1      35.630 -19.375 -20.437  0.00  0.00    +0.049 C 
ATOM     21  C   UNL     1      36.510 -20.217 -19.756  0.00  0.00    +0.016 C 
ATOM     22  C   UNL     1      34.261 -19.643 -20.429  0.00  0.00    +0.016 C 
ATOM     23  C   UNL     1      34.651 -21.594 -19.058  0.00  0.00    +0.122 C 
ATOM     24  C   UNL     1      36.020 -21.326 -19.066  0.00  0.00    +0.021 C 
ATOM     25  C   UNL     1      33.772 -20.752 -19.740  0.00  0.00    +0.021 C 
BRANCH  23  26
ATOM     26  S   UNL     1      34.039 -22.982 -18.195  0.00  0.00    +0.057 S 
ATOM     27  O   UNL     1      33.953 -24.100 -19.125  0.00  0.00    -0.153 OA
ATOM     28  O   UNL     1      34.792 -23.127 -16.957  0.00  0.00    -0.153 OA
BRANCH  26  29
ATOM     29  N   UNL     1      32.457 -22.460 -17.816  0.00  0.00    -0.203 NA
ATOM     30  H   UNL     1      32.017 -22.074 -18.650  0.00  0.00    +0.144 HD
ATOM     31  H   UNL     1      32.500 -21.743 -17.091  0.00  0.00    +0.144 HD
ENDBRANCH  26  29
ENDBRANCH  23  26
ENDBRANCH  18  20
ENDBRANCH   8  18
TORSDOF 5
ENDMDL
MODEL 4
REMARK VINA RESULT:      -9.3      7.872     11.480
REMARK  Name = 23586146
REMARK  5 active torsions:
REMARK  status: ('A' for Active; 'I' for Inactive)
REMARK    1  A    between atoms: N_1  and  C_12
REMARK    2  A    between atoms: C_8  and  N_18
REMARK    3  A    between atoms: N_18  and  C_20
REMARK    4  A    between atoms: C_23  and  S_26
REMARK    5  A    between atoms: S_26  and  N_29
REMARK                            x       y       z     vdW  Elec       q    Type
REMARK                         _______ _______ _______ _____ _____    ______ ____
ROOT
ATOM      1  N   UNL     1      35.535 -17.138 -21.604  0.00  0.00    -0.309 N 
ATOM      2  N   UNL     1      34.679 -16.474 -23.629  0.00  0.00    -0.321 NA
ATOM      3  N   UNL     1      33.398 -14.445 -23.737  0.00  0.00    -0.106 N 
ATOM      4  N   UNL     1      32.740 -13.714 -24.676  0.00  0.00    -0.139 NA
ATOM      5  N   UNL     1      33.671 -15.558 -25.632  0.00  0.00    -0.145 NA
ATOM      6  C   UNL     1      34.832 -16.263 -22.343  0.00  0.00    +0.196 C 
ATOM      7  C   UNL     1      34.246 -15.070 -21.637  0.00  0.00    +0.081 C 
ATOM      8  C   UNL     1      33.543 -14.194 -22.370  0.00  0.00    +0.140 C 
ATOM      9  C   UNL     1      33.961 -15.569 -24.346  0.00  0.00    +0.176 C 
ATOM     10  C   UNL     1      32.938 -14.426 -25.781  0.00  0.00    +0.230 C 
ATOM     11  H   UNL     1      35.626 -16.973 -20.639  0.00  0.00    +0.149 HD
ENDROOT
BRANCH   1  12
ATOM     12  C   UNL     1      36.166 -18.316 -22.171  0.00  0.00    +0.071 C 
ATOM     13  C   UNL     1      37.337 -18.760 -21.289  0.00  0.00    +0.020 C 
ATOM     14  C   UNL     1      35.134 -19.435 -22.340  0.00  0.00    +0.020 C 
ATOM     15  C   UNL     1      36.882 -19.362 -19.959  0.00  0.00    +0.002 C 
ATOM     16  C   UNL     1      34.687 -20.035 -21.008  0.00  0.00    +0.002 C 
ATOM     17  C   UNL     1      35.876 -20.489 -20.167  0.00  0.00    +0.000 C 
ENDBRANCH   1  12
BRANCH   8  18
ATOM     18  N   UNL     1      32.955 -13.069 -21.867  0.00  0.00    -0.299 N 
ATOM     19  H   UNL     1      32.433 -13.190 -21.042  0.00  0.00    +0.153 HD
BRANCH  18  20
ATOM     20  C   UNL     1      33.001 -11.765 -22.374  0.00  0.00    +0.049 C 
ATOM     21  C   UNL     1      31.945 -10.886 -22.134  0.00  0.00    +0.016 C 
ATOM     22  C   UNL     1      34.102 -11.345 -23.120  0.00  0.00    +0.016 C 
ATOM     23  C   UNL     1      33.093  -9.166 -23.385  0.00  0.00    +0.122 C 
ATOM     24  C   UNL     1      31.991  -9.586 -22.639  0.00  0.00    +0.021 C 
ATOM     25  C   UNL     1      34.148 -10.046 -23.624  0.00  0.00    +0.021 C 
BRANCH  23  26
ATOM     26  S   UNL     1      33.149  -7.540 -24.017  0.00  0.00    +0.057 S 
ATOM     27  O   UNL     1      34.545  -7.166 -24.198  0.00  0.00    -0.153 OA
ATOM     28  O   UNL     1      32.224  -7.445 -25.137  0.00  0.00    -0.153 OA
BRANCH  26  29
ATOM     29  N   UNL     1      32.510  -6.657 -22.701  0.00  0.00    -0.203 NA
ATOM     30  H   UNL     1      32.123  -5.776 -23.038  0.00  0.00    +0.144 HD
ATOM     31  H   UNL     1      33.251  -6.467 -22.026  0.00  0.00    +0.144 HD
ENDBRANCH  26  29
ENDBRANCH  23  26
ENDBRANCH  18  20
ENDBRANCH   8  18
TORSDOF 5
ENDMDL
MODEL 5
REMARK VINA RESULT:      -9.2      9.205     13.992
REMARK  Name = 23586146
REMARK  5 active torsions:
REMARK  status: ('A' for Active; 'I' for Inactive)
REMARK    1  A    between atoms: N_1  and  C_12
REMARK    2  A    between atoms: C_8  and  N_18
REMARK    3  A    between atoms: N_18  and  C_20
REMARK    4  A    between atoms: C_23  and  S_26
REMARK    5  A    between atoms: S_26  and  N_29
REMARK                            x       y       z     vdW  Elec       q    Type
REMARK                         _______ _______ _______ _____ _____    ______ ____
ROOT
ATOM      1  N   UNL     1      34.256  -8.810 -23.657  0.00  0.00    -0.309 N 
ATOM      2  N   UNL     1      32.976  -9.956 -22.134  0.00  0.00    -0.321 NA
ATOM      3  N   UNL     1      32.645 -12.315 -22.440  0.00  0.00    -0.106 N 
ATOM      4  N   UNL     1      31.996 -13.334 -21.816  0.00  0.00    -0.139 NA
ATOM      5  N   UNL     1      31.674 -11.389 -20.678  0.00  0.00    -0.145 NA
ATOM      6  C   UNL     1      33.707  -9.957 -23.224  0.00  0.00    +0.196 C 
ATOM      7  C   UNL     1      33.965 -11.201 -24.031  0.00  0.00    +0.081 C 
ATOM      8  C   UNL     1      33.418 -12.348 -23.603  0.00  0.00    +0.140 C 
ATOM      9  C   UNL     1      32.434 -11.135 -21.725  0.00  0.00    +0.176 C 
ATOM     10  C   UNL     1      31.438 -12.721 -20.776  0.00  0.00    +0.230 C 
ATOM     11  H   UNL     1      34.788  -8.825 -24.484  0.00  0.00    +0.149 HD
ENDROOT
BRANCH   1  12
ATOM     12  C   UNL     1      34.099  -7.549 -22.955  0.00  0.00    +0.071 C 
ATOM     13  C   UNL     1      35.302  -6.641 -23.229  0.00  0.00    +0.020 C 
ATOM     14  C   UNL     1      32.784  -6.880 -23.368  0.00  0.00    +0.020 C 
ATOM     15  C   UNL     1      35.326  -6.105 -24.661  0.00  0.00    +0.002 C 
ATOM     16  C   UNL     1      32.817  -6.342 -24.798  0.00  0.00    +0.002 C 
ATOM     17  C   UNL     1      34.012  -5.423 -25.028  0.00  0.00    +0.000 C 
ENDBRANCH   1  12
BRANCH   8  18
ATOM     18  N   UNL     1      33.566 -13.551 -24.232  0.00  0.00    -0.299 N 
ATOM     19  H   UNL     1      33.282 -13.580 -25.174  0.00  0.00    +0.153 HD
BRANCH  18  20
ATOM     20  C   UNL     1      34.070 -14.747 -23.709  0.00  0.00    +0.049 C 
ATOM     21  C   UNL     1      34.130 -15.888 -24.511  0.00  0.00    +0.016 C 
ATOM     22  C   UNL     1      34.511 -14.800 -22.388  0.00  0.00    +0.016 C 
ATOM     23  C   UNL     1      35.074 -17.132 -22.667  0.00  0.00    +0.122 C 
ATOM     24  C   UNL     1      34.633 -17.080 -23.990  0.00  0.00    +0.021 C 
ATOM     25  C   UNL     1      35.014 -15.992 -21.867  0.00  0.00    +0.021 C 
BRANCH  23  26
ATOM     26  S   UNL     1      35.703 -18.625 -22.016  0.00  0.00    +0.057 S 
ATOM     27  O   UNL     1      35.320 -18.711 -20.613  0.00  0.00    -0.153 OA
ATOM     28  O   UNL     1      35.362 -19.708 -22.927  0.00  0.00    -0.153 OA
BRANCH  26  29
ATOM     29  N   UNL     1      37.385 -18.339 -22.110  0.00  0.00    -0.203 NA
ATOM     30  H   UNL     1      37.652 -17.644 -21.414  0.00  0.00    +0.144 HD
ATOM     31  H   UNL     1      37.620 -17.994 -23.042  0.00  0.00    +0.144 HD
ENDBRANCH  26  29
ENDBRANCH  23  26
ENDBRANCH  18  20
ENDBRANCH   8  18
TORSDOF 5
ENDMDL
MODEL 6
REMARK VINA RESULT:      -9.2      5.616      9.032
REMARK  Name = 23586146
REMARK  5 active torsions:
REMARK  status: ('A' for Active; 'I' for Inactive)
REMARK    1  A    between atoms: N_1  and  C_12
REMARK    2  A    between atoms: C_8  and  N_18
REMARK    3  A    between atoms: N_18  and  C_20
REMARK    4  A    between atoms: C_23  and  S_26
REMARK    5  A    between atoms: S_26  and  N_29
REMARK                            x       y       z     vdW  Elec       q    Type
REMARK                         _______ _______ _______ _____ _____    ______ ____
ROOT
ATOM      1  N   UNL     1      35.208 -19.717 -20.178  0.00  0.00    -0.309 N 
ATOM      2  N   UNL     1      34.677 -19.233 -22.358  0.00  0.00    -0.321 NA
ATOM      3  N   UNL     1      34.712 -16.942 -23.079  0.00  0.00    -0.106 N 
ATOM      4  N   UNL     1      34.479 -16.237 -24.219  0.00  0.00    -0.139 NA
ATOM      5  N   UNL     1      34.158 -18.460 -24.594  0.00  0.00    -0.145 NA
ATOM      6  C   UNL     1      35.035 -18.822 -21.164  0.00  0.00    +0.196 C 
ATOM      7  C   UNL     1      35.265 -17.371 -20.837  0.00  0.00    +0.081 C 
ATOM      8  C   UNL     1      35.093 -16.474 -21.820  0.00  0.00    +0.140 C 
ATOM      9  C   UNL     1      34.509 -18.300 -23.334  0.00  0.00    +0.176 C 
ATOM     10  C   UNL     1      34.154 -17.194 -25.083  0.00  0.00    +0.230 C 
ATOM     11  H   UNL     1      35.462 -19.390 -19.285  0.00  0.00    +0.149 HD
ENDROOT
BRANCH   1  12
ATOM     12  C   UNL     1      35.038 -21.145 -20.372  0.00  0.00    +0.071 C 
ATOM     13  C   UNL     1      36.107 -21.914 -19.590  0.00  0.00    +0.020 C 
ATOM     14  C   UNL     1      33.625 -21.566 -19.956  0.00  0.00    +0.020 C 
ATOM     15  C   UNL     1      35.886 -21.861 -18.077  0.00  0.00    +0.002 C 
ATOM     16  C   UNL     1      33.413 -21.516 -18.443  0.00  0.00    +0.002 C 
ATOM     17  C   UNL     1      34.480 -22.312 -17.698  0.00  0.00    +0.000 C 
ENDBRANCH   1  12
BRANCH   8  18
ATOM     18  N   UNL     1      35.266 -15.128 -21.669  0.00  0.00    -0.299 N 
ATOM     19  H   UNL     1      36.199 -14.818 -21.619  0.00  0.00    +0.153 HD
BRANCH  18  20
ATOM     20  C   UNL     1      34.287 -14.133 -21.577  0.00  0.00    +0.049 C 
ATOM     21  C   UNL     1      34.136 -13.205 -22.608  0.00  0.00    +0.016 C 
ATOM     22  C   UNL     1      33.461 -14.068 -20.455  0.00  0.00    +0.016 C 
ATOM     23  C   UNL     1      32.334 -12.148 -21.394  0.00  0.00    +0.122 C 
ATOM     24  C   UNL     1      33.160 -12.213 -22.517  0.00  0.00    +0.021 C 
ATOM     25  C   UNL     1      32.485 -13.076 -20.364  0.00  0.00    +0.021 C 
BRANCH  23  26
ATOM     26  S   UNL     1      31.112 -10.907 -21.281  0.00  0.00    +0.057 S 
ATOM     27  O   UNL     1      30.930 -10.320 -22.601  0.00  0.00    -0.153 OA
ATOM     28  O   UNL     1      29.965 -11.449 -20.565  0.00  0.00    -0.153 OA
BRANCH  26  29
ATOM     29  N   UNL     1      31.897  -9.768 -20.276  0.00  0.00    -0.203 NA
ATOM     30  H   UNL     1      32.782 -10.154 -19.951  0.00  0.00    +0.144 HD
ATOM     31  H   UNL     1      31.303  -9.555 -19.475  0.00  0.00    +0.144 HD
ENDBRANCH  26  29
ENDBRANCH  23  26
ENDBRANCH  18  20
ENDBRANCH   8  18
TORSDOF 5
ENDMDL
