MODEL 1
REMARK VINA RESULT:     -10.9      0.000      0.000
REMARK  Name = 10309899
REMARK  4 active torsions:
REMARK  status: ('A' for Active; 'I' for Inactive)
REMARK    1  A    between atoms: N_1  and  S_19
REMARK    2  A    between atoms: C_12  and  C_15
REMARK    3  A    between atoms: N_14  and  O_17
REMARK    4  A    between atoms: S_19  and  C_22
REMARK                            x       y       z     vdW  Elec       q    Type
REMARK                         _______ _______ _______ _____ _____    ______ ____
ROOT
ATOM      1  N   UNL     1      35.193 -19.738 -20.988  0.00  0.00    -0.152 NA
ATOM      2  N   UNL     1      34.215 -21.415 -18.922  0.00  0.00    -0.250 N 
ATOM      3  N   UNL     1      34.610 -22.590 -16.912  0.00  0.00    -0.180 NA
ATOM      4  N   UNL     1      32.379 -22.386 -17.799  0.00  0.00    -0.203 NA
ATOM      5  C   UNL     1      33.754 -20.122 -20.963  0.00  0.00    +0.118 C 
ATOM      6  C   UNL     1      36.049 -20.835 -20.454  0.00  0.00    +0.118 C 
ATOM      7  C   UNL     1      33.329 -20.410 -19.526  0.00  0.00    +0.120 C 
ATOM      8  C   UNL     1      35.653 -21.137 -19.011  0.00  0.00    +0.120 C 
ATOM      9  C   UNL     1      33.718 -22.155 -17.842  0.00  0.00    +0.090 C 
ATOM     10  C   UNL     1      34.097 -23.299 -15.886  0.00  0.00    +0.113 C 
ATOM     11  C   UNL     1      31.934 -23.102 -16.745  0.00  0.00    +0.170 C 
ATOM     12  C   UNL     1      32.755 -23.588 -15.749  0.00  0.00    +0.078 C 
ENDROOT
BRANCH  12  15
ATOM     13  O   UNL     1      31.030 -24.646 -14.556  0.00  0.00    -0.268 OA
ATOM     14  N   UNL     1      33.146 -24.737 -13.648  0.00  0.00    -0.194 N 
ATOM     15  C   UNL     1      32.240 -24.356 -14.630  0.00  0.00    +0.267 C 
ATOM     16  H   UNL     1      34.101 -24.504 -13.710  0.00  0.00    +0.183 HD
BRANCH  14  17
ATOM     17  O   UNL     1      32.639 -25.466 -12.563  0.00  0.00    -0.295 OA
ATOM     18  H   UNL     1      32.727 -24.942 -11.751  0.00  0.00    +0.241 HD
ENDBRANCH  14  17
ENDBRANCH  12  15
BRANCH   1  19
ATOM     19  S   UNL     1      35.739 -19.026 -22.448  0.00  0.00    +0.063 S 
ATOM     20  O   UNL     1      34.991 -19.584 -23.553  0.00  0.00    -0.153 OA
ATOM     21  O   UNL     1      37.186 -19.018 -22.454  0.00  0.00    -0.153 OA
BRANCH  19  22
ATOM     22  C   UNL     1      35.188 -17.366 -22.204  0.00  0.00    +0.122 C 
ATOM     23  C   UNL     1      34.784 -16.618 -23.298  0.00  0.00    +0.020 C 
ATOM     24  C   UNL     1      35.168 -16.842 -20.926  0.00  0.00    +0.020 C 
ATOM     25  C   UNL     1      34.345 -15.296 -23.120  0.00  0.00    +0.001 C 
ATOM     26  C   UNL     1      34.318 -14.744 -21.818  0.00  0.00    +0.000 C 
ATOM     27  C   UNL     1      34.733 -15.530 -20.730  0.00  0.00    +0.001 C 
ATOM     28  C   UNL     1      33.928 -14.510 -24.208  0.00  0.00    +0.000 C 
ATOM     29  C   UNL     1      33.877 -13.422 -21.641  0.00  0.00    +0.000 C 
ATOM     30  C   UNL     1      33.494 -13.199 -24.014  0.00  0.00    +0.000 C 
ATOM     31  C   UNL     1      33.469 -12.656 -22.733  0.00  0.00    +0.000 C 
ENDBRANCH  19  22
ENDBRANCH   1  19
TORSDOF 4
ENDMDL
MODEL 2
REMARK VINA RESULT:     -10.4      0.862      1.090
REMARK  Name = 10309899
REMARK  4 active torsions:
REMARK  status: ('A' for Active; 'I' for Inactive)
REMARK    1  A    between atoms: N_1  and  S_19
REMARK    2  A    between atoms: C_12  and  C_15
REMARK    3  A    between atoms: N_14  and  O_17
REMARK    4  A    between atoms: S_19  and  C_22
REMARK                            x       y       z     vdW  Elec       q    Type
REMARK                         _______ _______ _______ _____ _____    ______ ____
ROOT
ATOM      1  N   UNL     1      35.587 -19.632 -20.894  0.00  0.00    -0.152 NA
ATOM      2  N   UNL     1      35.090 -21.402 -18.735  0.00  0.00    -0.250 N 
ATOM      3  N   UNL     1      35.783 -22.325 -16.676  0.00  0.00    -0.180 NA
ATOM      4  N   UNL     1      33.579 -22.769 -17.542  0.00  0.00    -0.203 NA
ATOM      5  C   UNL     1      34.302 -20.385 -20.831  0.00  0.00    +0.118 C 
ATOM      6  C   UNL     1      36.704 -20.433 -20.318  0.00  0.00    +0.118 C 
ATOM      7  C   UNL     1      33.969 -20.701 -19.377  0.00  0.00    +0.120 C 
ATOM      8  C   UNL     1      36.402 -20.756 -18.857  0.00  0.00    +0.120 C 
ATOM      9  C   UNL     1      34.808 -22.192 -17.614  0.00  0.00    +0.090 C 
ATOM     10  C   UNL     1      35.477 -23.092 -15.609  0.00  0.00    +0.113 C 
ATOM     11  C   UNL     1      33.341 -23.522 -16.448  0.00  0.00    +0.170 C 
ATOM     12  C   UNL     1      34.261 -23.721 -15.440  0.00  0.00    +0.078 C 
ENDROOT
BRANCH  12  15
ATOM     13  O   UNL     1      34.864 -25.208 -13.724  0.00  0.00    -0.268 OA
ATOM     14  N   UNL     1      32.655 -24.559 -13.826  0.00  0.00    -0.194 N 
ATOM     15  C   UNL     1      33.969 -24.540 -14.279  0.00  0.00    +0.267 C 
ATOM     16  H   UNL     1      31.951 -24.031 -14.268  0.00  0.00    +0.183 HD
BRANCH  14  17
ATOM     17  O   UNL     1      32.377 -25.364 -12.712  0.00  0.00    -0.295 OA
ATOM     18  H   UNL     1      33.208 -25.670 -12.319  0.00  0.00    +0.241 HD
ENDBRANCH  14  17
ENDBRANCH  12  15
BRANCH   1  19
ATOM     19  S   UNL     1      35.923 -18.876 -22.394  0.00  0.00    +0.063 S 
ATOM     20  O   UNL     1      35.114 -19.490 -23.424  0.00  0.00    -0.153 OA
ATOM     21  O   UNL     1      37.357 -18.753 -22.546  0.00  0.00    -0.153 OA
BRANCH  19  22
ATOM     22  C   UNL     1      35.270 -17.266 -22.080  0.00  0.00    +0.122 C 
ATOM     23  C   UNL     1      34.839 -16.489 -23.142  0.00  0.00    +0.020 C 
ATOM     24  C   UNL     1      35.197 -16.809 -20.777  0.00  0.00    +0.020 C 
ATOM     25  C   UNL     1      34.318 -15.207 -22.908  0.00  0.00    +0.001 C 
ATOM     26  C   UNL     1      34.237 -14.723 -21.581  0.00  0.00    +0.000 C 
ATOM     27  C   UNL     1      34.681 -15.537 -20.526  0.00  0.00    +0.001 C 
ATOM     28  C   UNL     1      33.873 -14.393 -23.963  0.00  0.00    +0.000 C 
ATOM     29  C   UNL     1      33.715 -13.440 -21.348  0.00  0.00    +0.000 C 
ATOM     30  C   UNL     1      33.358 -13.121 -23.713  0.00  0.00    +0.000 C 
ATOM     31  C   UNL     1      33.279 -12.646 -22.408  0.00  0.00    +0.000 C 
ENDBRANCH  19  22
ENDBRANCH   1  19
TORSDOF 4
ENDMDL
MODEL 3
REMARK VINA RESULT:     -10.2      3.377      9.682
REMARK  Name = 10309899
REMARK  4 active torsions:
REMARK  status: ('A' for Active; 'I' for Inactive)
REMARK    1  A    between atoms: N_1  and  S_19
REMARK    2  A    between atoms: C_12  and  C_15
REMARK    3  A    between atoms: N_14  and  O_17
REMARK    4  A    between atoms: S_19  and  C_22
REMARK                            x       y       z     vdW  Elec       q    Type
REMARK                         _______ _______ _______ _____ _____    ______ ____
ROOT
ATOM      1  N   UNL     1      35.673 -23.175 -16.307  0.00  0.00    -0.152 NA
ATOM      2  N   UNL     1      35.411 -21.374 -18.481  0.00  0.00    -0.250 N 
ATOM      3  N   UNL     1      36.413 -19.837 -19.966  0.00  0.00    -0.180 NA
ATOM      4  N   UNL     1      34.138 -20.559 -20.294  0.00  0.00    -0.203 NA
ATOM      5  C   UNL     1      34.365 -23.042 -17.006  0.00  0.00    +0.118 C 
ATOM      6  C   UNL     1      36.404 -21.877 -16.287  0.00  0.00    +0.118 C 
ATOM      7  C   UNL     1      34.601 -22.601 -18.447  0.00  0.00    +0.120 C 
ATOM      8  C   UNL     1      36.664 -21.414 -17.719  0.00  0.00    +0.120 C 
ATOM      9  C   UNL     1      35.317 -20.563 -19.617  0.00  0.00    +0.090 C 
ATOM     10  C   UNL     1      36.288 -19.068 -21.066  0.00  0.00    +0.113 C 
ATOM     11  C   UNL     1      34.082 -19.767 -21.385  0.00  0.00    +0.170 C 
ATOM     12  C   UNL     1      35.136 -18.992 -21.823  0.00  0.00    +0.078 C 
ENDROOT
BRANCH  12  15
ATOM     13  O   UNL     1      34.479 -18.562 -24.036  0.00  0.00    -0.268 OA
ATOM     14  N   UNL     1      35.605 -16.883 -22.928  0.00  0.00    -0.194 N 
ATOM     15  C   UNL     1      35.039 -18.150 -23.001  0.00  0.00    +0.267 C 
ATOM     16  H   UNL     1      36.047 -16.564 -22.108  0.00  0.00    +0.183 HD
BRANCH  14  17
ATOM     17  O   UNL     1      35.520 -16.081 -24.074  0.00  0.00    -0.295 OA
ATOM     18  H   UNL     1      35.930 -15.221 -23.899  0.00  0.00    +0.241 HD
ENDBRANCH  14  17
ENDBRANCH  12  15
BRANCH   1  19
ATOM     19  S   UNL     1      35.626 -24.014 -14.813  0.00  0.00    +0.063 S 
ATOM     20  O   UNL     1      36.152 -23.155 -13.773  0.00  0.00    -0.153 OA
ATOM     21  O   UNL     1      36.143 -25.351 -15.008  0.00  0.00    -0.153 OA
BRANCH  19  22
ATOM     22  C   UNL     1      33.880 -24.134 -14.583  0.00  0.00    +0.122 C 
ATOM     23  C   UNL     1      33.035 -23.418 -15.414  0.00  0.00    +0.020 C 
ATOM     24  C   UNL     1      33.386 -24.944 -13.577  0.00  0.00    +0.020 C 
ATOM     25  C   UNL     1      31.644 -23.503 -15.243  0.00  0.00    +0.001 C 
ATOM     26  C   UNL     1      31.121 -24.327 -14.218  0.00  0.00    +0.000 C 
ATOM     27  C   UNL     1      32.005 -25.041 -13.393  0.00  0.00    +0.001 C 
ATOM     28  C   UNL     1      30.759 -22.789 -16.068  0.00  0.00    +0.000 C 
ATOM     29  C   UNL     1      29.730 -24.411 -14.048  0.00  0.00    +0.000 C 
ATOM     30  C   UNL     1      29.380 -22.885 -15.884  0.00  0.00    +0.000 C 
ATOM     31  C   UNL     1      28.866 -23.695 -14.876  0.00  0.00    +0.000 C 
ENDBRANCH  19  22
ENDBRANCH   1  19
TORSDOF 4
ENDMDL
MODEL 4
REMARK VINA RESULT:      -9.9      4.580     10.157
REMARK  Name = 10309899
REMARK  4 active torsions:
REMARK  status: ('A' for Active; 'I' for Inactive)
REMARK    1  A    between atoms: N_1  and  S_19
REMARK    2  A    between atoms: C_12  and  C_15
REMARK    3  A    between atoms: N_14  and  O_17
REMARK    4  A    between atoms: S_19  and  C_22
REMARK                            x       y       z     vdW  Elec       q    Type
REMARK                         _______ _______ _______ _____ _____    ______ ____
ROOT
ATOM      1  N   UNL     1      35.179 -17.247 -21.979  0.00  0.00    -0.152 NA
ATOM      2  N   UNL     1      34.084 -14.632 -21.899  0.00  0.00    -0.250 N 
ATOM      3  N   UNL     1      33.047 -12.839 -23.030  0.00  0.00    -0.180 NA
ATOM      4  N   UNL     1      33.272 -12.814 -20.631  0.00  0.00    -0.203 NA
ATOM      5  C   UNL     1      35.078 -16.524 -20.680  0.00  0.00    +0.118 C 
ATOM      6  C   UNL     1      35.438 -16.299 -23.099  0.00  0.00    +0.118 C 
ATOM      7  C   UNL     1      33.926 -15.526 -20.742  0.00  0.00    +0.120 C 
ATOM      8  C   UNL     1      34.294 -15.292 -23.193  0.00  0.00    +0.120 C 
ATOM      9  C   UNL     1      33.447 -13.387 -21.851  0.00  0.00    +0.090 C 
ATOM     10  C   UNL     1      32.436 -11.639 -22.947  0.00  0.00    +0.113 C 
ATOM     11  C   UNL     1      32.654 -11.614 -20.622  0.00  0.00    +0.170 C 
ATOM     12  C   UNL     1      32.210 -10.973 -21.760  0.00  0.00    +0.078 C 
ENDROOT
BRANCH  12  15
ATOM     13  O   UNL     1      31.286  -9.139 -20.620  0.00  0.00    -0.268 OA
ATOM     14  N   UNL     1      31.215  -9.091 -22.924  0.00  0.00    -0.194 N 
ATOM     15  C   UNL     1      31.550  -9.682 -21.711  0.00  0.00    +0.267 C 
ATOM     16  H   UNL     1      31.424  -9.525 -23.783  0.00  0.00    +0.183 HD
BRANCH  14  17
ATOM     17  O   UNL     1      30.565  -7.851 -22.868  0.00  0.00    -0.295 OA
ATOM     18  H   UNL     1      31.196  -7.144 -23.074  0.00  0.00    +0.241 HD
ENDBRANCH  14  17
ENDBRANCH  12  15
BRANCH   1  19
ATOM     19  S   UNL     1      36.162 -18.651 -21.964  0.00  0.00    +0.063 S 
ATOM     20  O   UNL     1      37.415 -18.343 -21.308  0.00  0.00    -0.153 OA
ATOM     21  O   UNL     1      36.136 -19.255 -23.279  0.00  0.00    -0.153 OA
BRANCH  19  22
ATOM     22  C   UNL     1      35.219 -19.674 -20.877  0.00  0.00    +0.122 C 
ATOM     23  C   UNL     1      35.870 -20.401 -19.895  0.00  0.00    +0.020 C 
ATOM     24  C   UNL     1      33.845 -19.730 -21.024  0.00  0.00    +0.020 C 
ATOM     25  C   UNL     1      35.134 -21.220 -19.024  0.00  0.00    +0.001 C 
ATOM     26  C   UNL     1      33.727 -21.289 -19.161  0.00  0.00    +0.000 C 
ATOM     27  C   UNL     1      33.097 -20.538 -20.166  0.00  0.00    +0.001 C 
ATOM     28  C   UNL     1      35.763 -21.971 -18.017  0.00  0.00    +0.000 C 
ATOM     29  C   UNL     1      32.991 -22.108 -18.288  0.00  0.00    +0.000 C 
ATOM     30  C   UNL     1      35.016 -22.780 -17.160  0.00  0.00    +0.000 C 
ATOM     31  C   UNL     1      33.633 -22.848 -17.296  0.00  0.00    +0.000 C 
ENDBRANCH  19  22
ENDBRANCH   1  19
TORSDOF 4
ENDMDL
MODEL 5
REMARK VINA RESULT:      -9.7      0.616      1.498
REMARK  Name = 10309899
REMARK  4 active torsions:
REMARK  status: ('A' for Active; 'I' for Inactive)
REMARK    1  A    between atoms: N_1  and  S_19
REMARK    2  A    between atoms: C_12  and  C_15
REMARK    3  A    between atoms: N_14  and  O_17
REMARK    4  A    between atoms: S_19  and  C_22
REMARK                            x       y       z     vdW  Elec       q    Type
REMARK                         _______ _______ _______ _____ _____    ______ ____
ROOT
ATOM      1  N   UNL     1      35.580 -19.699 -20.959  0.00  0.00    -0.152 NA
ATOM      2  N   UNL     1      34.447 -21.338 -18.941  0.00  0.00    -0.250 N 
ATOM      3  N   UNL     1      34.681 -22.455 -16.875  0.00  0.00    -0.180 NA
ATOM      4  N   UNL     1      32.534 -22.309 -17.956  0.00  0.00    -0.203 NA
ATOM      5  C   UNL     1      34.149 -20.105 -21.048  0.00  0.00    +0.118 C 
ATOM      6  C   UNL     1      36.400 -20.769 -20.324  0.00  0.00    +0.118 C 
ATOM      7  C   UNL     1      33.605 -20.362 -19.647  0.00  0.00    +0.120 C 
ATOM      8  C   UNL     1      35.884 -21.041 -18.913  0.00  0.00    +0.120 C 
ATOM      9  C   UNL     1      33.868 -22.058 -17.890  0.00  0.00    +0.090 C 
ATOM     10  C   UNL     1      34.090 -23.146 -15.878  0.00  0.00    +0.113 C 
ATOM     11  C   UNL     1      32.008 -23.004 -16.926  0.00  0.00    +0.170 C 
ATOM     12  C   UNL     1      32.745 -23.453 -15.850  0.00  0.00    +0.078 C 
ENDROOT
BRANCH  12  15
ATOM     13  O   UNL     1      30.920 -24.431 -14.742  0.00  0.00    -0.268 OA
ATOM     14  N   UNL     1      32.987 -24.627 -13.741  0.00  0.00    -0.194 N 
ATOM     15  C   UNL     1      32.145 -24.199 -14.761  0.00  0.00    +0.267 C 
ATOM     16  H   UNL     1      33.954 -24.440 -13.760  0.00  0.00    +0.183 HD
BRANCH  14  17
ATOM     17  O   UNL     1      32.398 -25.336 -12.684  0.00  0.00    -0.295 OA
ATOM     18  H   UNL     1      32.715 -26.252 -12.693  0.00  0.00    +0.241 HD
ENDBRANCH  14  17
ENDBRANCH  12  15
BRANCH   1  19
ATOM     19  S   UNL     1      36.241 -19.016 -22.384  0.00  0.00    +0.063 S 
ATOM     20  O   UNL     1      35.784 -19.776 -23.528  0.00  0.00    -0.153 OA
ATOM     21  O   UNL     1      37.650 -18.761 -22.173  0.00  0.00    -0.153 OA
BRANCH  19  22
ATOM     22  C   UNL     1      35.404 -17.462 -22.397  0.00  0.00    +0.122 C 
ATOM     23  C   UNL     1      35.122 -16.833 -21.196  0.00  0.00    +0.020 C 
ATOM     24  C   UNL     1      35.044 -16.899 -23.607  0.00  0.00    +0.020 C 
ATOM     25  C   UNL     1      34.455 -15.597 -21.190  0.00  0.00    +0.001 C 
ATOM     26  C   UNL     1      34.080 -15.006 -22.420  0.00  0.00    +0.000 C 
ATOM     27  C   UNL     1      34.382 -15.670 -23.621  0.00  0.00    +0.001 C 
ATOM     28  C   UNL     1      34.154 -14.933 -19.990  0.00  0.00    +0.000 C 
ATOM     29  C   UNL     1      33.414 -13.770 -22.413  0.00  0.00    +0.000 C 
ATOM     30  C   UNL     1      33.491 -13.705 -20.002  0.00  0.00    +0.000 C 
ATOM     31  C   UNL     1      33.122 -13.125 -21.212  0.00  0.00    +0.000 C 
ENDBRANCH  19  22
ENDBRANCH   1  19
TORSDOF 4
ENDMDL
MODEL 6
REMARK VINA RESULT:      -9.7      6.988     10.780
REMARK  Name = 10309899
REMARK  4 active torsions:
REMARK  status: ('A' for Active; 'I' for Inactive)
REMARK    1  A    between atoms: N_1  and  S_19
REMARK    2  A    between atoms: C_12  and  C_15
REMARK    3  A    between atoms: N_14  and  O_17
REMARK    4  A    between atoms: S_19  and  C_22
REMARK                            x       y       z     vdW  Elec       q    Type
REMARK                         _______ _______ _______ _____ _____    ______ ____
ROOT
ATOM      1  N   UNL     1      31.646  -9.136 -22.724  0.00  0.00    -0.152 NA
ATOM      2  N   UNL     1      32.972 -11.606 -22.296  0.00  0.00    -0.250 N 
ATOM      3  N   UNL     1      33.319 -13.506 -20.939  0.00  0.00    -0.180 NA
ATOM      4  N   UNL     1      34.269 -13.384 -23.150  0.00  0.00    -0.203 NA
ATOM      5  C   UNL     1      32.555  -9.682 -23.771  0.00  0.00    +0.118 C 
ATOM      6  C   UNL     1      32.126  -9.494 -21.360  0.00  0.00    +0.118 C 
ATOM      7  C   UNL     1      32.603 -11.202 -23.661  0.00  0.00    +0.120 C 
ATOM      8  C   UNL     1      32.173 -11.014 -21.217  0.00  0.00    +0.120 C 
ATOM      9  C   UNL     1      33.539 -12.873 -22.123  0.00  0.00    +0.090 C 
ATOM     10  C   UNL     1      33.879 -14.726 -20.807  0.00  0.00    +0.113 C 
ATOM     11  C   UNL     1      34.800 -14.608 -22.950  0.00  0.00    +0.170 C 
ATOM     12  C   UNL     1      34.637 -15.333 -21.787  0.00  0.00    +0.078 C 
ENDROOT
BRANCH  12  15
ATOM     13  O   UNL     1      35.196 -17.214 -20.498  0.00  0.00    -0.268 OA
ATOM     14  N   UNL     1      35.829 -17.231 -22.714  0.00  0.00    -0.194 N 
ATOM     15  C   UNL     1      35.225 -16.646 -21.608  0.00  0.00    +0.267 C 
ATOM     16  H   UNL     1      35.850 -16.778 -23.588  0.00  0.00    +0.183 HD
BRANCH  14  17
ATOM     17  O   UNL     1      36.408 -18.494 -22.530  0.00  0.00    -0.295 OA
ATOM     18  H   UNL     1      36.995 -18.694 -23.276  0.00  0.00    +0.241 HD
ENDBRANCH  14  17
ENDBRANCH  12  15
BRANCH   1  19
ATOM     19  S   UNL     1      31.183  -7.499 -22.933  0.00  0.00    +0.063 S 
ATOM     20  O   UNL     1      31.133  -6.854 -21.639  0.00  0.00    -0.153 OA
ATOM     21  O   UNL     1      30.057  -7.442 -23.840  0.00  0.00    -0.153 OA
BRANCH  19  22
ATOM     22  C   UNL     1      32.600  -6.886 -23.789  0.00  0.00    +0.122 C 
ATOM     23  C   UNL     1      32.487  -6.531 -25.122  0.00  0.00    +0.020 C 
ATOM     24  C   UNL     1      33.800  -6.769 -23.112  0.00  0.00    +0.020 C 
ATOM     25  C   UNL     1      33.606  -6.042 -25.817  0.00  0.00    +0.001 C 
ATOM     26  C   UNL     1      34.841  -5.917 -25.138  0.00  0.00    +0.000 C 
ATOM     27  C   UNL     1      34.922  -6.284 -23.785  0.00  0.00    +0.001 C 
ATOM     28  C   UNL     1      33.525  -5.673 -27.170  0.00  0.00    +0.000 C 
ATOM     29  C   UNL     1      35.959  -5.427 -25.833  0.00  0.00    +0.000 C 
ATOM     30  C   UNL     1      34.646  -5.190 -27.844  0.00  0.00    +0.000 C 
ATOM     31  C   UNL     1      35.861  -5.067 -27.177  0.00  0.00    +0.000 C 
ENDBRANCH  19  22
ENDBRANCH   1  19
TORSDOF 4
ENDMDL
MODEL 7
REMARK VINA RESULT:      -9.5      3.603     10.597
REMARK  Name = 10309899
REMARK  4 active torsions:
REMARK  status: ('A' for Active; 'I' for Inactive)
REMARK    1  A    between atoms: N_1  and  S_19
REMARK    2  A    between atoms: C_12  and  C_15
REMARK    3  A    between atoms: N_14  and  O_17
REMARK    4  A    between atoms: S_19  and  C_22
REMARK                            x       y       z     vdW  Elec       q    Type
REMARK                         _______ _______ _______ _____ _____    ______ ____
ROOT
ATOM      1  N   UNL     1      33.151 -23.617 -15.447  0.00  0.00    -0.152 NA
ATOM      2  N   UNL     1      33.723 -22.011 -17.713  0.00  0.00    -0.250 N 
ATOM      3  N   UNL     1      35.291 -21.233 -19.296  0.00  0.00    -0.180 NA
ATOM      4  N   UNL     1      32.945 -20.746 -19.548  0.00  0.00    -0.203 NA
ATOM      5  C   UNL     1      32.052 -22.882 -16.132  0.00  0.00    +0.118 C 
ATOM      6  C   UNL     1      34.428 -22.851 -15.511  0.00  0.00    +0.118 C 
ATOM      7  C   UNL     1      32.416 -22.673 -17.598  0.00  0.00    +0.120 C 
ATOM      8  C   UNL     1      34.824 -22.636 -16.970  0.00  0.00    +0.120 C 
ATOM      9  C   UNL     1      33.995 -21.306 -18.891  0.00  0.00    +0.090 C 
ATOM     10  C   UNL     1      35.517 -20.547 -20.435  0.00  0.00    +0.113 C 
ATOM     11  C   UNL     1      33.243 -20.075 -20.680  0.00  0.00    +0.170 C 
ATOM     12  C   UNL     1      34.523 -19.941 -21.176  0.00  0.00    +0.078 C 
ENDROOT
BRANCH  12  15
ATOM     13  O   UNL     1      34.710 -19.763 -23.511  0.00  0.00    -0.268 OA
ATOM     14  N   UNL     1      35.198 -17.883 -22.269  0.00  0.00    -0.194 N 
ATOM     15  C   UNL     1      34.805 -19.210 -22.397  0.00  0.00    +0.267 C 
ATOM     16  H   UNL     1      35.273 -17.452 -21.387  0.00  0.00    +0.183 HD
BRANCH  14  17
ATOM     17  O   UNL     1      35.483 -17.187 -23.452  0.00  0.00    -0.295 OA
ATOM     18  H   UNL     1      36.090 -16.456 -23.260  0.00  0.00    +0.241 HD
ENDBRANCH  14  17
ENDBRANCH  12  15
BRANCH   1  19
ATOM     19  S   UNL     1      32.758 -24.261 -13.908  0.00  0.00    +0.063 S 
ATOM     20  O   UNL     1      32.074 -25.524 -14.087  0.00  0.00    -0.153 OA
ATOM     21  O   UNL     1      32.187 -23.212 -13.092  0.00  0.00    -0.153 OA
BRANCH  19  22
ATOM     22  C   UNL     1      34.378 -24.605 -13.296  0.00  0.00    +0.122 C 
ATOM     23  C   UNL     1      35.335 -25.115 -14.157  0.00  0.00    +0.020 C 
ATOM     24  C   UNL     1      34.664 -24.356 -11.966  0.00  0.00    +0.020 C 
ATOM     25  C   UNL     1      36.628 -25.395 -13.685  0.00  0.00    +0.001 C 
ATOM     26  C   UNL     1      36.937 -25.146 -12.326  0.00  0.00    +0.000 C 
ATOM     27  C   UNL     1      35.944 -24.627 -11.480  0.00  0.00    +0.001 C 
ATOM     28  C   UNL     1      37.621 -25.913 -14.531  0.00  0.00    +0.000 C 
ATOM     29  C   UNL     1      38.230 -25.425 -11.855  0.00  0.00    +0.000 C 
ATOM     30  C   UNL     1      38.900 -26.185 -14.045  0.00  0.00    +0.000 C 
ATOM     31  C   UNL     1      39.204 -25.941 -12.709  0.00  0.00    +0.000 C 
ENDBRANCH  19  22
ENDBRANCH   1  19
TORSDOF 4
ENDMDL
MODEL 8
REMARK VINA RESULT:      -9.2      6.178      9.656
REMARK  Name = 10309899
REMARK  4 active torsions:
REMARK  status: ('A' for Active; 'I' for Inactive)
REMARK    1  A    between atoms: N_1  and  S_19
REMARK    2  A    between atoms: C_12  and  C_15
REMARK    3  A    between atoms: N_14  and  O_17
REMARK    4  A    between atoms: S_19  and  C_22
REMARK                            x       y       z     vdW  Elec       q    Type
REMARK                         _______ _______ _______ _____ _____    ______ ____
ROOT
ATOM      1  N   UNL     1      32.599 -10.294 -22.175  0.00  0.00    -0.152 NA
ATOM      2  N   UNL     1      33.533 -12.965 -21.992  0.00  0.00    -0.250 N 
ATOM      3  N   UNL     1      34.857 -14.710 -22.873  0.00  0.00    -0.180 NA
ATOM      4  N   UNL     1      33.805 -14.934 -20.717  0.00  0.00    -0.203 NA
ATOM      5  C   UNL     1      32.222 -11.134 -21.004  0.00  0.00    +0.118 C 
ATOM      6  C   UNL     1      32.726 -11.123 -23.408  0.00  0.00    +0.118 C 
ATOM      7  C   UNL     1      33.298 -12.189 -20.767  0.00  0.00    +0.120 C 
ATOM      8  C   UNL     1      33.806 -12.182 -23.203  0.00  0.00    +0.120 C 
ATOM      9  C   UNL     1      34.083 -14.245 -21.856  0.00  0.00    +0.090 C 
ATOM     10  C   UNL     1      35.371 -15.946 -22.709  0.00  0.00    +0.113 C 
ATOM     11  C   UNL     1      34.352 -16.163 -20.619  0.00  0.00    +0.170 C 
ATOM     12  C   UNL     1      35.151 -16.726 -21.593  0.00  0.00    +0.078 C 
ENDROOT
BRANCH  12  15
ATOM     13  O   UNL     1      36.772 -18.364 -22.044  0.00  0.00    -0.268 OA
ATOM     14  N   UNL     1      35.038 -18.958 -20.647  0.00  0.00    -0.194 N 
ATOM     15  C   UNL     1      35.720 -18.053 -21.452  0.00  0.00    +0.267 C 
ATOM     16  H   UNL     1      34.206 -18.707 -20.183  0.00  0.00    +0.183 HD
BRANCH  14  17
ATOM     17  O   UNL     1      35.586 -20.242 -20.528  0.00  0.00    -0.295 OA
ATOM     18  H   UNL     1      34.948 -20.898 -20.849  0.00  0.00    +0.241 HD
ENDBRANCH  14  17
ENDBRANCH  12  15
BRANCH   1  19
ATOM     19  S   UNL     1      31.708  -8.842 -22.356  0.00  0.00    +0.063 S 
ATOM     20  O   UNL     1      31.502  -8.249 -21.052  0.00  0.00    -0.153 OA
ATOM     21  O   UNL     1      30.596  -9.082 -23.251  0.00  0.00    -0.153 OA
BRANCH  19  22
ATOM     22  C   UNL     1      32.895  -7.858 -23.216  0.00  0.00    +0.122 C 
ATOM     23  C   UNL     1      32.529  -7.227 -24.393  0.00  0.00    +0.020 C 
ATOM     24  C   UNL     1      34.171  -7.734 -22.699  0.00  0.00    +0.020 C 
ATOM     25  C   UNL     1      33.462  -6.442 -25.089  0.00  0.00    +0.001 C 
ATOM     26  C   UNL     1      34.773  -6.304 -24.573  0.00  0.00    +0.000 C 
ATOM     27  C   UNL     1      35.112  -6.957 -23.376  0.00  0.00    +0.001 C 
ATOM     28  C   UNL     1      33.123  -5.788 -26.285  0.00  0.00    +0.000 C 
ATOM     29  C   UNL     1      35.706  -5.518 -25.269  0.00  0.00    +0.000 C 
ATOM     30  C   UNL     1      34.063  -5.012 -26.964  0.00  0.00    +0.000 C 
ATOM     31  C   UNL     1      35.352  -4.878 -26.456  0.00  0.00    +0.000 C 
ENDBRANCH  19  22
ENDBRANCH   1  19
TORSDOF 4
ENDMDL
MODEL 9
REMARK VINA RESULT:      -8.8      8.281     12.525
REMARK  Name = 10309899
REMARK  4 active torsions:
REMARK  status: ('A' for Active; 'I' for Inactive)
REMARK    1  A    between atoms: N_1  and  S_19
REMARK    2  A    between atoms: C_12  and  C_15
REMARK    3  A    between atoms: N_14  and  O_17
REMARK    4  A    between atoms: S_19  and  C_22
REMARK                            x       y       z     vdW  Elec       q    Type
REMARK                         _______ _______ _______ _____ _____    ______ ____
ROOT
ATOM      1  N   UNL     1      31.491  -7.421 -22.177  0.00  0.00    -0.152 NA
ATOM      2  N   UNL     1      32.511 -10.035 -22.588  0.00  0.00    -0.250 N 
ATOM      3  N   UNL     1      32.745 -12.258 -21.829  0.00  0.00    -0.180 NA
ATOM      4  N   UNL     1      33.457 -11.635 -24.044  0.00  0.00    -0.203 NA
ATOM      5  C   UNL     1      32.199  -7.751 -23.445  0.00  0.00    +0.118 C 
ATOM      6  C   UNL     1      32.063  -8.184 -21.031  0.00  0.00    +0.118 C 
ATOM      7  C   UNL     1      32.054  -9.240 -23.738  0.00  0.00    +0.120 C 
ATOM      8  C   UNL     1      31.921  -9.682 -21.292  0.00  0.00    +0.120 C 
ATOM      9  C   UNL     1      32.918 -11.352 -22.829  0.00  0.00    +0.090 C 
ATOM     10  C   UNL     1      33.147 -13.517 -22.094  0.00  0.00    +0.113 C 
ATOM     11  C   UNL     1      33.837 -12.914 -24.242  0.00  0.00    +0.170 C 
ATOM     12  C   UNL     1      33.705 -13.907 -23.294  0.00  0.00    +0.078 C 
ENDROOT
BRANCH  12  15
ATOM     13  O   UNL     1      34.708 -15.934 -22.660  0.00  0.00    -0.268 OA
ATOM     14  N   UNL     1      33.872 -15.800 -24.804  0.00  0.00    -0.194 N 
ATOM     15  C   UNL     1      34.128 -15.273 -23.543  0.00  0.00    +0.267 C 
ATOM     16  H   UNL     1      33.415 -15.272 -25.498  0.00  0.00    +0.183 HD
BRANCH  14  17
ATOM     17  O   UNL     1      34.296 -17.114 -25.042  0.00  0.00    -0.295 OA
ATOM     18  H   UNL     1      34.007 -17.685 -24.313  0.00  0.00    +0.241 HD
ENDBRANCH  14  17
ENDBRANCH  12  15
BRANCH   1  19
ATOM     19  S   UNL     1      31.232  -5.752 -21.891  0.00  0.00    +0.063 S 
ATOM     20  O   UNL     1      32.162  -5.297 -20.879  0.00  0.00    -0.153 OA
ATOM     21  O   UNL     1      29.811  -5.513 -21.760  0.00  0.00    -0.153 OA
BRANCH  19  22
ATOM     22  C   UNL     1      31.754  -5.090 -23.442  0.00  0.00    +0.122 C 
ATOM     23  C   UNL     1      33.058  -5.291 -23.861  0.00  0.00    +0.020 C 
ATOM     24  C   UNL     1      30.851  -4.382 -24.212  0.00  0.00    +0.020 C 
ATOM     25  C   UNL     1      33.489  -4.770 -25.092  0.00  0.00    +0.001 C 
ATOM     26  C   UNL     1      32.577  -4.043 -25.893  0.00  0.00    +0.000 C 
ATOM     27  C   UNL     1      31.261  -3.857 -25.439  0.00  0.00    +0.001 C 
ATOM     28  C   UNL     1      34.805  -4.956 -25.547  0.00  0.00    +0.000 C 
ATOM     29  C   UNL     1      33.008  -3.522 -27.124  0.00  0.00    +0.000 C 
ATOM     30  C   UNL     1      35.216  -4.431 -26.772  0.00  0.00    +0.000 C 
ATOM     31  C   UNL     1      34.318  -3.716 -27.559  0.00  0.00    +0.000 C 
ENDBRANCH  19  22
ENDBRANCH   1  19
TORSDOF 4
ENDMDL
