MODEL 1
REMARK VINA RESULT:     -11.6      0.000      0.000
REMARK  Name = 23586145
REMARK  7 active torsions:
REMARK  status: ('A' for Active; 'I' for Inactive)
REMARK    1  A    between atoms: C_5  and  O_24
REMARK    2  A    between atoms: C_7  and  N_10
REMARK    3  A    between atoms: N_10  and  C_12
REMARK    4  A    between atoms: C_15  and  S_18
REMARK    5  A    between atoms: S_18  and  N_21
REMARK    6  A    between atoms: O_24  and  C_25
REMARK    7  A    between atoms: C_25  and  C_26
REMARK                            x       y       z     vdW  Elec       q    Type
REMARK                         _______ _______ _______ _____ _____    ______ ____
ROOT
ATOM      1  N   UNL     1      37.195 -23.621 -13.450  0.00  0.00    -0.299 NA
ATOM      2  N   UNL     1      35.299 -24.367 -12.170  0.00  0.00    -0.106 N 
ATOM      3  N   UNL     1      34.986 -24.593 -10.867  0.00  0.00    -0.139 NA
ATOM      4  N   UNL     1      37.139 -23.867 -11.035  0.00  0.00    -0.145 NA
ATOM      5  C   UNL     1      36.432 -23.775 -14.483  0.00  0.00    +0.291 C 
ATOM      6  C   UNL     1      35.027 -24.236 -14.511  0.00  0.00    +0.105 C 
ATOM      7  C   UNL     1      34.496 -24.525 -13.309  0.00  0.00    +0.142 C 
ATOM      8  C   UNL     1      36.625 -23.923 -12.247  0.00  0.00    +0.178 C 
ATOM      9  C   UNL     1      36.116 -24.279 -10.242  0.00  0.00    +0.230 C 
ENDROOT
BRANCH   7  10
ATOM     10  N   UNL     1      33.216 -24.963 -13.124  0.00  0.00    -0.299 N 
ATOM     11  H   UNL     1      33.100 -25.678 -12.457  0.00  0.00    +0.153 HD
BRANCH  10  12
ATOM     12  C   UNL     1      32.048 -24.529 -13.762  0.00  0.00    +0.049 C 
ATOM     13  C   UNL     1      30.918 -25.354 -13.810  0.00  0.00    +0.016 C 
ATOM     14  C   UNL     1      31.996 -23.262 -14.358  0.00  0.00    +0.016 C 
ATOM     15  C   UNL     1      29.712 -23.658 -15.038  0.00  0.00    +0.122 C 
ATOM     16  C   UNL     1      29.755 -24.920 -14.446  0.00  0.00    +0.021 C 
ATOM     17  C   UNL     1      30.833 -22.829 -14.994  0.00  0.00    +0.021 C 
BRANCH  15  18
ATOM     18  S   UNL     1      28.255 -23.115 -15.833  0.00  0.00    +0.057 S 
ATOM     19  O   UNL     1      27.217 -22.949 -14.827  0.00  0.00    -0.153 OA
ATOM     20  O   UNL     1      28.595 -22.006 -16.713  0.00  0.00    -0.153 OA
BRANCH  18  21
ATOM     21  N   UNL     1      27.881 -24.480 -16.792  0.00  0.00    -0.203 NA
ATOM     22  H   UNL     1      28.414 -24.439 -17.661  0.00  0.00    +0.144 HD
ATOM     23  H   UNL     1      26.884 -24.484 -17.003  0.00  0.00    +0.144 HD
ENDBRANCH  18  21
ENDBRANCH  15  18
ENDBRANCH  10  12
ENDBRANCH   7  10
BRANCH   5  24
ATOM     24  O   UNL     1      36.898 -23.507 -15.699  0.00  0.00    -0.451 OA
BRANCH  24  25
ATOM     25  C   UNL     1      36.716 -22.173 -16.135  0.00  0.00    +0.208 C 
BRANCH  25  26
ATOM     26  C   UNL     1      36.136 -22.201 -17.548  0.00  0.00    +0.044 C 
ATOM     27  C   UNL     1      34.605 -22.313 -17.503  0.00  0.00    +0.004 C 
ATOM     28  C   UNL     1      36.570 -20.959 -18.337  0.00  0.00    +0.004 C 
ATOM     29  C   UNL     1      33.997 -22.290 -18.905  0.00  0.00    +0.000 C 
ATOM     30  C   UNL     1      35.958 -20.937 -19.737  0.00  0.00    +0.000 C 
ATOM     31  C   UNL     1      34.438 -21.058 -19.688  0.00  0.00    +0.000 C 
ENDBRANCH  25  26
ENDBRANCH  24  25
ENDBRANCH   5  24
TORSDOF 7
ENDMDL
MODEL 2
REMARK VINA RESULT:     -11.5      3.982      7.145
REMARK  Name = 23586145
REMARK  7 active torsions:
REMARK  status: ('A' for Active; 'I' for Inactive)
REMARK    1  A    between atoms: C_5  and  O_24
REMARK    2  A    between atoms: C_7  and  N_10
REMARK    3  A    between atoms: N_10  and  C_12
REMARK    4  A    between atoms: C_15  and  S_18
REMARK    5  A    between atoms: S_18  and  N_21
REMARK    6  A    between atoms: O_24  and  C_25
REMARK    7  A    between atoms: C_25  and  C_26
REMARK                            x       y       z     vdW  Elec       q    Type
REMARK                         _______ _______ _______ _____ _____    ______ ____
ROOT
ATOM      1  N   UNL     1      32.497 -23.345 -13.906  0.00  0.00    -0.299 NA
ATOM      2  N   UNL     1      31.784 -22.985 -16.175  0.00  0.00    -0.106 N 
ATOM      3  N   UNL     1      30.635 -22.688 -16.837  0.00  0.00    -0.139 NA
ATOM      4  N   UNL     1      30.231 -22.817 -14.599  0.00  0.00    -0.145 NA
ATOM      5  C   UNL     1      33.673 -23.537 -14.411  0.00  0.00    +0.291 C 
ATOM      6  C   UNL     1      34.066 -23.483 -15.836  0.00  0.00    +0.105 C 
ATOM      7  C   UNL     1      33.070 -23.199 -16.694  0.00  0.00    +0.142 C 
ATOM      8  C   UNL     1      31.510 -23.059 -14.804  0.00  0.00    +0.178 C 
ATOM      9  C   UNL     1      29.750 -22.600 -15.850  0.00  0.00    +0.230 C 
ENDROOT
BRANCH   7  10
ATOM     10  N   UNL     1      33.229 -23.102 -18.046  0.00  0.00    -0.299 N 
ATOM     11  H   UNL     1      32.855 -23.843 -18.576  0.00  0.00    +0.153 HD
BRANCH  10  12
ATOM     12  C   UNL     1      33.859 -22.088 -18.776  0.00  0.00    +0.049 C 
ATOM     13  C   UNL     1      35.255 -21.976 -18.777  0.00  0.00    +0.016 C 
ATOM     14  C   UNL     1      33.099 -21.172 -19.516  0.00  0.00    +0.016 C 
ATOM     15  C   UNL     1      35.117 -20.056 -20.238  0.00  0.00    +0.122 C 
ATOM     16  C   UNL     1      35.881 -20.964 -19.505  0.00  0.00    +0.021 C 
ATOM     17  C   UNL     1      33.726 -20.161 -20.244  0.00  0.00    +0.021 C 
BRANCH  15  18
ATOM     18  S   UNL     1      35.902 -18.790 -21.149  0.00  0.00    +0.057 S 
ATOM     19  O   UNL     1      35.750 -19.083 -22.567  0.00  0.00    -0.153 OA
ATOM     20  O   UNL     1      35.464 -17.504 -20.626  0.00  0.00    -0.153 OA
BRANCH  18  21
ATOM     21  N   UNL     1      37.534 -19.036 -20.707  0.00  0.00    -0.203 NA
ATOM     22  H   UNL     1      37.720 -20.036 -20.640  0.00  0.00    +0.144 HD
ATOM     23  H   UNL     1      37.711 -18.596 -19.804  0.00  0.00    +0.144 HD
ENDBRANCH  18  21
ENDBRANCH  15  18
ENDBRANCH  10  12
ENDBRANCH   7  10
BRANCH   5  24
ATOM     24  O   UNL     1      34.699 -23.822 -13.615  0.00  0.00    -0.451 OA
BRANCH  24  25
ATOM     25  C   UNL     1      35.880 -23.083 -13.865  0.00  0.00    +0.208 C 
BRANCH  25  26
ATOM     26  C   UNL     1      37.080 -23.931 -13.446  0.00  0.00    +0.044 C 
ATOM     27  C   UNL     1      36.616 -25.270 -12.856  0.00  0.00    +0.004 C 
ATOM     28  C   UNL     1      38.026 -24.155 -14.633  0.00  0.00    +0.004 C 
ATOM     29  C   UNL     1      37.800 -26.158 -12.476  0.00  0.00    +0.000 C 
ATOM     30  C   UNL     1      39.207 -25.046 -14.251  0.00  0.00    +0.000 C 
ATOM     31  C   UNL     1      38.743 -26.371 -13.656  0.00  0.00    +0.000 C 
ENDBRANCH  25  26
ENDBRANCH  24  25
ENDBRANCH   5  24
TORSDOF 7
ENDMDL
MODEL 3
REMARK VINA RESULT:     -11.4      3.677      6.834
REMARK  Name = 23586145
REMARK  7 active torsions:
REMARK  status: ('A' for Active; 'I' for Inactive)
REMARK    1  A    between atoms: C_5  and  O_24
REMARK    2  A    between atoms: C_7  and  N_10
REMARK    3  A    between atoms: N_10  and  C_12
REMARK    4  A    between atoms: C_15  and  S_18
REMARK    5  A    between atoms: S_18  and  N_21
REMARK    6  A    between atoms: O_24  and  C_25
REMARK    7  A    between atoms: C_25  and  C_26
REMARK                            x       y       z     vdW  Elec       q    Type
REMARK                         _______ _______ _______ _____ _____    ______ ____
ROOT
ATOM      1  N   UNL     1      32.014 -22.503 -17.484  0.00  0.00    -0.299 NA
ATOM      2  N   UNL     1      32.314 -23.431 -15.285  0.00  0.00    -0.106 N 
ATOM      3  N   UNL     1      31.550 -23.726 -14.201  0.00  0.00    -0.139 NA
ATOM      4  N   UNL     1      30.251 -22.840 -15.849  0.00  0.00    -0.145 NA
ATOM      5  C   UNL     1      33.289 -22.674 -17.622  0.00  0.00    +0.291 C 
ATOM      6  C   UNL     1      34.239 -23.235 -16.637  0.00  0.00    +0.105 C 
ATOM      7  C   UNL     1      33.695 -23.605 -15.463  0.00  0.00    +0.142 C 
ATOM      8  C   UNL     1      31.495 -22.889 -16.283  0.00  0.00    +0.178 C 
ATOM      9  C   UNL     1      30.337 -23.354 -14.595  0.00  0.00    +0.230 C 
ENDROOT
BRANCH   7  10
ATOM     10  N   UNL     1      34.403 -24.143 -14.428  0.00  0.00    -0.299 N 
ATOM     11  H   UNL     1      33.894 -24.311 -13.602  0.00  0.00    +0.153 HD
BRANCH  10  12
ATOM     12  C   UNL     1      35.759 -24.486 -14.388  0.00  0.00    +0.049 C 
ATOM     13  C   UNL     1      36.157 -25.823 -14.512  0.00  0.00    +0.016 C 
ATOM     14  C   UNL     1      36.735 -23.495 -14.224  0.00  0.00    +0.016 C 
ATOM     15  C   UNL     1      38.474 -25.170 -14.308  0.00  0.00    +0.122 C 
ATOM     16  C   UNL     1      37.509 -26.164 -14.472  0.00  0.00    +0.021 C 
ATOM     17  C   UNL     1      38.087 -23.835 -14.185  0.00  0.00    +0.021 C 
BRANCH  15  18
ATOM     18  S   UNL     1      40.167 -25.597 -14.258  0.00  0.00    +0.057 S 
ATOM     19  O   UNL     1      40.933 -24.399 -13.947  0.00  0.00    -0.153 OA
ATOM     20  O   UNL     1      40.319 -26.788 -13.435  0.00  0.00    -0.153 OA
BRANCH  18  21
ATOM     21  N   UNL     1      40.443 -26.020 -15.891  0.00  0.00    -0.203 NA
ATOM     22  H   UNL     1      40.306 -27.024 -16.008  0.00  0.00    +0.144 HD
ATOM     23  H   UNL     1      41.398 -25.775 -16.149  0.00  0.00    +0.144 HD
ENDBRANCH  18  21
ENDBRANCH  15  18
ENDBRANCH  10  12
ENDBRANCH   7  10
BRANCH   5  24
ATOM     24  O   UNL     1      33.887 -22.329 -18.758  0.00  0.00    -0.451 OA
BRANCH  24  25
ATOM     25  C   UNL     1      35.257 -21.996 -18.642  0.00  0.00    +0.208 C 
BRANCH  25  26
ATOM     26  C   UNL     1      35.647 -21.124 -19.834  0.00  0.00    +0.044 C 
ATOM     27  C   UNL     1      34.428 -20.354 -20.363  0.00  0.00    +0.004 C 
ATOM     28  C   UNL     1      36.778 -20.160 -19.455  0.00  0.00    +0.004 C 
ATOM     29  C   UNL     1      34.803 -19.435 -21.524  0.00  0.00    +0.000 C 
ATOM     30  C   UNL     1      37.149 -19.240 -20.617  0.00  0.00    +0.000 C 
ATOM     31  C   UNL     1      35.934 -18.485 -21.145  0.00  0.00    +0.000 C 
ENDBRANCH  25  26
ENDBRANCH  24  25
ENDBRANCH   5  24
TORSDOF 7
ENDMDL
MODEL 4
REMARK VINA RESULT:     -11.4      3.391      6.670
REMARK  Name = 23586145
REMARK  7 active torsions:
REMARK  status: ('A' for Active; 'I' for Inactive)
REMARK    1  A    between atoms: C_5  and  O_24
REMARK    2  A    between atoms: C_7  and  N_10
REMARK    3  A    between atoms: N_10  and  C_12
REMARK    4  A    between atoms: C_15  and  S_18
REMARK    5  A    between atoms: S_18  and  N_21
REMARK    6  A    between atoms: O_24  and  C_25
REMARK    7  A    between atoms: C_25  and  C_26
REMARK                            x       y       z     vdW  Elec       q    Type
REMARK                         _______ _______ _______ _____ _____    ______ ____
ROOT
ATOM      1  N   UNL     1      31.487 -23.545 -15.927  0.00  0.00    -0.299 NA
ATOM      2  N   UNL     1      32.293 -24.526 -13.884  0.00  0.00    -0.106 N 
ATOM      3  N   UNL     1      31.779 -25.155 -12.794  0.00  0.00    -0.139 NA
ATOM      4  N   UNL     1      30.102 -24.589 -14.228  0.00  0.00    -0.145 NA
ATOM      5  C   UNL     1      32.729 -23.278 -16.172  0.00  0.00    +0.291 C 
ATOM      6  C   UNL     1      33.905 -23.589 -15.331  0.00  0.00    +0.105 C 
ATOM      7  C   UNL     1      33.631 -24.223 -14.177  0.00  0.00    +0.142 C 
ATOM      8  C   UNL     1      31.244 -24.189 -14.749  0.00  0.00    +0.178 C 
ATOM      9  C   UNL     1      30.476 -25.163 -13.056  0.00  0.00    +0.230 C 
ENDROOT
BRANCH   7  10
ATOM     10  N   UNL     1      34.577 -24.597 -13.266  0.00  0.00    -0.299 N 
ATOM     11  H   UNL     1      34.265 -24.690 -12.337  0.00  0.00    +0.153 HD
BRANCH  10  12
ATOM     12  C   UNL     1      35.934 -24.863 -13.483  0.00  0.00    +0.049 C 
ATOM     13  C   UNL     1      36.326 -25.889 -14.351  0.00  0.00    +0.016 C 
ATOM     14  C   UNL     1      36.917 -24.105 -12.833  0.00  0.00    +0.016 C 
ATOM     15  C   UNL     1      38.650 -25.394 -13.915  0.00  0.00    +0.122 C 
ATOM     16  C   UNL     1      37.679 -26.153 -14.566  0.00  0.00    +0.021 C 
ATOM     17  C   UNL     1      38.269 -24.369 -13.048  0.00  0.00    +0.021 C 
BRANCH  15  18
ATOM     18  S   UNL     1      40.343 -25.725 -14.184  0.00  0.00    +0.057 S 
ATOM     19  O   UNL     1      41.101 -24.520 -13.877  0.00  0.00    -0.153 OA
ATOM     20  O   UNL     1      40.680 -26.979 -13.525  0.00  0.00    -0.153 OA
BRANCH  18  21
ATOM     21  N   UNL     1      40.361 -25.972 -15.875  0.00  0.00    -0.203 NA
ATOM     22  H   UNL     1      39.625 -25.412 -16.307  0.00  0.00    +0.144 HD
ATOM     23  H   UNL     1      40.200 -26.958 -16.076  0.00  0.00    +0.144 HD
ENDBRANCH  18  21
ENDBRANCH  15  18
ENDBRANCH  10  12
ENDBRANCH   7  10
BRANCH   5  24
ATOM     24  O   UNL     1      33.065 -22.651 -17.296  0.00  0.00    -0.451 OA
BRANCH  24  25
ATOM     25  C   UNL     1      34.424 -22.769 -17.669  0.00  0.00    +0.208 C 
BRANCH  25  26
ATOM     26  C   UNL     1      34.630 -22.029 -18.990  0.00  0.00    +0.044 C 
ATOM     27  C   UNL     1      33.440 -21.104 -19.282  0.00  0.00    +0.004 C 
ATOM     28  C   UNL     1      35.944 -21.239 -18.970  0.00  0.00    +0.004 C 
ATOM     29  C   UNL     1      33.646 -20.313 -20.573  0.00  0.00    +0.000 C 
ATOM     30  C   UNL     1      36.146 -20.447 -20.261  0.00  0.00    +0.000 C 
ATOM     31  C   UNL     1      34.958 -19.536 -20.552  0.00  0.00    +0.000 C 
ENDBRANCH  25  26
ENDBRANCH  24  25
ENDBRANCH   5  24
TORSDOF 7
ENDMDL
MODEL 5
REMARK VINA RESULT:     -11.2      4.083      7.450
REMARK  Name = 23586145
REMARK  7 active torsions:
REMARK  status: ('A' for Active; 'I' for Inactive)
REMARK    1  A    between atoms: C_5  and  O_24
REMARK    2  A    between atoms: C_7  and  N_10
REMARK    3  A    between atoms: N_10  and  C_12
REMARK    4  A    between atoms: C_15  and  S_18
REMARK    5  A    between atoms: S_18  and  N_21
REMARK    6  A    between atoms: O_24  and  C_25
REMARK    7  A    between atoms: C_25  and  C_26
REMARK                            x       y       z     vdW  Elec       q    Type
REMARK                         _______ _______ _______ _____ _____    ______ ____
ROOT
ATOM      1  N   UNL     1      32.418 -23.204 -14.118  0.00  0.00    -0.299 NA
ATOM      2  N   UNL     1      34.081 -23.427 -15.841  0.00  0.00    -0.106 N 
ATOM      3  N   UNL     1      35.409 -23.699 -15.934  0.00  0.00    -0.139 NA
ATOM      4  N   UNL     1      34.761 -23.723 -13.751  0.00  0.00    -0.145 NA
ATOM      5  C   UNL     1      31.592 -22.959 -15.083  0.00  0.00    +0.291 C 
ATOM      6  C   UNL     1      31.883 -22.914 -16.533  0.00  0.00    +0.105 C 
ATOM      7  C   UNL     1      33.163 -23.158 -16.868  0.00  0.00    +0.142 C 
ATOM      8  C   UNL     1      33.707 -23.447 -14.492  0.00  0.00    +0.178 C 
ATOM      9  C   UNL     1      35.756 -23.866 -14.662  0.00  0.00    +0.230 C 
ENDROOT
BRANCH   7  10
ATOM     10  N   UNL     1      33.630 -23.163 -18.151  0.00  0.00    -0.299 N 
ATOM     11  H   UNL     1      33.584 -24.027 -18.620  0.00  0.00    +0.153 HD
BRANCH  10  12
ATOM     12  C   UNL     1      34.168 -22.099 -18.884  0.00  0.00    +0.049 C 
ATOM     13  C   UNL     1      33.326 -21.203 -19.554  0.00  0.00    +0.016 C 
ATOM     14  C   UNL     1      35.555 -21.918 -18.955  0.00  0.00    +0.016 C 
ATOM     15  C   UNL     1      35.245 -19.970 -20.350  0.00  0.00    +0.122 C 
ATOM     16  C   UNL     1      33.863 -20.142 -20.284  0.00  0.00    +0.021 C 
ATOM     17  C   UNL     1      36.092 -20.858 -19.685  0.00  0.00    +0.021 C 
BRANCH  15  18
ATOM     18  S   UNL     1      35.917 -18.642 -21.264  0.00  0.00    +0.057 S 
ATOM     19  O   UNL     1      35.739 -18.924 -22.682  0.00  0.00    -0.153 OA
ATOM     20  O   UNL     1      35.413 -17.395 -20.707  0.00  0.00    -0.153 OA
BRANCH  18  21
ATOM     21  N   UNL     1      37.575 -18.786 -20.876  0.00  0.00    -0.203 NA
ATOM     22  H   UNL     1      37.869 -17.970 -20.340  0.00  0.00    +0.144 HD
ATOM     23  H   UNL     1      38.121 -18.845 -21.734  0.00  0.00    +0.144 HD
ENDBRANCH  18  21
ENDBRANCH  15  18
ENDBRANCH  10  12
ENDBRANCH   7  10
BRANCH   5  24
ATOM     24  O   UNL     1      30.314 -22.710 -14.818  0.00  0.00    -0.451 OA
BRANCH  24  25
ATOM     25  C   UNL     1      29.479 -23.850 -14.745  0.00  0.00    +0.208 C 
BRANCH  25  26
ATOM     26  C   UNL     1      28.145 -23.517 -15.412  0.00  0.00    +0.044 C 
ATOM     27  C   UNL     1      27.433 -22.383 -14.662  0.00  0.00    +0.004 C 
ATOM     28  C   UNL     1      28.354 -23.150 -16.887  0.00  0.00    +0.004 C 
ATOM     29  C   UNL     1      26.120 -21.996 -15.341  0.00  0.00    +0.000 C 
ATOM     30  C   UNL     1      27.039 -22.761 -17.563  0.00  0.00    +0.000 C 
ATOM     31  C   UNL     1      26.330 -21.641 -16.809  0.00  0.00    +0.000 C 
ENDBRANCH  25  26
ENDBRANCH  24  25
ENDBRANCH   5  24
TORSDOF 7
ENDMDL
MODEL 6
REMARK VINA RESULT:     -11.1      7.473     10.480
REMARK  Name = 23586145
REMARK  7 active torsions:
REMARK  status: ('A' for Active; 'I' for Inactive)
REMARK    1  A    between atoms: C_5  and  O_24
REMARK    2  A    between atoms: C_7  and  N_10
REMARK    3  A    between atoms: N_10  and  C_12
REMARK    4  A    between atoms: C_15  and  S_18
REMARK    5  A    between atoms: S_18  and  N_21
REMARK    6  A    between atoms: O_24  and  C_25
REMARK    7  A    between atoms: C_25  and  C_26
REMARK                            x       y       z     vdW  Elec       q    Type
REMARK                         _______ _______ _______ _____ _____    ______ ____
ROOT
ATOM      1  N   UNL     1      34.260 -16.070 -23.907  0.00  0.00    -0.299 NA
ATOM      2  N   UNL     1      34.926 -18.256 -23.155  0.00  0.00    -0.106 N 
ATOM      3  N   UNL     1      34.791 -19.547 -23.557  0.00  0.00    -0.139 NA
ATOM      4  N   UNL     1      33.747 -18.160 -25.032  0.00  0.00    -0.145 NA
ATOM      5  C   UNL     1      34.875 -15.630 -22.857  0.00  0.00    +0.291 C 
ATOM      6  C   UNL     1      35.588 -16.419 -21.828  0.00  0.00    +0.105 C 
ATOM      7  C   UNL     1      35.585 -17.750 -22.024  0.00  0.00    +0.142 C 
ATOM      8  C   UNL     1      34.277 -17.424 -24.075  0.00  0.00    +0.178 C 
ATOM      9  C   UNL     1      34.083 -19.426 -24.676  0.00  0.00    +0.230 C 
ENDROOT
BRANCH   7  10
ATOM     10  N   UNL     1      36.187 -18.647 -21.190  0.00  0.00    -0.299 N 
ATOM     11  H   UNL     1      37.163 -18.560 -21.099  0.00  0.00    +0.153 HD
BRANCH  10  12
ATOM     12  C   UNL     1      35.595 -19.676 -20.448  0.00  0.00    +0.049 C 
ATOM     13  C   UNL     1      34.202 -19.814 -20.413  0.00  0.00    +0.016 C 
ATOM     14  C   UNL     1      36.390 -20.580 -19.731  0.00  0.00    +0.016 C 
ATOM     15  C   UNL     1      34.413 -21.735 -18.962  0.00  0.00    +0.122 C 
ATOM     16  C   UNL     1      33.614 -20.840 -19.673  0.00  0.00    +0.021 C 
ATOM     17  C   UNL     1      35.802 -21.605 -18.991  0.00  0.00    +0.021 C 
BRANCH  15  18
ATOM     18  S   UNL     1      33.675 -23.019 -18.036  0.00  0.00    +0.057 S 
ATOM     19  O   UNL     1      32.344 -22.589 -17.634  0.00  0.00    -0.153 OA
ATOM     20  O   UNL     1      33.843 -24.269 -18.763  0.00  0.00    -0.153 OA
BRANCH  18  21
ATOM     21  N   UNL     1      34.686 -23.047 -16.658  0.00  0.00    -0.203 NA
ATOM     22  H   UNL     1      34.466 -23.867 -16.093  0.00  0.00    +0.144 HD
ATOM     23  H   UNL     1      34.532 -22.203 -16.107  0.00  0.00    +0.144 HD
ENDBRANCH  18  21
ENDBRANCH  15  18
ENDBRANCH  10  12
ENDBRANCH   7  10
BRANCH   5  24
ATOM     24  O   UNL     1      34.914 -14.325 -22.607  0.00  0.00    -0.451 OA
BRANCH  24  25
ATOM     25  C   UNL     1      33.909 -13.559 -23.244  0.00  0.00    +0.208 C 
BRANCH  25  26
ATOM     26  C   UNL     1      32.826 -13.231 -22.217  0.00  0.00    +0.044 C 
ATOM     27  C   UNL     1      33.313 -13.549 -20.797  0.00  0.00    +0.004 C 
ATOM     28  C   UNL     1      32.398 -11.762 -22.332  0.00  0.00    +0.004 C 
ATOM     29  C   UNL     1      32.267 -13.180 -19.747  0.00  0.00    +0.000 C 
ATOM     30  C   UNL     1      31.353 -11.396 -21.279  0.00  0.00    +0.000 C 
ATOM     31  C   UNL     1      31.837 -11.722 -19.870  0.00  0.00    +0.000 C 
ENDBRANCH  25  26
ENDBRANCH  24  25
ENDBRANCH   5  24
TORSDOF 7
ENDMDL
MODEL 7
REMARK VINA RESULT:     -10.8      8.083     10.996
REMARK  Name = 23586145
REMARK  7 active torsions:
REMARK  status: ('A' for Active; 'I' for Inactive)
REMARK    1  A    between atoms: C_5  and  O_24
REMARK    2  A    between atoms: C_7  and  N_10
REMARK    3  A    between atoms: N_10  and  C_12
REMARK    4  A    between atoms: C_15  and  S_18
REMARK    5  A    between atoms: S_18  and  N_21
REMARK    6  A    between atoms: O_24  and  C_25
REMARK    7  A    between atoms: C_25  and  C_26
REMARK                            x       y       z     vdW  Elec       q    Type
REMARK                         _______ _______ _______ _____ _____    ______ ____
ROOT
ATOM      1  N   UNL     1      33.810 -14.627 -22.754  0.00  0.00    -0.299 NA
ATOM      2  N   UNL     1      34.854 -16.772 -23.063  0.00  0.00    -0.106 N 
ATOM      3  N   UNL     1      35.060 -17.658 -24.072  0.00  0.00    -0.139 NA
ATOM      4  N   UNL     1      33.915 -15.850 -24.849  0.00  0.00    -0.145 NA
ATOM      5  C   UNL     1      34.181 -14.734 -21.520  0.00  0.00    +0.291 C 
ATOM      6  C   UNL     1      34.925 -15.848 -20.892  0.00  0.00    +0.105 C 
ATOM      7  C   UNL     1      35.243 -16.861 -21.718  0.00  0.00    +0.142 C 
ATOM      8  C   UNL     1      34.149 -15.671 -23.565  0.00  0.00    +0.178 C 
ATOM      9  C   UNL     1      34.481 -17.056 -25.105  0.00  0.00    +0.230 C 
ENDROOT
BRANCH   7  10
ATOM     10  N   UNL     1      35.927 -17.977 -21.331  0.00  0.00    -0.299 N 
ATOM     11  H   UNL     1      36.886 -17.992 -21.556  0.00  0.00    +0.153 HD
BRANCH  10  12
ATOM     12  C   UNL     1      35.442 -19.104 -20.658  0.00  0.00    +0.049 C 
ATOM     13  C   UNL     1      36.317 -19.944 -19.959  0.00  0.00    +0.016 C 
ATOM     14  C   UNL     1      34.074 -19.405 -20.676  0.00  0.00    +0.016 C 
ATOM     15  C   UNL     1      34.468 -21.359 -19.311  0.00  0.00    +0.122 C 
ATOM     16  C   UNL     1      35.832 -21.067 -19.288  0.00  0.00    +0.021 C 
ATOM     17  C   UNL     1      33.589 -20.527 -20.005  0.00  0.00    +0.021 C 
BRANCH  15  18
ATOM     18  S   UNL     1      33.862 -22.765 -18.472  0.00  0.00    +0.057 S 
ATOM     19  O   UNL     1      32.534 -22.457 -17.960  0.00  0.00    -0.153 OA
ATOM     20  O   UNL     1      34.057 -23.931 -19.322  0.00  0.00    -0.153 OA
BRANCH  18  21
ATOM     21  N   UNL     1      34.952 -22.854 -17.159  0.00  0.00    -0.203 NA
ATOM     22  H   UNL     1      34.507 -22.477 -16.322  0.00  0.00    +0.144 HD
ATOM     23  H   UNL     1      35.788 -22.312 -17.374  0.00  0.00    +0.144 HD
ENDBRANCH  18  21
ENDBRANCH  15  18
ENDBRANCH  10  12
ENDBRANCH   7  10
BRANCH   5  24
ATOM     24  O   UNL     1      33.896 -13.767 -20.653  0.00  0.00    -0.451 OA
BRANCH  24  25
ATOM     25  C   UNL     1      32.685 -13.934 -19.940  0.00  0.00    +0.208 C 
BRANCH  25  26
ATOM     26  C   UNL     1      31.815 -12.699 -20.169  0.00  0.00    +0.044 C 
ATOM     27  C   UNL     1      32.202 -11.576 -19.196  0.00  0.00    +0.004 C 
ATOM     28  C   UNL     1      31.922 -12.222 -21.623  0.00  0.00    +0.004 C 
ATOM     29  C   UNL     1      31.380 -10.312 -19.439  0.00  0.00    +0.000 C 
ATOM     30  C   UNL     1      31.101 -10.956 -21.863  0.00  0.00    +0.000 C 
ATOM     31  C   UNL     1      31.482  -9.846 -20.888  0.00  0.00    +0.000 C 
ENDBRANCH  25  26
ENDBRANCH  24  25
ENDBRANCH   5  24
TORSDOF 7
ENDMDL
MODEL 8
REMARK VINA RESULT:     -10.7      4.026      7.078
REMARK  Name = 23586145
REMARK  7 active torsions:
REMARK  status: ('A' for Active; 'I' for Inactive)
REMARK    1  A    between atoms: C_5  and  O_24
REMARK    2  A    between atoms: C_7  and  N_10
REMARK    3  A    between atoms: N_10  and  C_12
REMARK    4  A    between atoms: C_15  and  S_18
REMARK    5  A    between atoms: S_18  and  N_21
REMARK    6  A    between atoms: O_24  and  C_25
REMARK    7  A    between atoms: C_25  and  C_26
REMARK                            x       y       z     vdW  Elec       q    Type
REMARK                         _______ _______ _______ _____ _____    ______ ____
ROOT
ATOM      1  N   UNL     1      34.019 -23.094 -13.770  0.00  0.00    -0.299 NA
ATOM      2  N   UNL     1      35.252 -23.096 -15.835  0.00  0.00    -0.106 N 
ATOM      3  N   UNL     1      36.550 -23.121 -16.236  0.00  0.00    -0.139 NA
ATOM      4  N   UNL     1      36.439 -23.149 -13.962  0.00  0.00    -0.145 NA
ATOM      5  C   UNL     1      32.963 -23.059 -14.516  0.00  0.00    +0.291 C 
ATOM      6  C   UNL     1      32.898 -23.038 -15.994  0.00  0.00    +0.105 C 
ATOM      7  C   UNL     1      34.089 -23.057 -16.619  0.00  0.00    +0.142 C 
ATOM      8  C   UNL     1      35.210 -23.113 -14.436  0.00  0.00    +0.178 C 
ATOM      9  C   UNL     1      37.206 -23.153 -15.081  0.00  0.00    +0.230 C 
ENDROOT
BRANCH   7  10
ATOM     10  N   UNL     1      34.241 -23.044 -17.975  0.00  0.00    -0.299 N 
ATOM     11  H   UNL     1      34.138 -23.912 -18.427  0.00  0.00    +0.153 HD
BRANCH  10  12
ATOM     12  C   UNL     1      34.527 -21.954 -18.807  0.00  0.00    +0.049 C 
ATOM     13  C   UNL     1      35.853 -21.574 -19.046  0.00  0.00    +0.016 C 
ATOM     14  C   UNL     1      33.489 -21.232 -19.409  0.00  0.00    +0.016 C 
ATOM     15  C   UNL     1      35.097 -19.774 -20.470  0.00  0.00    +0.122 C 
ATOM     16  C   UNL     1      36.137 -20.488 -19.874  0.00  0.00    +0.021 C 
ATOM     17  C   UNL     1      33.772 -20.147 -20.238  0.00  0.00    +0.021 C 
BRANCH  15  18
ATOM     18  S   UNL     1      35.453 -18.415 -21.507  0.00  0.00    +0.057 S 
ATOM     19  O   UNL     1      34.820 -18.645 -22.798  0.00  0.00    -0.153 OA
ATOM     20  O   UNL     1      35.175 -17.189 -20.774  0.00  0.00    -0.153 OA
BRANCH  18  21
ATOM     21  N   UNL     1      37.144 -18.577 -21.685  0.00  0.00    -0.203 NA
ATOM     22  H   UNL     1      37.580 -18.617 -20.764  0.00  0.00    +0.144 HD
ATOM     23  H   UNL     1      37.510 -17.776 -22.199  0.00  0.00    +0.144 HD
ENDBRANCH  18  21
ENDBRANCH  15  18
ENDBRANCH  10  12
ENDBRANCH   7  10
BRANCH   5  24
ATOM     24  O   UNL     1      31.756 -23.037 -13.959  0.00  0.00    -0.451 OA
BRANCH  24  25
ATOM     25  C   UNL     1      31.077 -24.279 -13.941  0.00  0.00    +0.208 C 
BRANCH  25  26
ATOM     26  C   UNL     1      29.675 -24.073 -14.513  0.00  0.00    +0.044 C 
ATOM     27  C   UNL     1      29.349 -22.577 -14.620  0.00  0.00    +0.004 C 
ATOM     28  C   UNL     1      29.540 -24.761 -15.877  0.00  0.00    +0.004 C 
ATOM     29  C   UNL     1      27.972 -22.343 -15.238  0.00  0.00    +0.000 C 
ATOM     30  C   UNL     1      28.162 -24.523 -16.494  0.00  0.00    +0.000 C 
ATOM     31  C   UNL     1      27.839 -23.036 -16.590  0.00  0.00    +0.000 C 
ENDBRANCH  25  26
ENDBRANCH  24  25
ENDBRANCH   5  24
TORSDOF 7
ENDMDL
MODEL 9
REMARK VINA RESULT:     -10.4      3.670      7.582
REMARK  Name = 23586145
REMARK  7 active torsions:
REMARK  status: ('A' for Active; 'I' for Inactive)
REMARK    1  A    between atoms: C_5  and  O_24
REMARK    2  A    between atoms: C_7  and  N_10
REMARK    3  A    between atoms: N_10  and  C_12
REMARK    4  A    between atoms: C_15  and  S_18
REMARK    5  A    between atoms: S_18  and  N_21
REMARK    6  A    between atoms: O_24  and  C_25
REMARK    7  A    between atoms: C_25  and  C_26
REMARK                            x       y       z     vdW  Elec       q    Type
REMARK                         _______ _______ _______ _____ _____    ______ ____
ROOT
ATOM      1  N   UNL     1      33.153 -21.746 -19.114  0.00  0.00    -0.299 NA
ATOM      2  N   UNL     1      35.459 -21.432 -18.504  0.00  0.00    -0.106 N 
ATOM      3  N   UNL     1      36.551 -20.783 -18.985  0.00  0.00    -0.139 NA
ATOM      4  N   UNL     1      34.771 -20.435 -20.363  0.00  0.00    -0.145 NA
ATOM      5  C   UNL     1      33.071 -22.469 -18.044  0.00  0.00    +0.291 C 
ATOM      6  C   UNL     1      34.144 -22.771 -17.072  0.00  0.00    +0.105 C 
ATOM      7  C   UNL     1      35.340 -22.221 -17.350  0.00  0.00    +0.142 C 
ATOM      8  C   UNL     1      34.380 -21.204 -19.367  0.00  0.00    +0.178 C 
ATOM      9  C   UNL     1      36.081 -20.209 -20.088  0.00  0.00    +0.230 C 
ENDROOT
BRANCH   7  10
ATOM     10  N   UNL     1      36.453 -22.380 -16.576  0.00  0.00    -0.299 N 
ATOM     11  H   UNL     1      37.282 -21.982 -16.929  0.00  0.00    +0.153 HD
BRANCH  10  12
ATOM     12  C   UNL     1      36.570 -23.039 -15.346  0.00  0.00    +0.049 C 
ATOM     13  C   UNL     1      35.524 -22.993 -14.416  0.00  0.00    +0.016 C 
ATOM     14  C   UNL     1      37.735 -23.750 -15.032  0.00  0.00    +0.016 C 
ATOM     15  C   UNL     1      36.805 -24.356 -12.886  0.00  0.00    +0.122 C 
ATOM     16  C   UNL     1      35.642 -23.650 -13.191  0.00  0.00    +0.021 C 
ATOM     17  C   UNL     1      37.852 -24.407 -13.807  0.00  0.00    +0.021 C 
BRANCH  15  18
ATOM     18  S   UNL     1      36.951 -25.177 -11.352  0.00  0.00    +0.057 S 
ATOM     19  O   UNL     1      37.154 -26.596 -11.608  0.00  0.00    -0.153 OA
ATOM     20  O   UNL     1      37.903 -24.448 -10.526  0.00  0.00    -0.153 OA
BRANCH  18  21
ATOM     21  N   UNL     1      35.383 -24.950 -10.711  0.00  0.00    -0.203 NA
ATOM     22  H   UNL     1      35.308 -25.439  -9.819  0.00  0.00    +0.144 HD
ATOM     23  H   UNL     1      34.693 -25.323 -11.363  0.00  0.00    +0.144 HD
ENDBRANCH  18  21
ENDBRANCH  15  18
ENDBRANCH  10  12
ENDBRANCH   7  10
BRANCH   5  24
ATOM     24  O   UNL     1      31.917 -23.040 -17.714  0.00  0.00    -0.451 OA
BRANCH  24  25
ATOM     25  C   UNL     1      31.372 -22.627 -16.475  0.00  0.00    +0.208 C 
BRANCH  25  26
ATOM     26  C   UNL     1      31.307 -23.839 -15.547  0.00  0.00    +0.044 C 
ATOM     27  C   UNL     1      31.981 -23.529 -14.204  0.00  0.00    +0.004 C 
ATOM     28  C   UNL     1      29.854 -24.285 -15.339  0.00  0.00    +0.004 C 
ATOM     29  C   UNL     1      31.883 -24.709 -13.238  0.00  0.00    +0.000 C 
ATOM     30  C   UNL     1      29.759 -25.463 -14.371  0.00  0.00    +0.000 C 
ATOM     31  C   UNL     1      30.438 -25.154 -13.041  0.00  0.00    +0.000 C 
ENDBRANCH  25  26
ENDBRANCH  24  25
ENDBRANCH   5  24
TORSDOF 7
ENDMDL
