MODEL 1
REMARK VINA RESULT:     -11.2      0.000      0.000
REMARK  Name = 5288017
REMARK  6 active torsions:
REMARK  status: ('A' for Active; 'I' for Inactive)
REMARK    1  A    between atoms: C_4  and  C_15
REMARK    2  A    between atoms: C_10  and  N_22
REMARK    3  A    between atoms: C_23  and  C_25
REMARK    4  A    between atoms: C_25  and  N_26
REMARK    5  A    between atoms: C_27  and  C_33
REMARK    6  A    between atoms: C_33  and  N_34
REMARK                            x       y       z     vdW  Elec       q    Type
REMARK                         _______ _______ _______ _____ _____    ______ ____
ROOT
ATOM      1  O   UNL     1      33.418 -23.532 -16.169  0.00  0.00    -0.286 OA
ATOM      2  N   UNL     1      37.290 -21.624 -17.298  0.00  0.00    -0.280 N 
ATOM      3  N   UNL     1      37.787 -21.973 -16.079  0.00  0.00    -0.173 NA
ATOM      4  C   UNL     1      35.981 -22.007 -17.518  0.00  0.00    +0.056 A 
ATOM      5  C   UNL     1      35.623 -22.638 -16.368  0.00  0.00    +0.071 A 
ATOM      6  C   UNL     1      36.749 -22.590 -15.533  0.00  0.00    +0.105 A 
ATOM      7  C   UNL     1      34.528 -23.317 -15.729  0.00  0.00    +0.199 C 
ATOM      8  C   UNL     1      35.096 -23.693 -14.387  0.00  0.00    +0.054 C 
ATOM      9  C   UNL     1      36.441 -23.241 -14.296  0.00  0.00    +0.024 C 
ATOM     10  C   UNL     1      34.505 -24.359 -13.351  0.00  0.00    +0.053 C 
ATOM     11  C   UNL     1      37.199 -23.455 -13.168  0.00  0.00    +0.002 C 
ATOM     12  C   UNL     1      35.249 -24.587 -12.203  0.00  0.00    +0.015 C 
ATOM     13  C   UNL     1      36.586 -24.139 -12.112  0.00  0.00    +0.001 C 
ATOM     14  H   UNL     1      37.820 -21.139 -17.969  0.00  0.00    +0.189 HD
ENDROOT
BRANCH   4  15
ATOM     15  C   UNL     1      35.246 -21.711 -18.816  0.00  0.00    +0.040 C 
ATOM     16  C   UNL     1      33.753 -21.433 -18.578  0.00  0.00    +0.006 C 
ATOM     17  C   UNL     1      35.907 -20.565 -19.600  0.00  0.00    +0.006 C 
ATOM     18  C   UNL     1      33.022 -21.145 -19.888  0.00  0.00    +0.000 C 
ATOM     19  C   UNL     1      35.166 -20.282 -20.906  0.00  0.00    +0.000 C 
ATOM     20  C   UNL     1      33.684 -20.010 -20.665  0.00  0.00    +0.000 C 
ENDBRANCH   4  15
BRANCH  10  22
ATOM     21  O   UNL     1      31.981 -23.178 -12.237  0.00  0.00    -0.277 OA
ATOM     22  N   UNL     1      33.168 -24.816 -13.427  0.00  0.00    -0.286 N 
ATOM     23  C   UNL     1      32.032 -24.217 -12.887  0.00  0.00    +0.205 C 
ATOM     24  H   UNL     1      33.023 -25.656 -13.921  0.00  0.00    +0.155 HD
BRANCH  23  25
ATOM     25  C   UNL     1      30.799 -25.044 -13.207  0.00  0.00    +0.010 C 
BRANCH  25  26
ATOM     26  N   UNL     1      30.150 -24.507 -14.403  0.00  0.00    +0.393 N 
ATOM     27  C   UNL     1      27.989 -23.186 -15.881  0.00  0.00    -0.026 C 
ATOM     28  C   UNL     1      29.299 -22.473 -15.527  0.00  0.00    -0.025 C 
ATOM     29  C   UNL     1      28.222 -24.699 -15.943  0.00  0.00    -0.025 C 
ATOM     30  C   UNL     1      29.930 -23.061 -14.263  0.00  0.00    -0.077 C 
ATOM     31  C   UNL     1      28.887 -25.212 -14.664  0.00  0.00    -0.077 C 
ATOM     32  H   UNL     1      30.764 -24.655 -15.203  0.00  0.00    -0.079 HD
BRANCH  27  33
ATOM     33  C   UNL     1      27.418 -22.664 -17.196  0.00  0.00    -0.086 C 
BRANCH  33  34
ATOM     34  N   UNL     1      26.366 -21.687 -16.954  0.00  0.00    +0.380 N 
ATOM     35  H   UNL     1      25.700 -21.708 -17.726  0.00  0.00    -0.089 HD
ATOM     36  H   UNL     1      26.776 -20.756 -16.884  0.00  0.00    -0.089 HD
ATOM     37  H   UNL     1      25.885 -21.915 -16.084  0.00  0.00    -0.089 HD
ENDBRANCH  33  34
ENDBRANCH  27  33
ENDBRANCH  25  26
ENDBRANCH  23  25
ENDBRANCH  10  22
TORSDOF 6
ENDMDL
MODEL 2
REMARK VINA RESULT:     -10.5     11.731     15.493
REMARK  Name = 5288017
REMARK  6 active torsions:
REMARK  status: ('A' for Active; 'I' for Inactive)
REMARK    1  A    between atoms: C_4  and  C_15
REMARK    2  A    between atoms: C_10  and  N_22
REMARK    3  A    between atoms: C_23  and  C_25
REMARK    4  A    between atoms: C_25  and  N_26
REMARK    5  A    between atoms: C_27  and  C_33
REMARK    6  A    between atoms: C_33  and  N_34
REMARK                            x       y       z     vdW  Elec       q    Type
REMARK                         _______ _______ _______ _____ _____    ______ ____
ROOT
ATOM      1  O   UNL     1      32.117  -9.607 -24.063  0.00  0.00    -0.286 OA
ATOM      2  N   UNL     1      31.500  -5.786 -21.843  0.00  0.00    -0.280 N 
ATOM      3  N   UNL     1      31.484  -6.495 -20.680  0.00  0.00    -0.173 NA
ATOM      4  C   UNL     1      31.680  -6.549 -22.980  0.00  0.00    +0.056 A 
ATOM      5  C   UNL     1      31.786  -7.822 -22.513  0.00  0.00    +0.071 A 
ATOM      6  C   UNL     1      31.660  -7.733 -21.118  0.00  0.00    +0.105 A 
ATOM      7  C   UNL     1      31.975  -9.183 -22.936  0.00  0.00    +0.199 C 
ATOM      8  C   UNL     1      31.955  -9.948 -21.639  0.00  0.00    +0.054 C 
ATOM      9  C   UNL     1      31.763  -9.045 -20.557  0.00  0.00    +0.024 C 
ATOM     10  C   UNL     1      32.088 -11.290 -21.422  0.00  0.00    +0.053 C 
ATOM     11  C   UNL     1      31.706  -9.483 -19.254  0.00  0.00    +0.002 C 
ATOM     12  C   UNL     1      32.034 -11.756 -20.117  0.00  0.00    +0.015 C 
ATOM     13  C   UNL     1      31.845 -10.860 -19.041  0.00  0.00    +0.001 C 
ATOM     14  H   UNL     1      31.392  -4.809 -21.872  0.00  0.00    +0.189 HD
ENDROOT
BRANCH   4  15
ATOM     15  C   UNL     1      31.727  -5.944 -24.376  0.00  0.00    +0.040 C 
ATOM     16  C   UNL     1      31.459  -4.430 -24.353  0.00  0.00    +0.006 C 
ATOM     17  C   UNL     1      33.049  -6.264 -25.094  0.00  0.00    +0.006 C 
ATOM     18  C   UNL     1      31.500  -3.834 -25.759  0.00  0.00    +0.000 C 
ATOM     19  C   UNL     1      33.082  -5.660 -26.497  0.00  0.00    +0.000 C 
ATOM     20  C   UNL     1      32.812  -4.159 -26.470  0.00  0.00    +0.000 C 
ENDBRANCH   4  15
BRANCH  10  22
ATOM     21  O   UNL     1      34.467 -11.725 -23.200  0.00  0.00    -0.277 OA
ATOM     22  N   UNL     1      32.281 -12.200 -22.488  0.00  0.00    -0.286 N 
ATOM     23  C   UNL     1      33.418 -12.356 -23.279  0.00  0.00    +0.205 C 
ATOM     24  H   UNL     1      31.524 -12.794 -22.695  0.00  0.00    +0.155 HD
BRANCH  23  25
ATOM     25  C   UNL     1      33.196 -13.451 -24.308  0.00  0.00    +0.010 C 
BRANCH  25  26
ATOM     26  N   UNL     1      33.554 -14.745 -23.726  0.00  0.00    +0.393 N 
ATOM     27  C   UNL     1      35.382 -16.938 -23.060  0.00  0.00    -0.026 C 
ATOM     28  C   UNL     1      34.914 -15.913 -22.022  0.00  0.00    -0.025 C 
ATOM     29  C   UNL     1      34.349 -17.042 -24.187  0.00  0.00    -0.025 C 
ATOM     30  C   UNL     1      34.568 -14.574 -22.676  0.00  0.00    -0.077 C 
ATOM     31  C   UNL     1      34.022 -15.666 -24.771  0.00  0.00    -0.077 C 
ATOM     32  H   UNL     1      32.722 -15.152 -23.298  0.00  0.00    -0.079 HD
BRANCH  27  33
ATOM     33  C   UNL     1      35.630 -18.299 -22.415  0.00  0.00    -0.086 C 
BRANCH  33  34
ATOM     34  N   UNL     1      35.634 -18.193 -20.963  0.00  0.00    +0.380 N 
ATOM     35  H   UNL     1      36.560 -18.428 -20.609  0.00  0.00    -0.089 HD
ATOM     36  H   UNL     1      34.947 -18.838 -20.573  0.00  0.00    -0.089 HD
ATOM     37  H   UNL     1      35.398 -17.238 -20.692  0.00  0.00    -0.089 HD
ENDBRANCH  33  34
ENDBRANCH  27  33
ENDBRANCH  25  26
ENDBRANCH  23  25
ENDBRANCH  10  22
TORSDOF 6
ENDMDL
MODEL 3
REMARK VINA RESULT:     -10.4      2.380      7.363
REMARK  Name = 5288017
REMARK  6 active torsions:
REMARK  status: ('A' for Active; 'I' for Inactive)
REMARK    1  A    between atoms: C_4  and  C_15
REMARK    2  A    between atoms: C_10  and  N_22
REMARK    3  A    between atoms: C_23  and  C_25
REMARK    4  A    between atoms: C_25  and  N_26
REMARK    5  A    between atoms: C_27  and  C_33
REMARK    6  A    between atoms: C_33  and  N_34
REMARK                            x       y       z     vdW  Elec       q    Type
REMARK                         _______ _______ _______ _____ _____    ______ ____
ROOT
ATOM      1  O   UNL     1      32.925 -22.930 -16.790  0.00  0.00    -0.286 OA
ATOM      2  N   UNL     1      31.764 -24.127 -12.652  0.00  0.00    -0.280 N 
ATOM      3  N   UNL     1      33.080 -24.092 -12.301  0.00  0.00    -0.173 NA
ATOM      4  C   UNL     1      31.511 -23.806 -13.971  0.00  0.00    +0.056 A 
ATOM      5  C   UNL     1      32.741 -23.551 -14.492  0.00  0.00    +0.071 A 
ATOM      6  C   UNL     1      33.652 -23.738 -13.442  0.00  0.00    +0.105 A 
ATOM      7  C   UNL     1      33.412 -23.168 -15.705  0.00  0.00    +0.199 C 
ATOM      8  C   UNL     1      34.861 -23.135 -15.297  0.00  0.00    +0.054 C 
ATOM      9  C   UNL     1      34.975 -23.484 -13.922  0.00  0.00    +0.024 C 
ATOM     10  C   UNL     1      35.965 -22.834 -16.042  0.00  0.00    +0.053 C 
ATOM     11  C   UNL     1      36.197 -23.530 -13.290  0.00  0.00    +0.002 C 
ATOM     12  C   UNL     1      37.207 -22.873 -15.428  0.00  0.00    +0.015 C 
ATOM     13  C   UNL     1      37.322 -23.219 -14.062  0.00  0.00    +0.001 C 
ATOM     14  H   UNL     1      31.050 -24.362 -12.017  0.00  0.00    +0.189 HD
ENDROOT
BRANCH   4  15
ATOM     15  C   UNL     1      30.107 -23.788 -14.557  0.00  0.00    +0.040 C 
ATOM     16  C   UNL     1      29.740 -22.406 -15.122  0.00  0.00    +0.006 C 
ATOM     17  C   UNL     1      29.914 -24.890 -15.614  0.00  0.00    +0.006 C 
ATOM     18  C   UNL     1      28.326 -22.396 -15.701  0.00  0.00    +0.000 C 
ATOM     19  C   UNL     1      28.499 -24.868 -16.189  0.00  0.00    +0.000 C 
ATOM     20  C   UNL     1      28.137 -23.494 -16.745  0.00  0.00    +0.000 C 
ENDBRANCH   4  15
BRANCH  10  22
ATOM     21  O   UNL     1      37.061 -20.467 -17.526  0.00  0.00    -0.277 OA
ATOM     22  N   UNL     1      35.866 -22.483 -17.410  0.00  0.00    -0.286 N 
ATOM     23  C   UNL     1      36.404 -21.365 -18.042  0.00  0.00    +0.205 C 
ATOM     24  H   UNL     1      35.360 -23.105 -17.982  0.00  0.00    +0.155 HD
BRANCH  23  25
ATOM     25  C   UNL     1      36.059 -21.381 -19.521  0.00  0.00    +0.010 C 
BRANCH  25  26
ATOM     26  N   UNL     1      35.870 -20.008 -19.991  0.00  0.00    +0.393 N 
ATOM     27  C   UNL     1      35.469 -17.933 -22.024  0.00  0.00    -0.026 C 
ATOM     28  C   UNL     1      34.335 -18.428 -21.119  0.00  0.00    -0.025 C 
ATOM     29  C   UNL     1      36.819 -18.159 -21.334  0.00  0.00    -0.025 C 
ATOM     30  C   UNL     1      34.572 -19.871 -20.668  0.00  0.00    -0.077 C 
ATOM     31  C   UNL     1      36.973 -19.611 -20.877  0.00  0.00    -0.077 C 
ATOM     32  H   UNL     1      35.872 -19.383 -19.186  0.00  0.00    -0.079 HD
BRANCH  27  33
ATOM     33  C   UNL     1      35.278 -16.464 -22.389  0.00  0.00    -0.086 C 
BRANCH  33  34
ATOM     34  N   UNL     1      35.340 -16.274 -23.830  0.00  0.00    +0.380 N 
ATOM     35  H   UNL     1      34.421 -16.003 -24.177  0.00  0.00    -0.089 HD
ATOM     36  H   UNL     1      35.630 -17.145 -24.276  0.00  0.00    -0.089 HD
ATOM     37  H   UNL     1      36.015 -15.540 -24.048  0.00  0.00    -0.089 HD
ENDBRANCH  33  34
ENDBRANCH  27  33
ENDBRANCH  25  26
ENDBRANCH  23  25
ENDBRANCH  10  22
TORSDOF 6
ENDMDL
MODEL 4
REMARK VINA RESULT:     -10.3     11.622     15.369
REMARK  Name = 5288017
REMARK  6 active torsions:
REMARK  status: ('A' for Active; 'I' for Inactive)
REMARK    1  A    between atoms: C_4  and  C_15
REMARK    2  A    between atoms: C_10  and  N_22
REMARK    3  A    between atoms: C_23  and  C_25
REMARK    4  A    between atoms: C_25  and  N_26
REMARK    5  A    between atoms: C_27  and  C_33
REMARK    6  A    between atoms: C_33  and  N_34
REMARK                            x       y       z     vdW  Elec       q    Type
REMARK                         _______ _______ _______ _____ _____    ______ ____
ROOT
ATOM      1  O   UNL     1      32.922  -9.353 -23.855  0.00  0.00    -0.286 OA
ATOM      2  N   UNL     1      32.694  -5.559 -21.519  0.00  0.00    -0.280 N 
ATOM      3  N   UNL     1      32.270  -6.278 -20.442  0.00  0.00    -0.173 NA
ATOM      4  C   UNL     1      32.945  -6.310 -22.650  0.00  0.00    +0.056 A 
ATOM      5  C   UNL     1      32.663  -7.585 -22.271  0.00  0.00    +0.071 A 
ATOM      6  C   UNL     1      32.260  -7.509 -20.930  0.00  0.00    +0.105 A 
ATOM      7  C   UNL     1      32.635  -8.940 -22.751  0.00  0.00    +0.199 C 
ATOM      8  C   UNL     1      32.165  -9.717 -21.549  0.00  0.00    +0.054 C 
ATOM      9  C   UNL     1      31.946  -8.825 -20.463  0.00  0.00    +0.024 C 
ATOM     10  C   UNL     1      31.949 -11.058 -21.414  0.00  0.00    +0.053 C 
ATOM     11  C   UNL     1      31.511  -9.275 -19.238  0.00  0.00    +0.002 C 
ATOM     12  C   UNL     1      31.510 -11.537 -20.189  0.00  0.00    +0.015 C 
ATOM     13  C   UNL     1      31.293 -10.652 -19.108  0.00  0.00    +0.001 C 
ATOM     14  H   UNL     1      32.813  -4.582 -21.493  0.00  0.00    +0.189 HD
ENDROOT
BRANCH   4  15
ATOM     15  C   UNL     1      33.427  -5.693 -23.955  0.00  0.00    +0.040 C 
ATOM     16  C   UNL     1      34.860  -6.132 -24.301  0.00  0.00    +0.006 C 
ATOM     17  C   UNL     1      32.461  -5.983 -25.116  0.00  0.00    +0.006 C 
ATOM     18  C   UNL     1      35.337  -5.501 -25.608  0.00  0.00    +0.000 C 
ATOM     19  C   UNL     1      32.950  -5.352 -26.419  0.00  0.00    +0.000 C 
ATOM     20  C   UNL     1      34.373  -5.787 -26.757  0.00  0.00    +0.000 C 
ENDBRANCH   4  15
BRANCH  10  22
ATOM     21  O   UNL     1      34.499 -11.954 -22.718  0.00  0.00    -0.277 OA
ATOM     22  N   UNL     1      32.163 -11.958 -22.486  0.00  0.00    -0.286 N 
ATOM     23  C   UNL     1      33.381 -12.337 -23.047  0.00  0.00    +0.205 C 
ATOM     24  H   UNL     1      31.358 -12.365 -22.879  0.00  0.00    +0.155 HD
BRANCH  23  25
ATOM     25  C   UNL     1      33.153 -13.326 -24.177  0.00  0.00    +0.010 C 
BRANCH  25  26
ATOM     26  N   UNL     1      33.495 -14.673 -23.720  0.00  0.00    +0.393 N 
ATOM     27  C   UNL     1      35.281 -16.964 -23.320  0.00  0.00    -0.026 C 
ATOM     28  C   UNL     1      34.891 -16.016 -22.181  0.00  0.00    -0.025 C 
ATOM     29  C   UNL     1      34.198 -16.946 -24.404  0.00  0.00    -0.025 C 
ATOM     30  C   UNL     1      34.558 -14.619 -22.707  0.00  0.00    -0.077 C 
ATOM     31  C   UNL     1      33.889 -15.517 -24.857  0.00  0.00    -0.077 C 
ATOM     32  H   UNL     1      32.671 -15.091 -23.289  0.00  0.00    -0.079 HD
BRANCH  27  33
ATOM     33  C   UNL     1      35.514 -18.380 -22.800  0.00  0.00    -0.086 C 
BRANCH  33  34
ATOM     34  N   UNL     1      34.576 -19.315 -23.403  0.00  0.00    +0.380 N 
ATOM     35  H   UNL     1      35.036 -20.213 -23.547  0.00  0.00    -0.089 HD
ATOM     36  H   UNL     1      34.259 -18.948 -24.301  0.00  0.00    -0.089 HD
ATOM     37  H   UNL     1      33.775 -19.440 -22.784  0.00  0.00    -0.089 HD
ENDBRANCH  33  34
ENDBRANCH  27  33
ENDBRANCH  25  26
ENDBRANCH  23  25
ENDBRANCH  10  22
TORSDOF 6
ENDMDL
MODEL 5
REMARK VINA RESULT:     -10.0      2.264      6.495
REMARK  Name = 5288017
REMARK  6 active torsions:
REMARK  status: ('A' for Active; 'I' for Inactive)
REMARK    1  A    between atoms: C_4  and  C_15
REMARK    2  A    between atoms: C_10  and  N_22
REMARK    3  A    between atoms: C_23  and  C_25
REMARK    4  A    between atoms: C_25  and  N_26
REMARK    5  A    between atoms: C_27  and  C_33
REMARK    6  A    between atoms: C_33  and  N_34
REMARK                            x       y       z     vdW  Elec       q    Type
REMARK                         _______ _______ _______ _____ _____    ______ ____
ROOT
ATOM      1  O   UNL     1      34.899 -23.913 -15.168  0.00  0.00    -0.286 OA
ATOM      2  N   UNL     1      32.101 -22.067 -18.111  0.00  0.00    -0.280 N 
ATOM      3  N   UNL     1      31.063 -22.393 -17.291  0.00  0.00    -0.173 NA
ATOM      4  C   UNL     1      33.345 -22.442 -17.645  0.00  0.00    +0.056 A 
ATOM      5  C   UNL     1      33.084 -23.046 -16.454  0.00  0.00    +0.071 A 
ATOM      6  C   UNL     1      31.692 -22.989 -16.288  0.00  0.00    +0.105 A 
ATOM      7  C   UNL     1      33.717 -23.700 -15.341  0.00  0.00    +0.199 C 
ATOM      8  C   UNL     1      32.558 -24.052 -14.448  0.00  0.00    +0.054 C 
ATOM      9  C   UNL     1      31.345 -23.610 -15.047  0.00  0.00    +0.024 C 
ATOM     10  C   UNL     1      32.555 -24.691 -13.241  0.00  0.00    +0.053 C 
ATOM     11  C   UNL     1      30.127 -23.805 -14.437  0.00  0.00    +0.002 C 
ATOM     12  C   UNL     1      31.340 -24.900 -12.607  0.00  0.00    +0.015 C 
ATOM     13  C   UNL     1      30.135 -24.460 -13.200  0.00  0.00    +0.001 C 
ATOM     14  H   UNL     1      31.974 -21.600 -18.968  0.00  0.00    +0.189 HD
ENDROOT
BRANCH   4  15
ATOM     15  C   UNL     1      34.628 -22.168 -18.415  0.00  0.00    +0.040 C 
ATOM     16  C   UNL     1      34.418 -21.123 -19.523  0.00  0.00    +0.006 C 
ATOM     17  C   UNL     1      35.781 -21.762 -17.480  0.00  0.00    +0.006 C 
ATOM     18  C   UNL     1      35.710 -20.861 -20.296  0.00  0.00    +0.000 C 
ATOM     19  C   UNL     1      37.066 -21.498 -18.262  0.00  0.00    +0.000 C 
ATOM     20  C   UNL     1      36.853 -20.464 -19.364  0.00  0.00    +0.000 C 
ENDBRANCH   4  15
BRANCH  10  22
ATOM     21  O   UNL     1      34.464 -23.251 -11.427  0.00  0.00    -0.277 OA
ATOM     22  N   UNL     1      33.753 -25.136 -12.633  0.00  0.00    -0.286 N 
ATOM     23  C   UNL     1      34.599 -24.415 -11.792  0.00  0.00    +0.205 C 
ATOM     24  H   UNL     1      34.019 -26.064 -12.824  0.00  0.00    +0.155 HD
BRANCH  23  25
ATOM     25  C   UNL     1      35.773 -25.277 -11.363  0.00  0.00    +0.010 C 
BRANCH  25  26
ATOM     26  N   UNL     1      36.807 -25.240 -12.397  0.00  0.00    +0.393 N 
ATOM     27  C   UNL     1      39.411 -25.909 -13.568  0.00  0.00    -0.026 C 
ATOM     28  C   UNL     1      38.106 -26.562 -14.036  0.00  0.00    -0.025 C 
ATOM     29  C   UNL     1      39.113 -24.536 -12.956  0.00  0.00    -0.025 C 
ATOM     30  C   UNL     1      37.063 -26.591 -12.916  0.00  0.00    -0.077 C 
ATOM     31  C   UNL     1      38.038 -24.632 -11.872  0.00  0.00    -0.077 C 
ATOM     32  H   UNL     1      36.477 -24.663 -13.169  0.00  0.00    -0.079 HD
BRANCH  27  33
ATOM     33  C   UNL     1      40.409 -25.794 -14.716  0.00  0.00    -0.086 C 
BRANCH  33  34
ATOM     34  N   UNL     1      40.121 -24.629 -15.541  0.00  0.00    +0.380 N 
ATOM     35  H   UNL     1      40.144 -23.790 -14.963  0.00  0.00    -0.089 HD
ATOM     36  H   UNL     1      39.195 -24.729 -15.959  0.00  0.00    -0.089 HD
ATOM     37  H   UNL     1      40.821 -24.553 -16.278  0.00  0.00    -0.089 HD
ENDBRANCH  33  34
ENDBRANCH  27  33
ENDBRANCH  25  26
ENDBRANCH  23  25
ENDBRANCH  10  22
TORSDOF 6
ENDMDL
MODEL 6
REMARK VINA RESULT:     -10.0     10.302     14.281
REMARK  Name = 5288017
REMARK  6 active torsions:
REMARK  status: ('A' for Active; 'I' for Inactive)
REMARK    1  A    between atoms: C_4  and  C_15
REMARK    2  A    between atoms: C_10  and  N_22
REMARK    3  A    between atoms: C_23  and  C_25
REMARK    4  A    between atoms: C_25  and  N_26
REMARK    5  A    between atoms: C_27  and  C_33
REMARK    6  A    between atoms: C_33  and  N_34
REMARK                            x       y       z     vdW  Elec       q    Type
REMARK                         _______ _______ _______ _____ _____    ______ ____
ROOT
ATOM      1  O   UNL     1      34.434 -11.052 -24.061  0.00  0.00    -0.286 OA
ATOM      2  N   UNL     1      32.029  -7.616 -22.541  0.00  0.00    -0.280 N 
ATOM      3  N   UNL     1      31.475  -8.447 -21.614  0.00  0.00    -0.173 NA
ATOM      4  C   UNL     1      32.950  -8.217 -23.377  0.00  0.00    +0.056 A 
ATOM      5  C   UNL     1      32.984  -9.510 -22.958  0.00  0.00    +0.071 A 
ATOM      6  C   UNL     1      32.075  -9.595 -21.892  0.00  0.00    +0.105 A 
ATOM      7  C   UNL     1      33.607 -10.779 -23.217  0.00  0.00    +0.199 C 
ATOM      8  C   UNL     1      32.983 -11.682 -22.185  0.00  0.00    +0.054 C 
ATOM      9  C   UNL     1      32.061 -10.938 -21.398  0.00  0.00    +0.024 C 
ATOM     10  C   UNL     1      33.194 -13.011 -21.955  0.00  0.00    +0.053 C 
ATOM     11  C   UNL     1      31.348 -11.523 -20.378  0.00  0.00    +0.002 C 
ATOM     12  C   UNL     1      32.488 -13.625 -20.932  0.00  0.00    +0.015 C 
ATOM     13  C   UNL     1      31.572 -12.886 -20.148  0.00  0.00    +0.001 C 
ATOM     14  H   UNL     1      31.793  -6.663 -22.609  0.00  0.00    +0.189 HD
ENDROOT
BRANCH   4  15
ATOM     15  C   UNL     1      33.679  -7.458 -24.476  0.00  0.00    +0.040 C 
ATOM     16  C   UNL     1      32.712  -6.623 -25.332  0.00  0.00    +0.006 C 
ATOM     17  C   UNL     1      34.816  -6.588 -23.914  0.00  0.00    +0.006 C 
ATOM     18  C   UNL     1      33.452  -5.872 -26.438  0.00  0.00    +0.000 C 
ATOM     19  C   UNL     1      35.546  -5.839 -25.027  0.00  0.00    +0.000 C 
ATOM     20  C   UNL     1      34.584  -5.014 -25.877  0.00  0.00    +0.000 C 
ENDBRANCH   4  15
BRANCH  10  22
ATOM     21  O   UNL     1      32.751 -14.680 -24.410  0.00  0.00    -0.277 OA
ATOM     22  N   UNL     1      34.109 -13.764 -22.729  0.00  0.00    -0.286 N 
ATOM     23  C   UNL     1      33.840 -14.521 -23.867  0.00  0.00    +0.205 C 
ATOM     24  H   UNL     1      35.047 -13.750 -22.429  0.00  0.00    +0.155 HD
BRANCH  23  25
ATOM     25  C   UNL     1      35.114 -15.165 -24.384  0.00  0.00    +0.010 C 
BRANCH  25  26
ATOM     26  N   UNL     1      35.406 -16.364 -23.597  0.00  0.00    +0.393 N 
ATOM     27  C   UNL     1      34.752 -18.561 -21.768  0.00  0.00    -0.026 C 
ATOM     28  C   UNL     1      34.915 -18.768 -23.278  0.00  0.00    -0.025 C 
ATOM     29  C   UNL     1      35.553 -17.332 -21.325  0.00  0.00    -0.025 C 
ATOM     30  C   UNL     1      34.584 -17.492 -24.055  0.00  0.00    -0.077 C 
ATOM     31  C   UNL     1      35.199 -16.104 -22.166  0.00  0.00    -0.077 C 
ATOM     32  H   UNL     1      36.386 -16.613 -23.733  0.00  0.00    -0.079 HD
BRANCH  27  33
ATOM     33  C   UNL     1      35.180 -19.804 -20.994  0.00  0.00    -0.086 C 
BRANCH  33  34
ATOM     34  N   UNL     1      36.404 -19.554 -20.246  0.00  0.00    +0.380 N 
ATOM     35  H   UNL     1      37.208 -19.670 -20.862  0.00  0.00    -0.089 HD
ATOM     36  H   UNL     1      36.470 -20.216 -19.472  0.00  0.00    -0.089 HD
ATOM     37  H   UNL     1      36.390 -18.603 -19.881  0.00  0.00    -0.089 HD
ENDBRANCH  33  34
ENDBRANCH  27  33
ENDBRANCH  25  26
ENDBRANCH  23  25
ENDBRANCH  10  22
TORSDOF 6
ENDMDL
MODEL 7
REMARK VINA RESULT:      -9.4     14.499     18.186
REMARK  Name = 5288017
REMARK  6 active torsions:
REMARK  status: ('A' for Active; 'I' for Inactive)
REMARK    1  A    between atoms: C_4  and  C_15
REMARK    2  A    between atoms: C_10  and  N_22
REMARK    3  A    between atoms: C_23  and  C_25
REMARK    4  A    between atoms: C_25  and  N_26
REMARK    5  A    between atoms: C_27  and  C_33
REMARK    6  A    between atoms: C_33  and  N_34
REMARK                            x       y       z     vdW  Elec       q    Type
REMARK                         _______ _______ _______ _____ _____    ______ ____
ROOT
ATOM      1  O   UNL     1      32.690  -7.191 -25.354  0.00  0.00    -0.286 OA
ATOM      2  N   UNL     1      33.595  -2.908 -26.217  0.00  0.00    -0.280 N 
ATOM      3  N   UNL     1      32.900  -2.563 -25.097  0.00  0.00    -0.173 NA
ATOM      4  C   UNL     1      33.647  -4.265 -26.467  0.00  0.00    +0.056 A 
ATOM      5  C   UNL     1      32.941  -4.818 -25.445  0.00  0.00    +0.071 A 
ATOM      6  C   UNL     1      32.512  -3.747 -24.647  0.00  0.00    +0.105 A 
ATOM      7  C   UNL     1      32.495  -6.078 -24.914  0.00  0.00    +0.199 C 
ATOM      8  C   UNL     1      31.730  -5.675 -23.681  0.00  0.00    +0.054 C 
ATOM      9  C   UNL     1      31.757  -4.260 -23.545  0.00  0.00    +0.024 C 
ATOM     10  C   UNL     1      31.077  -6.458 -22.771  0.00  0.00    +0.053 C 
ATOM     11  C   UNL     1      31.132  -3.624 -22.498  0.00  0.00    +0.002 C 
ATOM     12  C   UNL     1      30.439  -5.841 -21.706  0.00  0.00    +0.015 C 
ATOM     13  C   UNL     1      30.466  -4.434 -21.570  0.00  0.00    +0.001 C 
ATOM     14  H   UNL     1      34.027  -2.244 -26.800  0.00  0.00    +0.189 HD
ENDROOT
BRANCH   4  15
ATOM     15  C   UNL     1      34.376  -4.852 -27.667  0.00  0.00    +0.040 C 
ATOM     16  C   UNL     1      35.645  -5.613 -27.249  0.00  0.00    +0.006 C 
ATOM     17  C   UNL     1      33.453  -5.737 -28.521  0.00  0.00    +0.006 C 
ATOM     18  C   UNL     1      36.374  -6.190 -28.462  0.00  0.00    +0.000 C 
ATOM     19  C   UNL     1      34.192  -6.314 -29.727  0.00  0.00    +0.000 C 
ATOM     20  C   UNL     1      35.453  -7.064 -29.309  0.00  0.00    +0.000 C 
ENDBRANCH   4  15
BRANCH  10  22
ATOM     21  O   UNL     1      32.590  -8.574 -21.275  0.00  0.00    -0.277 OA
ATOM     22  N   UNL     1      31.043  -7.868 -22.892  0.00  0.00    -0.286 N 
ATOM     23  C   UNL     1      31.772  -8.802 -22.160  0.00  0.00    +0.205 C 
ATOM     24  H   UNL     1      30.430  -8.231 -23.572  0.00  0.00    +0.155 HD
BRANCH  23  25
ATOM     25  C   UNL     1      31.427 -10.210 -22.614  0.00  0.00    +0.010 C 
BRANCH  25  26
ATOM     26  N   UNL     1      32.295 -11.168 -21.929  0.00  0.00    +0.393 N 
ATOM     27  C   UNL     1      33.173 -13.848 -21.127  0.00  0.00    -0.026 C 
ATOM     28  C   UNL     1      33.896 -13.034 -22.206  0.00  0.00    -0.025 C 
ATOM     29  C   UNL     1      32.438 -12.903 -20.170  0.00  0.00    -0.025 C 
ATOM     30  C   UNL     1      32.943 -12.060 -22.901  0.00  0.00    -0.077 C 
ATOM     31  C   UNL     1      31.532 -11.934 -20.934  0.00  0.00    -0.077 C 
ATOM     32  H   UNL     1      33.026 -10.654 -21.438  0.00  0.00    -0.079 HD
BRANCH  27  33
ATOM     33  C   UNL     1      34.149 -14.745 -20.370  0.00  0.00    -0.086 C 
BRANCH  33  34
ATOM     34  N   UNL     1      34.859 -15.628 -21.284  0.00  0.00    +0.380 N 
ATOM     35  H   UNL     1      35.859 -15.578 -21.096  0.00  0.00    -0.089 HD
ATOM     36  H   UNL     1      34.678 -15.339 -22.245  0.00  0.00    -0.089 HD
ATOM     37  H   UNL     1      34.536 -16.586 -21.150  0.00  0.00    -0.089 HD
ENDBRANCH  33  34
ENDBRANCH  27  33
ENDBRANCH  25  26
ENDBRANCH  23  25
ENDBRANCH  10  22
TORSDOF 6
ENDMDL
MODEL 8
REMARK VINA RESULT:      -9.2      8.659     12.731
REMARK  Name = 5288017
REMARK  6 active torsions:
REMARK  status: ('A' for Active; 'I' for Inactive)
REMARK    1  A    between atoms: C_4  and  C_15
REMARK    2  A    between atoms: C_10  and  N_22
REMARK    3  A    between atoms: C_23  and  C_25
REMARK    4  A    between atoms: C_25  and  N_26
REMARK    5  A    between atoms: C_27  and  C_33
REMARK    6  A    between atoms: C_33  and  N_34
REMARK                            x       y       z     vdW  Elec       q    Type
REMARK                         _______ _______ _______ _____ _____    ______ ____
ROOT
ATOM      1  O   UNL     1      34.330 -15.288 -20.724  0.00  0.00    -0.286 OA
ATOM      2  N   UNL     1      35.131 -18.684 -23.505  0.00  0.00    -0.280 N 
ATOM      3  N   UNL     1      34.765 -17.884 -24.545  0.00  0.00    -0.173 NA
ATOM      4  C   UNL     1      35.067 -18.081 -22.264  0.00  0.00    +0.056 A 
ATOM      5  C   UNL     1      34.633 -16.820 -22.530  0.00  0.00    +0.071 A 
ATOM      6  C   UNL     1      34.466 -16.754 -23.922  0.00  0.00    +0.105 A 
ATOM      7  C   UNL     1      34.297 -15.571 -21.903  0.00  0.00    +0.199 C 
ATOM      8  C   UNL     1      33.896 -14.703 -23.067  0.00  0.00    +0.054 C 
ATOM      9  C   UNL     1      34.008 -15.446 -24.275  0.00  0.00    +0.024 C 
ATOM     10  C   UNL     1      33.476 -13.403 -23.075  0.00  0.00    +0.053 C 
ATOM     11  C   UNL     1      33.702 -14.888 -25.495  0.00  0.00    +0.002 C 
ATOM     12  C   UNL     1      33.161 -12.818 -24.292  0.00  0.00    +0.015 C 
ATOM     13  C   UNL     1      33.273 -13.555 -25.493  0.00  0.00    +0.001 C 
ATOM     14  H   UNL     1      35.418 -19.617 -23.627  0.00  0.00    +0.189 HD
ENDROOT
BRANCH   4  15
ATOM     15  C   UNL     1      35.435 -18.807 -20.978  0.00  0.00    +0.040 C 
ATOM     16  C   UNL     1      34.606 -20.088 -20.787  0.00  0.00    +0.006 C 
ATOM     17  C   UNL     1      36.942 -19.102 -20.900  0.00  0.00    +0.006 C 
ATOM     18  C   UNL     1      34.977 -20.804 -19.489  0.00  0.00    +0.000 C 
ATOM     19  C   UNL     1      37.302 -19.823 -19.601  0.00  0.00    +0.000 C 
ATOM     20  C   UNL     1      36.475 -21.091 -19.413  0.00  0.00    +0.000 C 
ENDBRANCH   4  15
BRANCH  10  22
ATOM     21  O   UNL     1      31.151 -13.067 -21.207  0.00  0.00    -0.277 OA
ATOM     22  N   UNL     1      33.361 -12.651 -21.881  0.00  0.00    -0.286 N 
ATOM     23  C   UNL     1      32.247 -12.538 -21.052  0.00  0.00    +0.205 C 
ATOM     24  H   UNL     1      34.162 -12.151 -21.604  0.00  0.00    +0.155 HD
BRANCH  23  25
ATOM     25  C   UNL     1      32.559 -11.630 -19.875  0.00  0.00    +0.010 C 
BRANCH  25  26
ATOM     26  N   UNL     1      31.978 -10.309 -20.113  0.00  0.00    +0.393 N 
ATOM     27  C   UNL     1      32.070  -7.441 -20.718  0.00  0.00    -0.026 C 
ATOM     28  C   UNL     1      31.648  -8.487 -21.755  0.00  0.00    -0.025 C 
ATOM     29  C   UNL     1      31.808  -7.975 -19.306  0.00  0.00    -0.025 C 
ATOM     30  C   UNL     1      32.293  -9.845 -21.472  0.00  0.00    -0.077 C 
ATOM     31  C   UNL     1      32.449  -9.350 -19.104  0.00  0.00    -0.077 C 
ATOM     32  H   UNL     1      30.964 -10.378 -20.032  0.00  0.00    -0.079 HD
BRANCH  27  33
ATOM     33  C   UNL     1      31.346  -6.117 -20.947  0.00  0.00    -0.086 C 
BRANCH  33  34
ATOM     34  N   UNL     1      32.276  -4.999 -20.891  0.00  0.00    +0.380 N 
ATOM     35  H   UNL     1      32.715  -4.876 -21.802  0.00  0.00    -0.089 HD
ATOM     36  H   UNL     1      32.994  -5.190 -20.191  0.00  0.00    -0.089 HD
ATOM     37  H   UNL     1      31.772  -4.150 -20.638  0.00  0.00    -0.089 HD
ENDBRANCH  33  34
ENDBRANCH  27  33
ENDBRANCH  25  26
ENDBRANCH  23  25
ENDBRANCH  10  22
TORSDOF 6
ENDMDL
MODEL 9
REMARK VINA RESULT:      -9.1      7.718     11.842
REMARK  Name = 5288017
REMARK  6 active torsions:
REMARK  status: ('A' for Active; 'I' for Inactive)
REMARK    1  A    between atoms: C_4  and  C_15
REMARK    2  A    between atoms: C_10  and  N_22
REMARK    3  A    between atoms: C_23  and  C_25
REMARK    4  A    between atoms: C_25  and  N_26
REMARK    5  A    between atoms: C_27  and  C_33
REMARK    6  A    between atoms: C_33  and  N_34
REMARK                            x       y       z     vdW  Elec       q    Type
REMARK                         _______ _______ _______ _____ _____    ______ ____
ROOT
ATOM      1  O   UNL     1      34.089 -13.861 -20.774  0.00  0.00    -0.286 OA
ATOM      2  N   UNL     1      32.167 -10.539 -23.048  0.00  0.00    -0.280 N 
ATOM      3  N   UNL     1      32.278 -11.285 -24.182  0.00  0.00    -0.173 NA
ATOM      4  C   UNL     1      32.659 -11.144 -21.909  0.00  0.00    +0.056 A 
ATOM      5  C   UNL     1      33.112 -12.351 -22.344  0.00  0.00    +0.071 A 
ATOM      6  C   UNL     1      32.857 -12.384 -23.723  0.00  0.00    +0.105 A 
ATOM      7  C   UNL     1      33.739 -13.564 -21.897  0.00  0.00    +0.199 C 
ATOM      8  C   UNL     1      33.853 -14.374 -23.162  0.00  0.00    +0.054 C 
ATOM      9  C   UNL     1      33.311 -13.635 -24.250  0.00  0.00    +0.024 C 
ATOM     10  C   UNL     1      34.373 -15.623 -23.348  0.00  0.00    +0.053 C 
ATOM     11  C   UNL     1      33.289 -14.145 -25.527  0.00  0.00    +0.002 C 
ATOM     12  C   UNL     1      34.362 -16.159 -24.627  0.00  0.00    +0.015 C 
ATOM     13  C   UNL     1      33.823 -15.426 -25.709  0.00  0.00    +0.001 C 
ATOM     14  H   UNL     1      31.767  -9.639 -23.041  0.00  0.00    +0.189 HD
ENDROOT
BRANCH   4  15
ATOM     15  C   UNL     1      32.626 -10.474 -20.543  0.00  0.00    +0.040 C 
ATOM     16  C   UNL     1      32.161  -9.011 -20.634  0.00  0.00    +0.006 C 
ATOM     17  C   UNL     1      31.775 -11.267 -19.537  0.00  0.00    +0.006 C 
ATOM     18  C   UNL     1      32.141  -8.345 -19.259  0.00  0.00    +0.000 C 
ATOM     19  C   UNL     1      31.756 -10.590 -18.167  0.00  0.00    +0.000 C 
ATOM     20  C   UNL     1      31.299  -9.137 -18.262  0.00  0.00    +0.000 C 
ENDBRANCH   4  15
BRANCH  10  22
ATOM     21  O   UNL     1      35.312 -18.471 -23.244  0.00  0.00    -0.277 OA
ATOM     22  N   UNL     1      34.915 -16.371 -22.275  0.00  0.00    -0.286 N 
ATOM     23  C   UNL     1      35.337 -17.698 -22.292  0.00  0.00    +0.205 C 
ATOM     24  H   UNL     1      35.005 -15.897 -21.417  0.00  0.00    +0.155 HD
BRANCH  23  25
ATOM     25  C   UNL     1      35.853 -18.103 -20.922  0.00  0.00    +0.010 C 
BRANCH  25  26
ATOM     26  N   UNL     1      35.468 -19.487 -20.647  0.00  0.00    +0.393 N 
ATOM     27  C   UNL     1      34.539 -21.695 -18.955  0.00  0.00    -0.026 C 
ATOM     28  C   UNL     1      33.629 -21.001 -19.975  0.00  0.00    -0.025 C 
ATOM     29  C   UNL     1      36.004 -21.544 -19.379  0.00  0.00    -0.025 C 
ATOM     30  C   UNL     1      34.064 -19.554 -20.217  0.00  0.00    -0.077 C 
ATOM     31  C   UNL     1      36.359 -20.078 -19.639  0.00  0.00    -0.077 C 
ATOM     32  H   UNL     1      35.560 -20.029 -21.505  0.00  0.00    -0.079 HD
BRANCH  27  33
ATOM     33  C   UNL     1      34.162 -23.165 -18.794  0.00  0.00    -0.086 C 
BRANCH  33  34
ATOM     34  N   UNL     1      33.243 -23.347 -17.680  0.00  0.00    +0.380 N 
ATOM     35  H   UNL     1      33.284 -24.314 -17.362  0.00  0.00    -0.089 HD
ATOM     36  H   UNL     1      32.294 -23.128 -17.983  0.00  0.00    -0.089 HD
ATOM     37  H   UNL     1      33.509 -22.726 -16.916  0.00  0.00    -0.089 HD
ENDBRANCH  33  34
ENDBRANCH  27  33
ENDBRANCH  25  26
ENDBRANCH  23  25
ENDBRANCH  10  22
TORSDOF 6
ENDMDL
