MODEL 1
REMARK VINA RESULT:     -10.1      0.000      0.000
REMARK  Name = 31553
REMARK  9 active torsions:
REMARK  status: ('A' for Active; 'I' for Inactive)
REMARK    1  A    between atoms: C_3  and  C_28
REMARK    2  A    between atoms: C_4  and  C_38
REMARK    3  A    between atoms: C_5  and  C_13
REMARK    4  A    between atoms: C_14  and  O_22
REMARK    5  A    between atoms: C_18  and  O_24
REMARK    6  A    between atoms: C_20  and  O_26
REMARK    7  A    between atoms: C_31  and  O_34
REMARK    8  A    between atoms: C_33  and  O_36
REMARK    9  A    between atoms: C_38  and  O_39
REMARK                            x       y       z     vdW  Elec       q    Type
REMARK                         _______ _______ _______ _____ _____    ______ ____
ROOT
ATOM      1  O   UNL     1      34.631 -16.282 -21.934  0.00  0.00    -0.468 OA
ATOM      2  O   UNL     1      34.141 -16.783 -24.725  0.00  0.00    -0.469 OA
ATOM      3  C   UNL     1      34.427 -17.607 -22.457  0.00  0.00    +0.230 C 
ATOM      4  C   UNL     1      34.921 -17.677 -23.911  0.00  0.00    +0.239 C 
ATOM      5  C   UNL     1      33.689 -12.974 -23.128  0.00  0.00    +0.023 C 
ATOM      6  C   UNL     1      34.241 -15.302 -22.807  0.00  0.00    +0.172 C 
ATOM      7  C   UNL     1      33.994 -15.548 -24.157  0.00  0.00    +0.172 C 
ATOM      8  C   UNL     1      34.104 -14.012 -22.294  0.00  0.00    +0.039 C 
ATOM      9  C   UNL     1      33.415 -13.224 -24.472  0.00  0.00    +0.003 C 
ATOM     10  C   UNL     1      33.566 -14.512 -24.988  0.00  0.00    +0.040 C 
ENDROOT
BRANCH   5  13
ATOM     11  O   UNL     1      34.160 -10.673 -23.498  0.00  0.00    -0.471 OA
ATOM     12  O   UNL     1      31.122  -9.417 -21.041  0.00  0.00    -0.288 OA
ATOM     13  C   UNL     1      33.531 -11.572 -22.571  0.00  0.00    +0.222 C 
ATOM     14  C   UNL     1      32.061 -11.209 -22.357  0.00  0.00    +0.217 C 
ATOM     15  C   UNL     1      31.982  -9.793 -21.829  0.00  0.00    +0.209 C 
ATOM     16  C   UNL     1      32.996  -8.858 -22.355  0.00  0.00    +0.105 C 
ATOM     17  C   UNL     1      34.016  -9.350 -23.171  0.00  0.00    +0.148 C 
ATOM     18  C   UNL     1      32.920  -7.495 -22.062  0.00  0.00    +0.142 C 
ATOM     19  C   UNL     1      34.944  -8.467 -23.726  0.00  0.00    +0.074 C 
ATOM     20  C   UNL     1      34.869  -7.105 -23.440  0.00  0.00    +0.140 C 
ATOM     21  C   UNL     1      33.862  -6.619 -22.605  0.00  0.00    +0.073 C 
BRANCH  14  22
ATOM     22  O   UNL     1      31.480 -12.073 -21.396  0.00  0.00    -0.374 OA
ATOM     23  H   UNL     1      32.074 -12.156 -20.634  0.00  0.00    +0.211 HD
ENDBRANCH  14  22
BRANCH  18  24
ATOM     24  O   UNL     1      31.947  -6.964 -21.269  0.00  0.00    -0.505 OA
ATOM     25  H   UNL     1      31.145  -6.665 -21.649  0.00  0.00    +0.292 HD
ENDBRANCH  18  24
BRANCH  20  26
ATOM     26  O   UNL     1      35.780  -6.246 -23.974  0.00  0.00    -0.505 OA
ATOM     27  H   UNL     1      35.494  -5.449 -24.374  0.00  0.00    +0.292 HD
ENDBRANCH  20  26
ENDBRANCH   5  13
BRANCH   3  28
ATOM     28  C   UNL     1      35.140 -18.561 -21.524  0.00  0.00    +0.024 C 
ATOM     29  C   UNL     1      34.436 -19.605 -20.925  0.00  0.00    +0.039 C 
ATOM     30  C   UNL     1      36.500 -18.395 -21.263  0.00  0.00    +0.003 C 
ATOM     31  C   UNL     1      35.093 -20.485 -20.064  0.00  0.00    +0.172 C 
ATOM     32  C   UNL     1      37.156 -19.274 -20.403  0.00  0.00    +0.040 C 
ATOM     33  C   UNL     1      36.453 -20.319 -19.803  0.00  0.00    +0.168 C 
BRANCH  31  34
ATOM     34  O   UNL     1      34.395 -21.502 -19.486  0.00  0.00    -0.468 OA
ATOM     35  C   UNL     1      33.026 -21.252 -19.173  0.00  0.00    +0.253 C 
ENDBRANCH  31  34
BRANCH  33  36
ATOM     36  O   UNL     1      37.105 -21.172 -18.965  0.00  0.00    -0.503 OA
ATOM     37  H   UNL     1      36.621 -21.687 -18.350  0.00  0.00    +0.292 HD
ENDBRANCH  33  36
ENDBRANCH   3  28
BRANCH   4  38
ATOM     38  C   UNL     1      34.765 -19.064 -24.527  0.00  0.00    +0.185 C 
BRANCH  38  39
ATOM     39  O   UNL     1      33.386 -19.318 -24.724  0.00  0.00    -0.378 OA
ATOM     40  H   UNL     1      33.147 -20.152 -24.290  0.00  0.00    +0.211 HD
ENDBRANCH  38  39
ENDBRANCH   4  38
TORSDOF 9
ENDMDL
MODEL 2
REMARK VINA RESULT:     -10.1      2.349     11.188
REMARK  Name = 31553
REMARK  9 active torsions:
REMARK  status: ('A' for Active; 'I' for Inactive)
REMARK    1  A    between atoms: C_3  and  C_28
REMARK    2  A    between atoms: C_4  and  C_38
REMARK    3  A    between atoms: C_5  and  C_13
REMARK    4  A    between atoms: C_14  and  O_22
REMARK    5  A    between atoms: C_18  and  O_24
REMARK    6  A    between atoms: C_20  and  O_26
REMARK    7  A    between atoms: C_31  and  O_34
REMARK    8  A    between atoms: C_33  and  O_36
REMARK    9  A    between atoms: C_38  and  O_39
REMARK                            x       y       z     vdW  Elec       q    Type
REMARK                         _______ _______ _______ _____ _____    ______ ____
ROOT
ATOM      1  O   UNL     1      33.249  -8.807 -23.963  0.00  0.00    -0.468 OA
ATOM      2  O   UNL     1      31.776  -8.623 -21.497  0.00  0.00    -0.469 OA
ATOM      3  C   UNL     1      32.407  -7.684 -23.647  0.00  0.00    +0.230 C 
ATOM      4  C   UNL     1      32.367  -7.471 -22.125  0.00  0.00    +0.239 C 
ATOM      5  C   UNL     1      33.318 -12.256 -22.797  0.00  0.00    +0.023 C 
ATOM      6  C   UNL     1      33.013  -9.887 -23.156  0.00  0.00    +0.172 C 
ATOM      7  C   UNL     1      32.291  -9.799 -21.966  0.00  0.00    +0.172 C 
ATOM      8  C   UNL     1      33.541 -11.113 -23.565  0.00  0.00    +0.039 C 
ATOM      9  C   UNL     1      32.572 -12.173 -21.621  0.00  0.00    +0.003 C 
ATOM     10  C   UNL     1      32.057 -10.945 -21.205  0.00  0.00    +0.040 C 
ENDROOT
BRANCH   5  13
ATOM     11  O   UNL     1      34.135 -14.363 -22.059  0.00  0.00    -0.471 OA
ATOM     12  O   UNL     1      33.392 -16.175 -25.666  0.00  0.00    -0.288 OA
ATOM     13  C   UNL     1      33.883 -13.591 -23.244  0.00  0.00    +0.222 C 
ATOM     14  C   UNL     1      32.931 -14.321 -24.191  0.00  0.00    +0.217 C 
ATOM     15  C   UNL     1      33.547 -15.650 -24.569  0.00  0.00    +0.209 C 
ATOM     16  C   UNL     1      34.331 -16.315 -23.510  0.00  0.00    +0.105 C 
ATOM     17  C   UNL     1      34.565 -15.639 -22.311  0.00  0.00    +0.148 C 
ATOM     18  C   UNL     1      34.808 -17.615 -23.693  0.00  0.00    +0.142 C 
ATOM     19  C   UNL     1      35.250 -16.280 -21.277  0.00  0.00    +0.074 C 
ATOM     20  C   UNL     1      35.725 -17.580 -21.455  0.00  0.00    +0.140 C 
ATOM     21  C   UNL     1      35.509 -18.245 -22.663  0.00  0.00    +0.073 C 
BRANCH  14  22
ATOM     22  O   UNL     1      32.745 -13.567 -25.375  0.00  0.00    -0.374 OA
ATOM     23  H   UNL     1      33.079 -14.069 -26.134  0.00  0.00    +0.211 HD
ENDBRANCH  14  22
BRANCH  18  24
ATOM     24  O   UNL     1      34.609 -18.318 -24.843  0.00  0.00    -0.505 OA
ATOM     25  H   UNL     1      35.222 -18.246 -25.548  0.00  0.00    +0.292 HD
ENDBRANCH  18  24
BRANCH  20  26
ATOM     26  O   UNL     1      36.401 -18.201 -20.451  0.00  0.00    -0.505 OA
ATOM     27  H   UNL     1      37.179 -17.813 -20.101  0.00  0.00    +0.292 HD
ENDBRANCH  20  26
ENDBRANCH   5  13
BRANCH   3  28
ATOM     28  C   UNL     1      32.953  -6.499 -24.415  0.00  0.00    +0.024 C 
ATOM     29  C   UNL     1      32.078  -5.621 -25.053  0.00  0.00    +0.039 C 
ATOM     30  C   UNL     1      34.329  -6.287 -24.484  0.00  0.00    +0.003 C 
ATOM     31  C   UNL     1      32.581  -4.529 -25.761  0.00  0.00    +0.172 C 
ATOM     32  C   UNL     1      34.832  -5.195 -25.191  0.00  0.00    +0.040 C 
ATOM     33  C   UNL     1      33.957  -4.316 -25.830  0.00  0.00    +0.168 C 
BRANCH  31  34
ATOM     34  O   UNL     1      31.716  -3.676 -26.380  0.00  0.00    -0.468 OA
ATOM     35  C   UNL     1      31.022  -2.744 -25.552  0.00  0.00    +0.253 C 
ENDBRANCH  31  34
BRANCH  33  36
ATOM     36  O   UNL     1      34.460  -3.253 -26.517  0.00  0.00    -0.503 OA
ATOM     37  H   UNL     1      33.930  -2.492 -26.656  0.00  0.00    +0.292 HD
ENDBRANCH  33  36
ENDBRANCH   3  28
BRANCH   4  38
ATOM     38  C   UNL     1      31.516  -6.274 -21.713  0.00  0.00    +0.185 C 
BRANCH  38  39
ATOM     39  O   UNL     1      32.354  -5.320 -21.085  0.00  0.00    -0.378 OA
ATOM     40  H   UNL     1      33.129  -5.769 -20.712  0.00  0.00    +0.211 HD
ENDBRANCH  38  39
ENDBRANCH   4  38
TORSDOF 9
ENDMDL
MODEL 3
REMARK VINA RESULT:     -10.0      2.270     11.175
REMARK  Name = 31553
REMARK  9 active torsions:
REMARK  status: ('A' for Active; 'I' for Inactive)
REMARK    1  A    between atoms: C_3  and  C_28
REMARK    2  A    between atoms: C_4  and  C_38
REMARK    3  A    between atoms: C_5  and  C_13
REMARK    4  A    between atoms: C_14  and  O_22
REMARK    5  A    between atoms: C_18  and  O_24
REMARK    6  A    between atoms: C_20  and  O_26
REMARK    7  A    between atoms: C_31  and  O_34
REMARK    8  A    between atoms: C_33  and  O_36
REMARK    9  A    between atoms: C_38  and  O_39
REMARK                            x       y       z     vdW  Elec       q    Type
REMARK                         _______ _______ _______ _____ _____    ______ ____
ROOT
ATOM      1  O   UNL     1      32.795  -8.466 -23.926  0.00  0.00    -0.468 OA
ATOM      2  O   UNL     1      31.500  -8.332 -21.359  0.00  0.00    -0.469 OA
ATOM      3  C   UNL     1      31.916  -7.387 -23.559  0.00  0.00    +0.230 C 
ATOM      4  C   UNL     1      31.976  -7.157 -22.040  0.00  0.00    +0.239 C 
ATOM      5  C   UNL     1      33.146 -11.889 -22.738  0.00  0.00    +0.023 C 
ATOM      6  C   UNL     1      32.682  -9.547 -23.094  0.00  0.00    +0.172 C 
ATOM      7  C   UNL     1      32.045  -9.483 -21.855  0.00  0.00    +0.172 C 
ATOM      8  C   UNL     1      33.247 -10.746 -23.530  0.00  0.00    +0.039 C 
ATOM      9  C   UNL     1      32.486 -11.833 -21.511  0.00  0.00    +0.003 C 
ATOM     10  C   UNL     1      31.933 -10.631 -21.068  0.00  0.00    +0.040 C 
ENDROOT
BRANCH   5  13
ATOM     11  O   UNL     1      33.943 -14.023 -22.054  0.00  0.00    -0.471 OA
ATOM     12  O   UNL     1      33.435 -15.665 -25.781  0.00  0.00    -0.288 OA
ATOM     13  C   UNL     1      33.752 -13.196 -23.213  0.00  0.00    +0.222 C 
ATOM     14  C   UNL     1      32.866 -13.888 -24.249  0.00  0.00    +0.217 C 
ATOM     15  C   UNL     1      33.518 -15.192 -24.653  0.00  0.00    +0.209 C 
ATOM     16  C   UNL     1      34.246 -15.901 -23.582  0.00  0.00    +0.105 C 
ATOM     17  C   UNL     1      34.402 -15.281 -22.341  0.00  0.00    +0.148 C 
ATOM     18  C   UNL     1      34.749 -17.186 -23.799  0.00  0.00    +0.142 C 
ATOM     19  C   UNL     1      35.033 -15.965 -21.300  0.00  0.00    +0.074 C 
ATOM     20  C   UNL     1      35.532 -17.250 -21.511  0.00  0.00    +0.140 C 
ATOM     21  C   UNL     1      35.395 -17.858 -22.760  0.00  0.00    +0.073 C 
BRANCH  14  22
ATOM     22  O   UNL     1      32.741 -13.079 -25.405  0.00  0.00    -0.374 OA
ATOM     23  H   UNL     1      31.901 -12.596 -25.373  0.00  0.00    +0.211 HD
ENDBRANCH  14  22
BRANCH  18  24
ATOM     24  O   UNL     1      34.626 -17.834 -24.991  0.00  0.00    -0.505 OA
ATOM     25  H   UNL     1      34.290 -17.380 -25.738  0.00  0.00    +0.292 HD
ENDBRANCH  18  24
BRANCH  20  26
ATOM     26  O   UNL     1      36.155 -17.913 -20.499  0.00  0.00    -0.505 OA
ATOM     27  H   UNL     1      35.666 -18.191 -19.750  0.00  0.00    +0.292 HD
ENDBRANCH  20  26
ENDBRANCH   5  13
BRANCH   3  28
ATOM     28  C   UNL     1      32.335  -6.184 -24.375  0.00  0.00    +0.024 C 
ATOM     29  C   UNL     1      33.666  -6.034 -24.762  0.00  0.00    +0.039 C 
ATOM     30  C   UNL     1      31.390  -5.225 -24.740  0.00  0.00    +0.003 C 
ATOM     31  C   UNL     1      34.053  -4.924 -25.514  0.00  0.00    +0.172 C 
ATOM     32  C   UNL     1      31.776  -4.117 -25.492  0.00  0.00    +0.040 C 
ATOM     33  C   UNL     1      33.107  -3.965 -25.879  0.00  0.00    +0.168 C 
BRANCH  31  34
ATOM     34  O   UNL     1      35.357  -4.789 -25.887  0.00  0.00    -0.468 OA
ATOM     35  C   UNL     1      35.792  -5.558 -27.007  0.00  0.00    +0.253 C 
ENDBRANCH  31  34
BRANCH  33  36
ATOM     36  O   UNL     1      33.473  -2.879 -26.614  0.00  0.00    -0.503 OA
ATOM     37  H   UNL     1      32.852  -2.467 -27.183  0.00  0.00    +0.292 HD
ENDBRANCH  33  36
ENDBRANCH   3  28
BRANCH   4  38
ATOM     38  C   UNL     1      31.091  -6.004 -21.577  0.00  0.00    +0.185 C 
BRANCH  38  39
ATOM     39  O   UNL     1      31.919  -4.988 -21.040  0.00  0.00    -0.378 OA
ATOM     40  H   UNL     1      31.739  -4.892 -20.092  0.00  0.00    +0.211 HD
ENDBRANCH  38  39
ENDBRANCH   4  38
TORSDOF 9
ENDMDL
MODEL 4
REMARK VINA RESULT:      -9.7      2.824      6.156
REMARK  Name = 31553
REMARK  9 active torsions:
REMARK  status: ('A' for Active; 'I' for Inactive)
REMARK    1  A    between atoms: C_3  and  C_28
REMARK    2  A    between atoms: C_4  and  C_38
REMARK    3  A    between atoms: C_5  and  C_13
REMARK    4  A    between atoms: C_14  and  O_22
REMARK    5  A    between atoms: C_18  and  O_24
REMARK    6  A    between atoms: C_20  and  O_26
REMARK    7  A    between atoms: C_31  and  O_34
REMARK    8  A    between atoms: C_33  and  O_36
REMARK    9  A    between atoms: C_38  and  O_39
REMARK                            x       y       z     vdW  Elec       q    Type
REMARK                         _______ _______ _______ _____ _____    ______ ____
ROOT
ATOM      1  O   UNL     1      33.235 -11.644 -23.462  0.00  0.00    -0.468 OA
ATOM      2  O   UNL     1      31.918 -11.469 -20.909  0.00  0.00    -0.469 OA
ATOM      3  C   UNL     1      33.379 -12.654 -22.447  0.00  0.00    +0.230 C 
ATOM      4  C   UNL     1      32.103 -12.721 -21.592  0.00  0.00    +0.239 C 
ATOM      5  C   UNL     1      32.316  -8.123 -23.341  0.00  0.00    +0.023 C 
ATOM      6  C   UNL     1      32.709 -10.477 -22.976  0.00  0.00    +0.172 C 
ATOM      7  C   UNL     1      32.079 -10.391 -21.735  0.00  0.00    +0.172 C 
ATOM      8  C   UNL     1      32.814  -9.347 -23.788  0.00  0.00    +0.039 C 
ATOM      9  C   UNL     1      31.711  -8.030 -22.088  0.00  0.00    +0.003 C 
ATOM     10  C   UNL     1      31.593  -9.163 -21.283  0.00  0.00    +0.040 C 
ENDROOT
BRANCH   5  13
ATOM     11  O   UNL     1      31.431  -5.961 -23.784  0.00  0.00    -0.471 OA
ATOM     12  O   UNL     1      34.867  -4.677 -25.625  0.00  0.00    -0.288 OA
ATOM     13  C   UNL     1      32.437  -6.891 -24.217  0.00  0.00    +0.222 C 
ATOM     14  C   UNL     1      33.833  -6.274 -24.139  0.00  0.00    +0.217 C 
ATOM     15  C   UNL     1      33.869  -5.039 -25.013  0.00  0.00    +0.209 C 
ATOM     16  C   UNL     1      32.620  -4.254 -25.059  0.00  0.00    +0.105 C 
ATOM     17  C   UNL     1      31.478  -4.753 -24.429  0.00  0.00    +0.148 C 
ATOM     18  C   UNL     1      32.587  -3.014 -25.702  0.00  0.00    +0.142 C 
ATOM     19  C   UNL     1      30.309  -3.992 -24.411  0.00  0.00    +0.074 C 
ATOM     20  C   UNL     1      30.273  -2.751 -25.048  0.00  0.00    +0.140 C 
ATOM     21  C   UNL     1      31.409  -2.265 -25.697  0.00  0.00    +0.073 C 
BRANCH  14  22
ATOM     22  O   UNL     1      34.799  -7.188 -24.626  0.00  0.00    -0.374 OA
ATOM     23  H   UNL     1      35.688  -6.826 -24.485  0.00  0.00    +0.211 HD
ENDBRANCH  14  22
BRANCH  18  24
ATOM     24  O   UNL     1      33.671  -2.483 -26.334  0.00  0.00    -0.505 OA
ATOM     25  H   UNL     1      34.026  -2.906 -27.090  0.00  0.00    +0.292 HD
ENDBRANCH  18  24
BRANCH  20  26
ATOM     26  O   UNL     1      29.130  -2.014 -25.038  0.00  0.00    -0.505 OA
ATOM     27  H   UNL     1      28.378  -2.309 -25.513  0.00  0.00    +0.292 HD
ENDBRANCH  20  26
ENDBRANCH   5  13
BRANCH   3  28
ATOM     28  C   UNL     1      33.705 -13.948 -23.160  0.00  0.00    +0.024 C 
ATOM     29  C   UNL     1      34.572 -14.867 -22.572  0.00  0.00    +0.039 C 
ATOM     30  C   UNL     1      33.138 -14.220 -24.405  0.00  0.00    +0.003 C 
ATOM     31  C   UNL     1      34.873 -16.060 -23.230  0.00  0.00    +0.172 C 
ATOM     32  C   UNL     1      33.439 -15.412 -25.062  0.00  0.00    +0.040 C 
ATOM     33  C   UNL     1      34.307 -16.333 -24.475  0.00  0.00    +0.168 C 
BRANCH  31  34
ATOM     34  O   UNL     1      35.721 -16.953 -22.644  0.00  0.00    -0.468 OA
ATOM     35  C   UNL     1      35.365 -17.429 -21.348  0.00  0.00    +0.253 C 
ENDBRANCH  31  34
BRANCH  33  36
ATOM     36  O   UNL     1      34.593 -17.495 -25.126  0.00  0.00    -0.503 OA
ATOM     37  H   UNL     1      35.185 -18.112 -24.744  0.00  0.00    +0.292 HD
ENDBRANCH  33  36
ENDBRANCH   3  28
BRANCH   4  38
ATOM     38  C   UNL     1      32.167 -13.794 -20.510  0.00  0.00    +0.185 C 
BRANCH  38  39
ATOM     39  O   UNL     1      32.343 -13.159 -19.256  0.00  0.00    -0.378 OA
ATOM     40  H   UNL     1      32.825 -12.327 -19.380  0.00  0.00    +0.211 HD
ENDBRANCH  38  39
ENDBRANCH   4  38
TORSDOF 9
ENDMDL
MODEL 5
REMARK VINA RESULT:      -9.6      2.655      6.110
REMARK  Name = 31553
REMARK  9 active torsions:
REMARK  status: ('A' for Active; 'I' for Inactive)
REMARK    1  A    between atoms: C_3  and  C_28
REMARK    2  A    between atoms: C_4  and  C_38
REMARK    3  A    between atoms: C_5  and  C_13
REMARK    4  A    between atoms: C_14  and  O_22
REMARK    5  A    between atoms: C_18  and  O_24
REMARK    6  A    between atoms: C_20  and  O_26
REMARK    7  A    between atoms: C_31  and  O_34
REMARK    8  A    between atoms: C_33  and  O_36
REMARK    9  A    between atoms: C_38  and  O_39
REMARK                            x       y       z     vdW  Elec       q    Type
REMARK                         _______ _______ _______ _____ _____    ______ ____
ROOT
ATOM      1  O   UNL     1      33.382 -11.220 -23.320  0.00  0.00    -0.468 OA
ATOM      2  O   UNL     1      31.814 -11.084 -20.911  0.00  0.00    -0.469 OA
ATOM      3  C   UNL     1      33.352 -12.288 -22.356  0.00  0.00    +0.230 C 
ATOM      4  C   UNL     1      31.991 -12.310 -21.642  0.00  0.00    +0.239 C 
ATOM      5  C   UNL     1      32.680  -7.655 -23.092  0.00  0.00    +0.023 C 
ATOM      6  C   UNL     1      32.882 -10.046 -22.825  0.00  0.00    +0.172 C 
ATOM      7  C   UNL     1      32.130  -9.979 -21.652  0.00  0.00    +0.172 C 
ATOM      8  C   UNL     1      33.145  -8.886 -23.554  0.00  0.00    +0.039 C 
ATOM      9  C   UNL     1      31.953  -7.584 -21.904  0.00  0.00    +0.003 C 
ATOM     10  C   UNL     1      31.678  -8.746 -21.182  0.00  0.00    +0.040 C 
ENDROOT
BRANCH   5  13
ATOM     11  O   UNL     1      34.193  -6.612 -24.601  0.00  0.00    -0.471 OA
ATOM     12  O   UNL     1      31.380  -3.940 -25.938  0.00  0.00    -0.288 OA
ATOM     13  C   UNL     1      32.972  -6.391 -23.878  0.00  0.00    +0.222 C 
ATOM     14  C   UNL     1      31.824  -6.033 -24.823  0.00  0.00    +0.217 C 
ATOM     15  C   UNL     1      32.197  -4.783 -25.590  0.00  0.00    +0.209 C 
ATOM     16  C   UNL     1      33.626  -4.650 -25.937  0.00  0.00    +0.105 C 
ATOM     17  C   UNL     1      34.537  -5.581 -25.435  0.00  0.00    +0.148 C 
ATOM     18  C   UNL     1      34.056  -3.622 -26.779  0.00  0.00    +0.142 C 
ATOM     19  C   UNL     1      35.881  -5.504 -25.807  0.00  0.00    +0.074 C 
ATOM     20  C   UNL     1      36.313  -4.481 -26.651  0.00  0.00    +0.140 C 
ATOM     21  C   UNL     1      35.404  -3.539 -27.133  0.00  0.00    +0.073 C 
BRANCH  14  22
ATOM     22  O   UNL     1      30.647  -5.763 -24.082  0.00  0.00    -0.374 OA
ATOM     23  H   UNL     1      30.154  -6.586 -23.945  0.00  0.00    +0.211 HD
ENDBRANCH  14  22
BRANCH  18  24
ATOM     24  O   UNL     1      33.209  -2.687 -27.293  0.00  0.00    -0.505 OA
ATOM     25  H   UNL     1      33.350  -2.351 -28.156  0.00  0.00    +0.292 HD
ENDBRANCH  18  24
BRANCH  20  26
ATOM     26  O   UNL     1      37.625  -4.401 -27.006  0.00  0.00    -0.505 OA
ATOM     27  H   UNL     1      38.063  -5.152 -27.354  0.00  0.00    +0.292 HD
ENDBRANCH  20  26
ENDBRANCH   5  13
BRANCH   3  28
ATOM     28  C   UNL     1      33.669 -13.563 -23.106  0.00  0.00    +0.024 C 
ATOM     29  C   UNL     1      34.531 -14.505 -22.544  0.00  0.00    +0.039 C 
ATOM     30  C   UNL     1      33.100 -13.796 -24.358  0.00  0.00    +0.003 C 
ATOM     31  C   UNL     1      34.824 -15.681 -23.235  0.00  0.00    +0.172 C 
ATOM     32  C   UNL     1      33.393 -14.971 -25.048  0.00  0.00    +0.040 C 
ATOM     33  C   UNL     1      34.255 -15.914 -24.487  0.00  0.00    +0.168 C 
BRANCH  31  34
ATOM     34  O   UNL     1      35.666 -16.595 -22.675  0.00  0.00    -0.468 OA
ATOM     35  C   UNL     1      35.314 -17.094 -21.387  0.00  0.00    +0.253 C 
ENDBRANCH  31  34
BRANCH  33  36
ATOM     36  O   UNL     1      34.533 -17.059 -25.171  0.00  0.00    -0.503 OA
ATOM     37  H   UNL     1      34.100 -17.858 -24.942  0.00  0.00    +0.292 HD
ENDBRANCH  33  36
ENDBRANCH   3  28
BRANCH   4  38
ATOM     38  C   UNL     1      31.871 -13.439 -20.623  0.00  0.00    +0.185 C 
BRANCH  38  39
ATOM     39  O   UNL     1      32.289 -12.951 -19.360  0.00  0.00    -0.378 OA
ATOM     40  H   UNL     1      31.525 -12.589 -18.885  0.00  0.00    +0.211 HD
ENDBRANCH  38  39
ENDBRANCH   4  38
TORSDOF 9
ENDMDL
MODEL 6
REMARK VINA RESULT:      -8.9      2.180     10.612
REMARK  Name = 31553
REMARK  9 active torsions:
REMARK  status: ('A' for Active; 'I' for Inactive)
REMARK    1  A    between atoms: C_3  and  C_28
REMARK    2  A    between atoms: C_4  and  C_38
REMARK    3  A    between atoms: C_5  and  C_13
REMARK    4  A    between atoms: C_14  and  O_22
REMARK    5  A    between atoms: C_18  and  O_24
REMARK    6  A    between atoms: C_20  and  O_26
REMARK    7  A    between atoms: C_31  and  O_34
REMARK    8  A    between atoms: C_33  and  O_36
REMARK    9  A    between atoms: C_38  and  O_39
REMARK                            x       y       z     vdW  Elec       q    Type
REMARK                         _______ _______ _______ _____ _____    ______ ____
ROOT
ATOM      1  O   UNL     1      34.081 -16.345 -21.290  0.00  0.00    -0.468 OA
ATOM      2  O   UNL     1      35.031 -16.961 -23.935  0.00  0.00    -0.469 OA
ATOM      3  C   UNL     1      34.474 -15.326 -22.226  0.00  0.00    +0.230 C 
ATOM      4  C   UNL     1      34.215 -15.808 -23.663  0.00  0.00    +0.239 C 
ATOM      5  C   UNL     1      34.909 -19.877 -20.978  0.00  0.00    +0.023 C 
ATOM      6  C   UNL     1      34.515 -17.592 -21.651  0.00  0.00    +0.172 C 
ATOM      7  C   UNL     1      34.984 -17.887 -22.931  0.00  0.00    +0.172 C 
ATOM      8  C   UNL     1      34.462 -18.590 -20.678  0.00  0.00    +0.039 C 
ATOM      9  C   UNL     1      35.406 -20.166 -22.249  0.00  0.00    +0.003 C 
ATOM     10  C   UNL     1      35.445 -19.171 -23.227  0.00  0.00    +0.040 C 
ENDROOT
BRANCH   5  13
ATOM     11  O   UNL     1      35.889 -20.666 -18.960  0.00  0.00    -0.471 OA
ATOM     12  O   UNL     1      32.559 -22.826 -17.915  0.00  0.00    -0.288 OA
ATOM     13  C   UNL     1      34.861 -20.962 -19.919  0.00  0.00    +0.222 C 
ATOM     14  C   UNL     1      33.487 -21.044 -19.253  0.00  0.00    +0.217 C 
ATOM     15  C   UNL     1      33.524 -22.124 -18.194  0.00  0.00    +0.209 C 
ATOM     16  C   UNL     1      34.804 -22.265 -17.470  0.00  0.00    +0.105 C 
ATOM     17  C   UNL     1      35.906 -21.516 -17.886  0.00  0.00    +0.148 C 
ATOM     18  C   UNL     1      34.902 -23.117 -16.367  0.00  0.00    +0.142 C 
ATOM     19  C   UNL     1      37.103 -21.593 -17.172  0.00  0.00    +0.074 C 
ATOM     20  C   UNL     1      37.204 -22.438 -16.068  0.00  0.00    +0.140 C 
ATOM     21  C   UNL     1      36.107 -23.203 -15.668  0.00  0.00    +0.073 C 
BRANCH  14  22
ATOM     22  O   UNL     1      32.502 -21.394 -20.208  0.00  0.00    -0.374 OA
ATOM     23  H   UNL     1      32.666 -20.914 -21.034  0.00  0.00    +0.211 HD
ENDBRANCH  14  22
BRANCH  18  24
ATOM     24  O   UNL     1      33.858 -23.871 -15.923  0.00  0.00    -0.505 OA
ATOM     25  H   UNL     1      33.968 -24.431 -15.180  0.00  0.00    +0.292 HD
ENDBRANCH  18  24
BRANCH  20  26
ATOM     26  O   UNL     1      38.375 -22.520 -15.378  0.00  0.00    -0.505 OA
ATOM     27  H   UNL     1      39.192 -22.451 -15.831  0.00  0.00    +0.292 HD
ENDBRANCH  20  26
ENDBRANCH   5  13
BRANCH   3  28
ATOM     28  C   UNL     1      33.712 -14.073 -21.856  0.00  0.00    +0.024 C 
ATOM     29  C   UNL     1      33.567 -13.045 -22.787  0.00  0.00    +0.039 C 
ATOM     30  C   UNL     1      33.154 -13.946 -20.583  0.00  0.00    +0.003 C 
ATOM     31  C   UNL     1      32.864 -11.890 -22.445  0.00  0.00    +0.172 C 
ATOM     32  C   UNL     1      32.452 -12.792 -20.242  0.00  0.00    +0.040 C 
ATOM     33  C   UNL     1      32.306 -11.763 -21.173  0.00  0.00    +0.168 C 
BRANCH  31  34
ATOM     34  O   UNL     1      32.727 -10.892 -23.364  0.00  0.00    -0.468 OA
ATOM     35  C   UNL     1      33.797  -9.955 -23.465  0.00  0.00    +0.253 C 
ENDBRANCH  31  34
BRANCH  33  36
ATOM     36  O   UNL     1      31.617 -10.639 -20.828  0.00  0.00    -0.503 OA
ATOM     37  H   UNL     1      31.820  -9.821 -21.238  0.00  0.00    +0.292 HD
ENDBRANCH  33  36
ENDBRANCH   3  28
BRANCH   4  38
ATOM     38  C   UNL     1      34.580 -14.766 -24.716  0.00  0.00    +0.185 C 
BRANCH  38  39
ATOM     39  O   UNL     1      33.818 -15.019 -25.883  0.00  0.00    -0.378 OA
ATOM     40  H   UNL     1      33.235 -15.779 -25.729  0.00  0.00    +0.211 HD
ENDBRANCH  38  39
ENDBRANCH   4  38
TORSDOF 9
ENDMDL
MODEL 7
REMARK VINA RESULT:      -8.8      1.978     10.508
REMARK  Name = 31553
REMARK  9 active torsions:
REMARK  status: ('A' for Active; 'I' for Inactive)
REMARK    1  A    between atoms: C_3  and  C_28
REMARK    2  A    between atoms: C_4  and  C_38
REMARK    3  A    between atoms: C_5  and  C_13
REMARK    4  A    between atoms: C_14  and  O_22
REMARK    5  A    between atoms: C_18  and  O_24
REMARK    6  A    between atoms: C_20  and  O_26
REMARK    7  A    between atoms: C_31  and  O_34
REMARK    8  A    between atoms: C_33  and  O_36
REMARK    9  A    between atoms: C_38  and  O_39
REMARK                            x       y       z     vdW  Elec       q    Type
REMARK                         _______ _______ _______ _____ _____    ______ ____
ROOT
ATOM      1  O   UNL     1      34.199 -15.502 -22.086  0.00  0.00    -0.468 OA
ATOM      2  O   UNL     1      34.398 -16.777 -24.658  0.00  0.00    -0.469 OA
ATOM      3  C   UNL     1      34.385 -14.760 -23.304  0.00  0.00    +0.230 C 
ATOM      4  C   UNL     1      33.739 -15.511 -24.479  0.00  0.00    +0.239 C 
ATOM      5  C   UNL     1      34.905 -18.949 -21.152  0.00  0.00    +0.023 C 
ATOM      6  C   UNL     1      34.462 -16.837 -22.234  0.00  0.00    +0.172 C 
ATOM      7  C   UNL     1      34.568 -17.452 -23.481  0.00  0.00    +0.172 C 
ATOM      8  C   UNL     1      34.615 -17.588 -21.068  0.00  0.00    +0.039 C 
ATOM      9  C   UNL     1      35.039 -19.560 -22.399  0.00  0.00    +0.003 C 
ATOM     10  C   UNL     1      34.872 -18.812 -23.565  0.00  0.00    +0.040 C 
ENDROOT
BRANCH   5  13
ATOM     11  O   UNL     1      33.949 -20.646 -19.787  0.00  0.00    -0.471 OA
ATOM     12  O   UNL     1      37.541 -21.595 -18.046  0.00  0.00    -0.288 OA
ATOM     13  C   UNL     1      35.080 -19.766 -19.886  0.00  0.00    +0.222 C 
ATOM     14  C   UNL     1      36.393 -20.550 -19.894  0.00  0.00    +0.217 C 
ATOM     15  C   UNL     1      36.484 -21.358 -18.618  0.00  0.00    +0.209 C 
ATOM     16  C   UNL     1      35.205 -21.892 -18.108  0.00  0.00    +0.105 C 
ATOM     17  C   UNL     1      34.014 -21.517 -18.733  0.00  0.00    +0.148 C 
ATOM     18  C   UNL     1      35.190 -22.783 -17.032  0.00  0.00    +0.142 C 
ATOM     19  C   UNL     1      32.805 -22.064 -18.301  0.00  0.00    +0.074 C 
ATOM     20  C   UNL     1      32.785 -22.957 -17.230  0.00  0.00    +0.140 C 
ATOM     21  C   UNL     1      33.975 -23.312 -16.593  0.00  0.00    +0.073 C 
BRANCH  14  22
ATOM     22  O   UNL     1      37.494 -19.659 -19.932  0.00  0.00    -0.374 OA
ATOM     23  H   UNL     1      38.290 -20.140 -20.205  0.00  0.00    +0.211 HD
ENDBRANCH  14  22
BRANCH  18  24
ATOM     24  O   UNL     1      36.322 -23.179 -16.387  0.00  0.00    -0.505 OA
ATOM     25  H   UNL     1      36.789 -23.935 -16.682  0.00  0.00    +0.292 HD
ENDBRANCH  18  24
BRANCH  20  26
ATOM     26  O   UNL     1      31.605 -23.482 -16.803  0.00  0.00    -0.505 OA
ATOM     27  H   UNL     1      31.371 -24.359 -17.036  0.00  0.00    +0.292 HD
ENDBRANCH  20  26
ENDBRANCH   5  13
BRANCH   3  28
ATOM     28  C   UNL     1      33.808 -13.381 -23.070  0.00  0.00    +0.024 C 
ATOM     29  C   UNL     1      32.876 -13.180 -22.052  0.00  0.00    +0.039 C 
ATOM     30  C   UNL     1      34.206 -12.312 -23.872  0.00  0.00    +0.003 C 
ATOM     31  C   UNL     1      32.343 -11.909 -21.836  0.00  0.00    +0.172 C 
ATOM     32  C   UNL     1      33.674 -11.042 -23.656  0.00  0.00    +0.040 C 
ATOM     33  C   UNL     1      32.742 -10.840 -22.638  0.00  0.00    +0.168 C 
BRANCH  31  34
ATOM     34  O   UNL     1      31.435 -11.724 -20.837  0.00  0.00    -0.468 OA
ATOM     35  C   UNL     1      31.950 -11.536 -19.520  0.00  0.00    +0.253 C 
ENDBRANCH  31  34
BRANCH  33  36
ATOM     36  O   UNL     1      32.229  -9.594 -22.436  0.00  0.00    -0.503 OA
ATOM     37  H   UNL     1      32.202  -9.233 -21.572  0.00  0.00    +0.292 HD
ENDBRANCH  33  36
ENDBRANCH   3  28
BRANCH   4  38
ATOM     38  C   UNL     1      33.868 -14.769 -25.805  0.00  0.00    +0.185 C 
BRANCH  38  39
ATOM     39  O   UNL     1      32.571 -14.414 -26.251  0.00  0.00    -0.378 OA
ATOM     40  H   UNL     1      31.916 -14.692 -25.592  0.00  0.00    +0.211 HD
ENDBRANCH  38  39
ENDBRANCH   4  38
TORSDOF 9
ENDMDL
MODEL 8
REMARK VINA RESULT:      -8.8      1.627      2.010
REMARK  Name = 31553
REMARK  9 active torsions:
REMARK  status: ('A' for Active; 'I' for Inactive)
REMARK    1  A    between atoms: C_3  and  C_28
REMARK    2  A    between atoms: C_4  and  C_38
REMARK    3  A    between atoms: C_5  and  C_13
REMARK    4  A    between atoms: C_14  and  O_22
REMARK    5  A    between atoms: C_18  and  O_24
REMARK    6  A    between atoms: C_20  and  O_26
REMARK    7  A    between atoms: C_31  and  O_34
REMARK    8  A    between atoms: C_33  and  O_36
REMARK    9  A    between atoms: C_38  and  O_39
REMARK                            x       y       z     vdW  Elec       q    Type
REMARK                         _______ _______ _______ _____ _____    ______ ____
ROOT
ATOM      1  O   UNL     1      34.842 -17.552 -20.992  0.00  0.00    -0.468 OA
ATOM      2  O   UNL     1      34.992 -18.051 -23.822  0.00  0.00    -0.469 OA
ATOM      3  C   UNL     1      34.844 -18.881 -21.543  0.00  0.00    +0.230 C 
ATOM      4  C   UNL     1      35.639 -18.901 -22.858  0.00  0.00    +0.239 C 
ATOM      5  C   UNL     1      33.955 -14.300 -22.366  0.00  0.00    +0.023 C 
ATOM      6  C   UNL     1      34.582 -16.590 -21.930  0.00  0.00    +0.172 C 
ATOM      7  C   UNL     1      34.645 -16.835 -23.301  0.00  0.00    +0.172 C 
ATOM      8  C   UNL     1      34.252 -15.318 -21.460  0.00  0.00    +0.039 C 
ATOM      9  C   UNL     1      33.991 -14.551 -23.737  0.00  0.00    +0.003 C 
ATOM     10  C   UNL     1      34.335 -15.819 -24.207  0.00  0.00    +0.040 C 
ENDROOT
BRANCH   5  13
ATOM     11  O   UNL     1      33.259 -12.118 -23.005  0.00  0.00    -0.471 OA
ATOM     12  O   UNL     1      31.698 -11.279 -19.303  0.00  0.00    -0.288 OA
ATOM     13  C   UNL     1      33.588 -12.918 -21.858  0.00  0.00    +0.222 C 
ATOM     14  C   UNL     1      32.427 -12.969 -20.865  0.00  0.00    +0.217 C 
ATOM     15  C   UNL     1      32.100 -11.558 -20.427  0.00  0.00    +0.209 C 
ATOM     16  C   UNL     1      32.260 -10.515 -21.460  0.00  0.00    +0.105 C 
ATOM     17  C   UNL     1      32.815 -10.860 -22.694  0.00  0.00    +0.148 C 
ATOM     18  C   UNL     1      31.836  -9.207 -21.216  0.00  0.00    +0.142 C 
ATOM     19  C   UNL     1      32.913  -9.898 -23.701  0.00  0.00    +0.074 C 
ATOM     20  C   UNL     1      32.487  -8.592 -23.462  0.00  0.00    +0.140 C 
ATOM     21  C   UNL     1      31.953  -8.245 -22.221  0.00  0.00    +0.073 C 
BRANCH  14  22
ATOM     22  O   UNL     1      32.797 -13.714 -19.718  0.00  0.00    -0.374 OA
ATOM     23  H   UNL     1      32.384 -14.591 -19.755  0.00  0.00    +0.211 HD
ENDBRANCH  14  22
BRANCH  18  24
ATOM     24  O   UNL     1      31.290  -8.818 -20.029  0.00  0.00    -0.505 OA
ATOM     25  H   UNL     1      30.616  -8.169 -20.015  0.00  0.00    +0.292 HD
ENDBRANCH  18  24
BRANCH  20  26
ATOM     26  O   UNL     1      32.591  -7.653 -24.442  0.00  0.00    -0.505 OA
ATOM     27  H   UNL     1      33.030  -7.859 -25.244  0.00  0.00    +0.292 HD
ENDBRANCH  20  26
ENDBRANCH   5  13
BRANCH   3  28
ATOM     28  C   UNL     1      35.404 -19.797 -20.477  0.00  0.00    +0.024 C 
ATOM     29  C   UNL     1      34.663 -20.897 -20.046  0.00  0.00    +0.039 C 
ATOM     30  C   UNL     1      36.659 -19.541 -19.927  0.00  0.00    +0.003 C 
ATOM     31  C   UNL     1      35.179 -21.742 -19.062  0.00  0.00    +0.172 C 
ATOM     32  C   UNL     1      37.175 -20.385 -18.944  0.00  0.00    +0.040 C 
ATOM     33  C   UNL     1      36.435 -21.486 -18.512  0.00  0.00    +0.168 C 
BRANCH  31  34
ATOM     34  O   UNL     1      34.448 -22.815 -18.649  0.00  0.00    -0.468 OA
ATOM     35  C   UNL     1      33.312 -22.547 -17.828  0.00  0.00    +0.253 C 
ENDBRANCH  31  34
BRANCH  33  36
ATOM     36  O   UNL     1      36.950 -22.304 -17.552  0.00  0.00    -0.503 OA
ATOM     37  H   UNL     1      37.857 -22.247 -17.325  0.00  0.00    +0.292 HD
ENDBRANCH  33  36
ENDBRANCH   3  28
BRANCH   4  38
ATOM     38  C   UNL     1      35.713 -20.287 -23.490  0.00  0.00    +0.185 C 
BRANCH  38  39
ATOM     39  O   UNL     1      34.756 -20.359 -24.532  0.00  0.00    -0.378 OA
ATOM     40  H   UNL     1      34.002 -19.788 -24.317  0.00  0.00    +0.211 HD
ENDBRANCH  38  39
ENDBRANCH   4  38
TORSDOF 9
ENDMDL
MODEL 9
REMARK VINA RESULT:      -8.8      2.523     10.781
REMARK  Name = 31553
REMARK  9 active torsions:
REMARK  status: ('A' for Active; 'I' for Inactive)
REMARK    1  A    between atoms: C_3  and  C_28
REMARK    2  A    between atoms: C_4  and  C_38
REMARK    3  A    between atoms: C_5  and  C_13
REMARK    4  A    between atoms: C_14  and  O_22
REMARK    5  A    between atoms: C_18  and  O_24
REMARK    6  A    between atoms: C_20  and  O_26
REMARK    7  A    between atoms: C_31  and  O_34
REMARK    8  A    between atoms: C_33  and  O_36
REMARK    9  A    between atoms: C_38  and  O_39
REMARK                            x       y       z     vdW  Elec       q    Type
REMARK                         _______ _______ _______ _____ _____    ______ ____
ROOT
ATOM      1  O   UNL     1      33.147  -8.839 -23.948  0.00  0.00    -0.468 OA
ATOM      2  O   UNL     1      30.754  -7.983 -22.599  0.00  0.00    -0.469 OA
ATOM      3  C   UNL     1      32.407  -7.674 -24.353  0.00  0.00    +0.230 C 
ATOM      4  C   UNL     1      31.707  -7.049 -23.135  0.00  0.00    +0.239 C 
ATOM      5  C   UNL     1      32.237 -11.830 -22.083  0.00  0.00    +0.023 C 
ATOM      6  C   UNL     1      32.435  -9.654 -23.111  0.00  0.00    +0.172 C 
ATOM      7  C   UNL     1      31.270  -9.242 -22.465  0.00  0.00    +0.172 C 
ATOM      8  C   UNL     1      32.929 -10.944 -22.909  0.00  0.00    +0.039 C 
ATOM      9  C   UNL     1      31.056 -11.428 -21.459  0.00  0.00    +0.003 C 
ATOM     10  C   UNL     1      30.570 -10.134 -21.651  0.00  0.00    +0.040 C 
ENDROOT
BRANCH   5  13
ATOM     11  O   UNL     1      33.334 -13.671 -23.113  0.00  0.00    -0.471 OA
ATOM     12  O   UNL     1      34.625 -15.205 -19.533  0.00  0.00    -0.288 OA
ATOM     13  C   UNL     1      32.767 -13.235 -21.868  0.00  0.00    +0.222 C 
ATOM     14  C   UNL     1      33.798 -13.286 -20.740  0.00  0.00    +0.217 C 
ATOM     15  C   UNL     1      34.300 -14.707 -20.604  0.00  0.00    +0.209 C 
ATOM     16  C   UNL     1      34.414 -15.467 -21.864  0.00  0.00    +0.105 C 
ATOM     17  C   UNL     1      33.940 -14.898 -23.048  0.00  0.00    +0.148 C 
ATOM     18  C   UNL     1      35.015 -16.728 -21.877  0.00  0.00    +0.142 C 
ATOM     19  C   UNL     1      34.099 -15.579 -24.255  0.00  0.00    +0.074 C 
ATOM     20  C   UNL     1      34.703 -16.837 -24.273  0.00  0.00    +0.140 C 
ATOM     21  C   UNL     1      35.156 -17.413 -23.086  0.00  0.00    +0.073 C 
BRANCH  14  22
ATOM     22  O   UNL     1      33.200 -12.908 -19.513  0.00  0.00    -0.374 OA
ATOM     23  H   UNL     1      33.846 -12.428 -18.972  0.00  0.00    +0.211 HD
ENDBRANCH  14  22
BRANCH  18  24
ATOM     24  O   UNL     1      35.493 -17.329 -20.751  0.00  0.00    -0.505 OA
ATOM     25  H   UNL     1      36.416 -17.386 -20.607  0.00  0.00    +0.292 HD
ENDBRANCH  18  24
BRANCH  20  26
ATOM     26  O   UNL     1      34.849 -17.504 -25.450  0.00  0.00    -0.505 OA
ATOM     27  H   UNL     1      35.550 -18.117 -25.557  0.00  0.00    +0.292 HD
ENDBRANCH  20  26
ENDBRANCH   5  13
BRANCH   3  28
ATOM     28  C   UNL     1      33.387  -6.746 -25.036  0.00  0.00    +0.024 C 
ATOM     29  C   UNL     1      33.100  -6.239 -26.303  0.00  0.00    +0.039 C 
ATOM     30  C   UNL     1      34.579  -6.399 -24.399  0.00  0.00    +0.003 C 
ATOM     31  C   UNL     1      34.005  -5.384 -26.933  0.00  0.00    +0.172 C 
ATOM     32  C   UNL     1      35.483  -5.545 -25.029  0.00  0.00    +0.040 C 
ATOM     33  C   UNL     1      35.196  -5.037 -26.296  0.00  0.00    +0.168 C 
BRANCH  31  34
ATOM     34  O   UNL     1      33.712  -4.894 -28.171  0.00  0.00    -0.468 OA
ATOM     35  C   UNL     1      33.693  -5.827 -29.249  0.00  0.00    +0.253 C 
ENDBRANCH  31  34
BRANCH  33  36
ATOM     36  O   UNL     1      36.087  -4.202 -26.901  0.00  0.00    -0.503 OA
ATOM     37  H   UNL     1      36.833  -4.555 -27.343  0.00  0.00    +0.292 HD
ENDBRANCH  33  36
ENDBRANCH   3  28
BRANCH   4  38
ATOM     38  C   UNL     1      30.923  -5.787 -23.481  0.00  0.00    +0.185 C 
BRANCH  38  39
ATOM     39  O   UNL     1      30.127  -5.431 -22.364  0.00  0.00    -0.378 OA
ATOM     40  H   UNL     1      30.538  -4.685 -21.900  0.00  0.00    +0.211 HD
ENDBRANCH  38  39
ENDBRANCH   4  38
TORSDOF 9
ENDMDL
