MODEL 1
REMARK VINA RESULT:     -13.6      0.000      0.000
REMARK  Name = 25171648
REMARK  8 active torsions:
REMARK  status: ('A' for Active; 'I' for Inactive)
REMARK    1  A    between atoms: C_1  and  C_12
REMARK    2  A    between atoms: C_2  and  C_23
REMARK    3  A    between atoms: C_9  and  O_13
REMARK    4  A    between atoms: O_13  and  C_14
REMARK    5  A    between atoms: C_14  and  C_16
REMARK    6  A    between atoms: C_23  and  N_25
REMARK    7  A    between atoms: C_27  and  C_31
REMARK    8  A    between atoms: C_34  and  C_38
REMARK                            x       y       z     vdW  Elec       q    Type
REMARK                         _______ _______ _______ _____ _____    ______ ____
ROOT
ATOM      1  C   UNL     1      35.327 -19.818 -20.367  0.00  0.00    +0.062 C 
ATOM      2  C   UNL     1      34.293 -21.627 -19.142  0.00  0.00    +0.000 C 
ATOM      3  C   UNL     1      34.183 -20.521 -19.987  0.00  0.00    +0.007 C 
ATOM      4  C   UNL     1      36.579 -20.221 -19.903  0.00  0.00    +0.010 C 
ATOM      5  C   UNL     1      35.546 -22.028 -18.679  0.00  0.00    -0.003 C 
ATOM      6  C   UNL     1      36.688 -21.326 -19.060  0.00  0.00    +0.000 C 
ENDROOT
BRANCH   1  12
ATOM      7  N   UNL     1      35.343 -17.467 -20.664  0.00  0.00    -0.212 NA
ATOM      8  N   UNL     1      34.989 -18.936 -22.541  0.00  0.00    -0.190 NA
ATOM      9  C   UNL     1      35.002 -16.551 -22.864  0.00  0.00    +0.161 C 
ATOM     10  C   UNL     1      35.232 -16.422 -21.509  0.00  0.00    +0.201 C 
ATOM     11  C   UNL     1      34.889 -17.846 -23.329  0.00  0.00    +0.144 C 
ATOM     12  C   UNL     1      35.213 -18.678 -21.238  0.00  0.00    +0.031 C 
BRANCH   9  13
ATOM     13  O   UNL     1      34.895 -15.463 -23.695  0.00  0.00    -0.476 OA
BRANCH  13  14
ATOM     14  C   UNL     1      33.611 -14.886 -23.838  0.00  0.00    +0.205 C 
BRANCH  14  16
ATOM     15  N   UNL     1      32.348 -10.919 -22.690  0.00  0.00    +0.386 N 
ATOM     16  C   UNL     1      33.610 -13.526 -23.148  0.00  0.00    +0.040 C 
ATOM     17  C   UNL     1      32.367 -13.356 -22.267  0.00  0.00    -0.019 C 
ATOM     18  C   UNL     1      33.676 -12.388 -24.172  0.00  0.00    -0.019 C 
ATOM     19  C   UNL     1      32.307 -11.957 -21.651  0.00  0.00    -0.077 C 
ATOM     20  C   UNL     1      33.574 -11.020 -23.493  0.00  0.00    -0.077 C 
ATOM     21  C   UNL     1      32.238  -9.589 -22.088  0.00  0.00    -0.101 C 
ATOM     22  H   UNL     1      31.552 -11.064 -23.310  0.00  0.00    -0.080 HD
ENDBRANCH  14  16
ENDBRANCH  13  14
ENDBRANCH   9  13
ENDBRANCH   1  12
BRANCH   2  23
ATOM     23  C   UNL     1      33.071 -22.379 -18.734  0.00  0.00    +0.146 C 
BRANCH  23  25
ATOM     24  O   UNL     1      30.794 -22.314 -16.996  0.00  0.00    -0.268 OA
ATOM     25  N   UNL     1      33.064 -22.693 -17.316  0.00  0.00    -0.173 N 
ATOM     26  N   UNL     1      34.281 -23.038 -16.800  0.00  0.00    -0.175 NA
ATOM     27  C   UNL     1      34.353 -23.325 -15.540  0.00  0.00    +0.099 C 
ATOM     28  C   UNL     1      31.901 -22.633 -16.563  0.00  0.00    +0.268 C 
ATOM     29  C   UNL     1      33.203 -23.330 -14.617  0.00  0.00    +0.025 C 
ATOM     30  C   UNL     1      32.023 -22.989 -15.133  0.00  0.00    +0.061 C 
BRANCH  27  31
ATOM     31  C   UNL     1      35.674 -23.697 -14.966  0.00  0.00    +0.020 C 
ATOM     32  C   UNL     1      35.743 -24.585 -13.893  0.00  0.00    +0.012 C 
ATOM     33  C   UNL     1      36.844 -23.157 -15.502  0.00  0.00    +0.002 C 
ATOM     34  C   UNL     1      36.983 -24.934 -13.356  0.00  0.00    +0.068 C 
ATOM     35  C   UNL     1      38.083 -23.505 -14.964  0.00  0.00    +0.001 C 
ATOM     36  C   UNL     1      38.153 -24.394 -13.892  0.00  0.00    +0.010 C 
BRANCH  34  38
ATOM     37  N   UNL     1      37.113 -26.583 -11.363  0.00  0.00    -0.191 NA
ATOM     38  C   UNL     1      37.055 -25.844 -12.256  0.00  0.00    +0.100 C 
ENDBRANCH  34  38
ENDBRANCH  27  31
ENDBRANCH  23  25
ENDBRANCH   2  23
TORSDOF 8
ENDMDL
MODEL 2
REMARK VINA RESULT:     -13.5      3.750      8.057
REMARK  Name = 25171648
REMARK  8 active torsions:
REMARK  status: ('A' for Active; 'I' for Inactive)
REMARK    1  A    between atoms: C_1  and  C_12
REMARK    2  A    between atoms: C_2  and  C_23
REMARK    3  A    between atoms: C_9  and  O_13
REMARK    4  A    between atoms: O_13  and  C_14
REMARK    5  A    between atoms: C_14  and  C_16
REMARK    6  A    between atoms: C_23  and  N_25
REMARK    7  A    between atoms: C_27  and  C_31
REMARK    8  A    between atoms: C_34  and  C_38
REMARK                            x       y       z     vdW  Elec       q    Type
REMARK                         _______ _______ _______ _____ _____    ______ ____
ROOT
ATOM      1  C   UNL     1      32.843 -12.782 -21.608  0.00  0.00    +0.062 C 
ATOM      2  C   UNL     1      34.356 -14.636 -21.942  0.00  0.00    +0.000 C 
ATOM      3  C   UNL     1      33.790 -13.442 -22.391  0.00  0.00    +0.007 C 
ATOM      4  C   UNL     1      32.461 -13.317 -20.377  0.00  0.00    +0.010 C 
ATOM      5  C   UNL     1      33.974 -15.170 -20.711  0.00  0.00    -0.003 C 
ATOM      6  C   UNL     1      33.027 -14.510 -19.929  0.00  0.00    +0.000 C 
ENDROOT
BRANCH   1  12
ATOM      7  N   UNL     1      32.876 -10.942 -23.101  0.00  0.00    -0.212 NA
ATOM      8  N   UNL     1      31.153 -11.130 -21.427  0.00  0.00    -0.190 NA
ATOM      9  C   UNL     1      31.170  -9.253 -22.934  0.00  0.00    +0.161 C 
ATOM     10  C   UNL     1      32.303  -9.791 -23.509  0.00  0.00    +0.201 C 
ATOM     11  C   UNL     1      30.632  -9.973 -21.887  0.00  0.00    +0.144 C 
ATOM     12  C   UNL     1      32.259 -11.550 -22.071  0.00  0.00    +0.031 C 
BRANCH   9  13
ATOM     13  O   UNL     1      30.612  -8.078 -23.376  0.00  0.00    -0.476 OA
BRANCH  13  14
ATOM     14  C   UNL     1      31.408  -7.266 -24.218  0.00  0.00    +0.205 C 
BRANCH  14  16
ATOM     15  N   UNL     1      30.192  -3.480 -22.531  0.00  0.00    +0.386 N 
ATOM     16  C   UNL     1      31.504  -5.874 -23.601  0.00  0.00    +0.040 C 
ATOM     17  C   UNL     1      30.857  -5.842 -22.212  0.00  0.00    -0.019 C 
ATOM     18  C   UNL     1      30.847  -4.824 -24.503  0.00  0.00    -0.019 C 
ATOM     19  C   UNL     1      30.861  -4.427 -21.628  0.00  0.00    -0.077 C 
ATOM     20  C   UNL     1      30.852  -3.442 -23.843  0.00  0.00    -0.077 C 
ATOM     21  C   UNL     1      30.159  -2.144 -21.936  0.00  0.00    -0.101 C 
ATOM     22  H   UNL     1      29.234  -3.800 -22.669  0.00  0.00    -0.080 HD
ENDBRANCH  14  16
ENDBRANCH  13  14
ENDBRANCH   9  13
ENDBRANCH   1  12
BRANCH   2  23
ATOM     23  C   UNL     1      35.369 -15.343 -22.778  0.00  0.00    +0.146 C 
BRANCH  23  25
ATOM     24  O   UNL     1      34.231 -16.464 -25.158  0.00  0.00    -0.268 OA
ATOM     25  N   UNL     1      35.031 -16.739 -22.993  0.00  0.00    -0.173 N 
ATOM     26  N   UNL     1      35.286 -17.559 -21.931  0.00  0.00    -0.175 NA
ATOM     27  C   UNL     1      35.003 -18.817 -22.047  0.00  0.00    +0.099 C 
ATOM     28  C   UNL     1      34.484 -17.180 -24.189  0.00  0.00    +0.268 C 
ATOM     29  C   UNL     1      34.442 -19.439 -23.261  0.00  0.00    +0.025 C 
ATOM     30  C   UNL     1      34.196 -18.627 -24.287  0.00  0.00    +0.061 C 
BRANCH  27  31
ATOM     31  C   UNL     1      35.272 -19.720 -20.896  0.00  0.00    +0.020 C 
ATOM     32  C   UNL     1      34.222 -20.408 -20.288  0.00  0.00    +0.012 C 
ATOM     33  C   UNL     1      36.576 -19.879 -20.425  0.00  0.00    +0.002 C 
ATOM     34  C   UNL     1      34.476 -21.255 -19.209  0.00  0.00    +0.068 C 
ATOM     35  C   UNL     1      36.830 -20.726 -19.346  0.00  0.00    +0.001 C 
ATOM     36  C   UNL     1      35.780 -21.414 -18.738  0.00  0.00    +0.010 C 
BRANCH  34  38
ATOM     37  N   UNL     1      32.527 -22.532 -18.078  0.00  0.00    -0.191 NA
ATOM     38  C   UNL     1      33.401 -21.959 -18.585  0.00  0.00    +0.100 C 
ENDBRANCH  34  38
ENDBRANCH  27  31
ENDBRANCH  23  25
ENDBRANCH   2  23
TORSDOF 8
ENDMDL
MODEL 3
REMARK VINA RESULT:     -13.5      1.378      1.880
REMARK  Name = 25171648
REMARK  8 active torsions:
REMARK  status: ('A' for Active; 'I' for Inactive)
REMARK    1  A    between atoms: C_1  and  C_12
REMARK    2  A    between atoms: C_2  and  C_23
REMARK    3  A    between atoms: C_9  and  O_13
REMARK    4  A    between atoms: O_13  and  C_14
REMARK    5  A    between atoms: C_14  and  C_16
REMARK    6  A    between atoms: C_23  and  N_25
REMARK    7  A    between atoms: C_27  and  C_31
REMARK    8  A    between atoms: C_34  and  C_38
REMARK                            x       y       z     vdW  Elec       q    Type
REMARK                         _______ _______ _______ _____ _____    ______ ____
ROOT
ATOM      1  C   UNL     1      35.343 -20.465 -19.835  0.00  0.00    +0.062 C 
ATOM      2  C   UNL     1      34.371 -22.248 -18.526  0.00  0.00    +0.000 C 
ATOM      3  C   UNL     1      34.262 -21.296 -19.540  0.00  0.00    +0.007 C 
ATOM      4  C   UNL     1      36.532 -20.587 -19.117  0.00  0.00    +0.010 C 
ATOM      5  C   UNL     1      35.561 -22.369 -17.808  0.00  0.00    -0.003 C 
ATOM      6  C   UNL     1      36.642 -21.540 -18.104  0.00  0.00    +0.000 C 
ENDROOT
BRANCH   1  12
ATOM      7  N   UNL     1      34.575 -19.862 -21.994  0.00  0.00    -0.212 NA
ATOM      8  N   UNL     1      35.792 -18.282 -20.642  0.00  0.00    -0.190 NA
ATOM      9  C   UNL     1      35.020 -17.649 -22.832  0.00  0.00    +0.161 C 
ATOM     10  C   UNL     1      34.488 -18.917 -22.953  0.00  0.00    +0.201 C 
ATOM     11  C   UNL     1      35.667 -17.385 -21.642  0.00  0.00    +0.144 C 
ATOM     12  C   UNL     1      35.230 -19.483 -20.882  0.00  0.00    +0.031 C 
BRANCH   9  13
ATOM     13  O   UNL     1      34.912 -16.712 -23.829  0.00  0.00    -0.476 OA
BRANCH  13  14
ATOM     14  C   UNL     1      35.190 -15.368 -23.483  0.00  0.00    +0.205 C 
BRANCH  14  16
ATOM     15  N   UNL     1      32.604 -12.498 -21.553  0.00  0.00    +0.386 N 
ATOM     16  C   UNL     1      33.970 -14.785 -22.777  0.00  0.00    +0.040 C 
ATOM     17  C   UNL     1      33.337 -13.663 -23.608  0.00  0.00    -0.019 C 
ATOM     18  C   UNL     1      34.338 -14.255 -21.387  0.00  0.00    -0.019 C 
ATOM     19  C   UNL     1      32.174 -13.006 -22.863  0.00  0.00    -0.077 C 
ATOM     20  C   UNL     1      33.141 -13.578 -20.715  0.00  0.00    -0.077 C 
ATOM     21  C   UNL     1      31.494 -11.827 -20.875  0.00  0.00    -0.101 C 
ATOM     22  H   UNL     1      33.350 -11.820 -21.709  0.00  0.00    -0.080 HD
ENDBRANCH  14  16
ENDBRANCH  13  14
ENDBRANCH   9  13
ENDBRANCH   1  12
BRANCH   2  23
ATOM     23  C   UNL     1      33.215 -23.136 -18.208  0.00  0.00    +0.146 C 
BRANCH  23  25
ATOM     24  O   UNL     1      30.840 -22.221 -16.893  0.00  0.00    -0.268 OA
ATOM     25  N   UNL     1      32.944 -23.201 -16.782  0.00  0.00    -0.173 N 
ATOM     26  N   UNL     1      33.946 -23.749 -16.034  0.00  0.00    -0.175 NA
ATOM     27  C   UNL     1      33.778 -23.833 -14.753  0.00  0.00    +0.099 C 
ATOM     28  C   UNL     1      31.755 -22.729 -16.246  0.00  0.00    +0.268 C 
ATOM     29  C   UNL     1      32.562 -23.399 -14.040  0.00  0.00    +0.025 C 
ATOM     30  C   UNL     1      31.595 -22.865 -14.783  0.00  0.00    +0.061 C 
BRANCH  27  31
ATOM     31  C   UNL     1      34.865 -24.422 -13.926  0.00  0.00    +0.020 C 
ATOM     32  C   UNL     1      34.875 -24.228 -12.545  0.00  0.00    +0.012 C 
ATOM     33  C   UNL     1      35.874 -25.171 -14.533  0.00  0.00    +0.002 C 
ATOM     34  C   UNL     1      35.895 -24.782 -11.771  0.00  0.00    +0.068 C 
ATOM     35  C   UNL     1      36.894 -25.725 -13.758  0.00  0.00    +0.001 C 
ATOM     36  C   UNL     1      36.904 -25.531 -12.377  0.00  0.00    +0.010 C 
BRANCH  34  38
ATOM     37  N   UNL     1      35.915 -24.421  -9.206  0.00  0.00    -0.191 NA
ATOM     38  C   UNL     1      35.906 -24.583 -10.355  0.00  0.00    +0.100 C 
ENDBRANCH  34  38
ENDBRANCH  27  31
ENDBRANCH  23  25
ENDBRANCH   2  23
TORSDOF 8
ENDMDL
MODEL 4
REMARK VINA RESULT:     -13.2      3.773      7.925
REMARK  Name = 25171648
REMARK  8 active torsions:
REMARK  status: ('A' for Active; 'I' for Inactive)
REMARK    1  A    between atoms: C_1  and  C_12
REMARK    2  A    between atoms: C_2  and  C_23
REMARK    3  A    between atoms: C_9  and  O_13
REMARK    4  A    between atoms: O_13  and  C_14
REMARK    5  A    between atoms: C_14  and  C_16
REMARK    6  A    between atoms: C_23  and  N_25
REMARK    7  A    between atoms: C_27  and  C_31
REMARK    8  A    between atoms: C_34  and  C_38
REMARK                            x       y       z     vdW  Elec       q    Type
REMARK                         _______ _______ _______ _____ _____    ______ ____
ROOT
ATOM      1  C   UNL     1      32.915 -12.667 -21.538  0.00  0.00    +0.062 C 
ATOM      2  C   UNL     1      34.335 -14.585 -21.920  0.00  0.00    +0.000 C 
ATOM      3  C   UNL     1      33.870 -13.329 -22.311  0.00  0.00    +0.007 C 
ATOM      4  C   UNL     1      32.426 -13.262 -20.375  0.00  0.00    +0.010 C 
ATOM      5  C   UNL     1      33.845 -15.179 -20.757  0.00  0.00    -0.003 C 
ATOM      6  C   UNL     1      32.891 -14.517 -19.984  0.00  0.00    +0.000 C 
ENDROOT
BRANCH   1  12
ATOM      7  N   UNL     1      31.762 -10.664 -21.015  0.00  0.00    -0.212 NA
ATOM      8  N   UNL     1      32.710 -10.995 -23.205  0.00  0.00    -0.190 NA
ATOM      9  C   UNL     1      31.542  -8.953 -22.694  0.00  0.00    +0.161 C 
ATOM     10  C   UNL     1      31.327  -9.455 -21.427  0.00  0.00    +0.201 C 
ATOM     11  C   UNL     1      32.247  -9.775 -23.549  0.00  0.00    +0.144 C 
ATOM     12  C   UNL     1      32.436 -11.371 -21.941  0.00  0.00    +0.031 C 
BRANCH   9  13
ATOM     13  O   UNL     1      31.086  -7.717 -23.078  0.00  0.00    -0.476 OA
BRANCH  13  14
ATOM     14  C   UNL     1      31.674  -6.591 -22.455  0.00  0.00    +0.205 C 
BRANCH  14  16
ATOM     15  N   UNL     1      34.398  -6.121 -25.775  0.00  0.00    +0.386 N 
ATOM     16  C   UNL     1      32.624  -5.928 -23.448  0.00  0.00    +0.040 C 
ATOM     17  C   UNL     1      32.092  -6.044 -24.881  0.00  0.00    -0.019 C 
ATOM     18  C   UNL     1      34.026  -6.542 -23.365  0.00  0.00    -0.019 C 
ATOM     19  C   UNL     1      33.086  -5.469 -25.892  0.00  0.00    -0.077 C 
ATOM     20  C   UNL     1      34.956  -5.950 -24.427  0.00  0.00    -0.077 C 
ATOM     21  C   UNL     1      35.321  -5.598 -26.782  0.00  0.00    -0.101 C 
ATOM     22  H   UNL     1      34.268  -7.120 -25.938  0.00  0.00    -0.080 HD
ENDBRANCH  14  16
ENDBRANCH  13  14
ENDBRANCH   9  13
ENDBRANCH   1  12
BRANCH   2  23
ATOM     23  C   UNL     1      35.355 -15.293 -22.746  0.00  0.00    +0.146 C 
BRANCH  23  25
ATOM     24  O   UNL     1      34.211 -16.379 -25.139  0.00  0.00    -0.268 OA
ATOM     25  N   UNL     1      35.008 -16.686 -22.977  0.00  0.00    -0.173 N 
ATOM     26  N   UNL     1      35.259 -17.520 -21.925  0.00  0.00    -0.175 NA
ATOM     27  C   UNL     1      34.968 -18.774 -22.056  0.00  0.00    +0.099 C 
ATOM     28  C   UNL     1      34.459 -17.109 -24.178  0.00  0.00    +0.268 C 
ATOM     29  C   UNL     1      34.404 -19.378 -23.278  0.00  0.00    +0.025 C 
ATOM     30  C   UNL     1      34.163 -18.552 -24.294  0.00  0.00    +0.061 C 
BRANCH  27  31
ATOM     31  C   UNL     1      35.232 -19.692 -20.916  0.00  0.00    +0.020 C 
ATOM     32  C   UNL     1      34.174 -20.358 -20.297  0.00  0.00    +0.012 C 
ATOM     33  C   UNL     1      36.538 -19.887 -20.466  0.00  0.00    +0.002 C 
ATOM     34  C   UNL     1      34.423 -21.219 -19.227  0.00  0.00    +0.068 C 
ATOM     35  C   UNL     1      36.787 -20.748 -19.397  0.00  0.00    +0.001 C 
ATOM     36  C   UNL     1      35.729 -21.414 -18.778  0.00  0.00    +0.010 C 
BRANCH  34  38
ATOM     37  N   UNL     1      32.460 -22.455 -18.076  0.00  0.00    -0.191 NA
ATOM     38  C   UNL     1      33.339 -21.901 -18.592  0.00  0.00    +0.100 C 
ENDBRANCH  34  38
ENDBRANCH  27  31
ENDBRANCH  23  25
ENDBRANCH   2  23
TORSDOF 8
ENDMDL
MODEL 5
REMARK VINA RESULT:     -12.9      3.367     13.992
REMARK  Name = 25171648
REMARK  8 active torsions:
REMARK  status: ('A' for Active; 'I' for Inactive)
REMARK    1  A    between atoms: C_1  and  C_12
REMARK    2  A    between atoms: C_2  and  C_23
REMARK    3  A    between atoms: C_9  and  O_13
REMARK    4  A    between atoms: O_13  and  C_14
REMARK    5  A    between atoms: C_14  and  C_16
REMARK    6  A    between atoms: C_23  and  N_25
REMARK    7  A    between atoms: C_27  and  C_31
REMARK    8  A    between atoms: C_34  and  C_38
REMARK                            x       y       z     vdW  Elec       q    Type
REMARK                         _______ _______ _______ _____ _____    ______ ____
ROOT
ATOM      1  C   UNL     1      33.721 -13.437 -22.617  0.00  0.00    +0.062 C 
ATOM      2  C   UNL     1      32.123 -11.672 -22.203  0.00  0.00    +0.000 C 
ATOM      3  C   UNL     1      32.688 -12.897 -21.849  0.00  0.00    +0.007 C 
ATOM      4  C   UNL     1      34.187 -12.751 -23.738  0.00  0.00    +0.010 C 
ATOM      5  C   UNL     1      32.589 -10.987 -23.325  0.00  0.00    -0.003 C 
ATOM      6  C   UNL     1      33.622 -11.526 -24.092  0.00  0.00    +0.000 C 
ENDROOT
BRANCH   1  12
ATOM      7  N   UNL     1      34.716 -15.487 -23.262  0.00  0.00    -0.212 NA
ATOM      8  N   UNL     1      34.380 -14.969 -20.933  0.00  0.00    -0.190 NA
ATOM      9  C   UNL     1      35.393 -17.058 -21.568  0.00  0.00    +0.161 C 
ATOM     10  C   UNL     1      35.258 -16.664 -22.884  0.00  0.00    +0.201 C 
ATOM     11  C   UNL     1      34.932 -16.161 -20.626  0.00  0.00    +0.144 C 
ATOM     12  C   UNL     1      34.304 -14.701 -22.251  0.00  0.00    +0.031 C 
BRANCH   9  13
ATOM     13  O   UNL     1      35.950 -18.264 -21.219  0.00  0.00    -0.476 OA
BRANCH  13  14
ATOM     14  C   UNL     1      35.198 -19.427 -21.504  0.00  0.00    +0.205 C 
BRANCH  14  16
ATOM     15  N   UNL     1      33.855 -22.431 -18.706  0.00  0.00    +0.386 N 
ATOM     16  C   UNL     1      34.793 -20.080 -20.186  0.00  0.00    +0.040 C 
ATOM     17  C   UNL     1      35.710 -21.263 -19.853  0.00  0.00    -0.019 C 
ATOM     18  C   UNL     1      33.336 -20.551 -20.228  0.00  0.00    -0.019 C 
ATOM     19  C   UNL     1      35.250 -21.985 -18.585  0.00  0.00    -0.077 C 
ATOM     20  C   UNL     1      32.954 -21.296 -18.947  0.00  0.00    -0.077 C 
ATOM     21  C   UNL     1      33.447 -23.163 -17.507  0.00  0.00    -0.101 C 
ATOM     22  H   UNL     1      33.794 -23.057 -19.508  0.00  0.00    -0.080 HD
ENDBRANCH  14  16
ENDBRANCH  13  14
ENDBRANCH   9  13
ENDBRANCH   1  12
BRANCH   2  23
ATOM     23  C   UNL     1      31.018 -11.094 -21.383  0.00  0.00    +0.146 C 
BRANCH  23  25
ATOM     24  O   UNL     1      31.577 -10.809 -18.587  0.00  0.00    -0.268 OA
ATOM     25  N   UNL     1      31.414  -9.871 -20.707  0.00  0.00    -0.173 N 
ATOM     26  N   UNL     1      31.507  -8.774 -21.516  0.00  0.00    -0.175 NA
ATOM     27  C   UNL     1      31.848  -7.646 -20.982  0.00  0.00    +0.099 C 
ATOM     28  C   UNL     1      31.665  -9.841 -19.343  0.00  0.00    +0.268 C 
ATOM     29  C   UNL     1      32.170  -7.461 -19.554  0.00  0.00    +0.025 C 
ATOM     30  C   UNL     1      32.073  -8.538 -18.777  0.00  0.00    +0.061 C 
BRANCH  27  31
ATOM     31  C   UNL     1      31.948  -6.444 -21.852  0.00  0.00    +0.020 C 
ATOM     32  C   UNL     1      31.265  -5.277 -21.511  0.00  0.00    +0.012 C 
ATOM     33  C   UNL     1      32.727  -6.483 -23.009  0.00  0.00    +0.002 C 
ATOM     34  C   UNL     1      31.360  -4.149 -22.327  0.00  0.00    +0.068 C 
ATOM     35  C   UNL     1      32.822  -5.356 -23.825  0.00  0.00    +0.001 C 
ATOM     36  C   UNL     1      32.139  -4.189 -23.484  0.00  0.00    +0.010 C 
BRANCH  34  38
ATOM     37  N   UNL     1      30.090  -1.982 -21.697  0.00  0.00    -0.191 NA
ATOM     38  C   UNL     1      30.659  -2.953 -21.980  0.00  0.00    +0.100 C 
ENDBRANCH  34  38
ENDBRANCH  27  31
ENDBRANCH  23  25
ENDBRANCH   2  23
TORSDOF 8
ENDMDL
MODEL 6
REMARK VINA RESULT:     -12.9      2.269      4.520
REMARK  Name = 25171648
REMARK  8 active torsions:
REMARK  status: ('A' for Active; 'I' for Inactive)
REMARK    1  A    between atoms: C_1  and  C_12
REMARK    2  A    between atoms: C_2  and  C_23
REMARK    3  A    between atoms: C_9  and  O_13
REMARK    4  A    between atoms: O_13  and  C_14
REMARK    5  A    between atoms: C_14  and  C_16
REMARK    6  A    between atoms: C_23  and  N_25
REMARK    7  A    between atoms: C_27  and  C_31
REMARK    8  A    between atoms: C_34  and  C_38
REMARK                            x       y       z     vdW  Elec       q    Type
REMARK                         _______ _______ _______ _____ _____    ______ ____
ROOT
ATOM      1  C   UNL     1      35.035 -21.350 -19.014  0.00  0.00    +0.062 C 
ATOM      2  C   UNL     1      35.671 -22.414 -16.940  0.00  0.00    +0.000 C 
ATOM      3  C   UNL     1      35.906 -21.460 -17.931  0.00  0.00    +0.007 C 
ATOM      4  C   UNL     1      33.929 -22.195 -19.107  0.00  0.00    +0.010 C 
ATOM      5  C   UNL     1      34.565 -23.258 -17.033  0.00  0.00    -0.003 C 
ATOM      6  C   UNL     1      33.693 -23.148 -18.116  0.00  0.00    +0.000 C 
ENDROOT
BRANCH   1  12
ATOM      7  N   UNL     1      36.462 -19.729 -19.987  0.00  0.00    -0.212 NA
ATOM      8  N   UNL     1      34.296 -20.183 -20.940  0.00  0.00    -0.190 NA
ATOM      9  C   UNL     1      35.731 -18.531 -21.944  0.00  0.00    +0.161 C 
ATOM     10  C   UNL     1      36.656 -18.814 -20.960  0.00  0.00    +0.201 C 
ATOM     11  C   UNL     1      34.557 -19.255 -21.884  0.00  0.00    +0.144 C 
ATOM     12  C   UNL     1      35.278 -20.366 -20.037  0.00  0.00    +0.031 C 
BRANCH   9  13
ATOM     13  O   UNL     1      35.963 -17.593 -22.919  0.00  0.00    -0.476 OA
BRANCH  13  14
ATOM     14  C   UNL     1      34.865 -17.223 -23.731  0.00  0.00    +0.205 C 
BRANCH  14  16
ATOM     15  N   UNL     1      33.216 -13.274 -23.145  0.00  0.00    +0.386 N 
ATOM     16  C   UNL     1      34.752 -15.702 -23.732  0.00  0.00    +0.040 C 
ATOM     17  C   UNL     1      34.580 -15.161 -22.308  0.00  0.00    -0.019 C 
ATOM     18  C   UNL     1      33.584 -15.236 -24.607  0.00  0.00    -0.019 C 
ATOM     19  C   UNL     1      34.366 -13.646 -22.309  0.00  0.00    -0.077 C 
ATOM     20  C   UNL     1      33.404 -13.718 -24.533  0.00  0.00    -0.077 C 
ATOM     21  C   UNL     1      32.993 -11.829 -23.094  0.00  0.00    -0.101 C 
ATOM     22  H   UNL     1      32.392 -13.745 -22.772  0.00  0.00    -0.080 HD
ENDBRANCH  14  16
ENDBRANCH  13  14
ENDBRANCH   9  13
ENDBRANCH   1  12
BRANCH   2  23
ATOM     23  C   UNL     1      36.602 -22.531 -15.780  0.00  0.00    +0.146 C 
BRANCH  23  25
ATOM     24  O   UNL     1      37.851 -23.104 -13.265  0.00  0.00    -0.268 OA
ATOM     25  N   UNL     1      35.948 -23.065 -14.598  0.00  0.00    -0.173 N 
ATOM     26  N   UNL     1      34.613 -23.312 -14.746  0.00  0.00    -0.175 NA
ATOM     27  C   UNL     1      33.964 -23.796 -13.736  0.00  0.00    +0.099 C 
ATOM     28  C   UNL     1      36.647 -23.305 -13.424  0.00  0.00    +0.268 C 
ATOM     29  C   UNL     1      34.562 -24.080 -12.417  0.00  0.00    +0.025 C 
ATOM     30  C   UNL     1      35.864 -23.836 -12.289  0.00  0.00    +0.061 C 
BRANCH  27  31
ATOM     31  C   UNL     1      32.511 -24.075 -13.886  0.00  0.00    +0.020 C 
ATOM     32  C   UNL     1      31.746 -23.330 -14.784  0.00  0.00    +0.012 C 
ATOM     33  C   UNL     1      31.912 -25.082 -13.128  0.00  0.00    +0.002 C 
ATOM     34  C   UNL     1      30.383 -23.593 -14.924  0.00  0.00    +0.068 C 
ATOM     35  C   UNL     1      30.549 -25.345 -13.268  0.00  0.00    +0.001 C 
ATOM     36  C   UNL     1      29.785 -24.600 -14.166  0.00  0.00    +0.010 C 
BRANCH  34  38
ATOM     37  N   UNL     1      28.962 -22.211 -16.590  0.00  0.00    -0.191 NA
ATOM     38  C   UNL     1      29.599 -22.830 -15.843  0.00  0.00    +0.100 C 
ENDBRANCH  34  38
ENDBRANCH  27  31
ENDBRANCH  23  25
ENDBRANCH   2  23
TORSDOF 8
ENDMDL
MODEL 7
REMARK VINA RESULT:     -12.7      3.381     14.160
REMARK  Name = 25171648
REMARK  8 active torsions:
REMARK  status: ('A' for Active; 'I' for Inactive)
REMARK    1  A    between atoms: C_1  and  C_12
REMARK    2  A    between atoms: C_2  and  C_23
REMARK    3  A    between atoms: C_9  and  O_13
REMARK    4  A    between atoms: O_13  and  C_14
REMARK    5  A    between atoms: C_14  and  C_16
REMARK    6  A    between atoms: C_23  and  N_25
REMARK    7  A    between atoms: C_27  and  C_31
REMARK    8  A    between atoms: C_34  and  C_38
REMARK                            x       y       z     vdW  Elec       q    Type
REMARK                         _______ _______ _______ _____ _____    ______ ____
ROOT
ATOM      1  C   UNL     1      33.711 -13.315 -22.579  0.00  0.00    +0.062 C 
ATOM      2  C   UNL     1      32.327 -11.413 -22.024  0.00  0.00    +0.000 C 
ATOM      3  C   UNL     1      32.876 -12.650 -21.681  0.00  0.00    +0.007 C 
ATOM      4  C   UNL     1      33.996 -12.745 -23.820  0.00  0.00    +0.010 C 
ATOM      5  C   UNL     1      32.613 -10.844 -23.264  0.00  0.00    -0.003 C 
ATOM      6  C   UNL     1      33.448 -11.509 -24.162  0.00  0.00    +0.000 C 
ENDROOT
BRANCH   1  12
ATOM      7  N   UNL     1      34.409 -14.845 -20.910  0.00  0.00    -0.212 NA
ATOM      8  N   UNL     1      34.618 -15.401 -23.246  0.00  0.00    -0.190 NA
ATOM      9  C   UNL     1      35.334 -16.969 -21.566  0.00  0.00    +0.161 C 
ATOM     10  C   UNL     1      34.943 -16.049 -20.615  0.00  0.00    +0.201 C 
ATOM     11  C   UNL     1      35.144 -16.588 -22.879  0.00  0.00    +0.144 C 
ATOM     12  C   UNL     1      34.277 -14.590 -22.225  0.00  0.00    +0.031 C 
BRANCH   9  13
ATOM     13  O   UNL     1      35.873 -18.186 -21.228  0.00  0.00    -0.476 OA
BRANCH  13  14
ATOM     14  C   UNL     1      35.100 -19.335 -21.518  0.00  0.00    +0.205 C 
BRANCH  14  16
ATOM     15  N   UNL     1      33.883 -22.420 -18.750  0.00  0.00    +0.386 N 
ATOM     16  C   UNL     1      34.737 -20.021 -20.204  0.00  0.00    +0.040 C 
ATOM     17  C   UNL     1      35.687 -21.187 -19.911  0.00  0.00    -0.019 C 
ATOM     18  C   UNL     1      33.290 -20.526 -20.227  0.00  0.00    -0.019 C 
ATOM     19  C   UNL     1      35.269 -21.942 -18.647  0.00  0.00    -0.077 C 
ATOM     20  C   UNL     1      32.951 -21.302 -18.953  0.00  0.00    -0.077 C 
ATOM     21  C   UNL     1      33.516 -23.183 -17.557  0.00  0.00    -0.101 C 
ATOM     22  H   UNL     1      33.822 -23.033 -19.562  0.00  0.00    -0.080 HD
ENDBRANCH  14  16
ENDBRANCH  13  14
ENDBRANCH   9  13
ENDBRANCH   1  12
BRANCH   2  23
ATOM     23  C   UNL     1      31.434 -10.701 -21.064  0.00  0.00    +0.146 C 
BRANCH  23  25
ATOM     24  O   UNL     1      32.396  -9.688 -18.562  0.00  0.00    -0.268 OA
ATOM     25  N   UNL     1      31.878  -9.343 -20.801  0.00  0.00    -0.173 N 
ATOM     26  N   UNL     1      31.804  -8.499 -21.873  0.00  0.00    -0.175 NA
ATOM     27  C   UNL     1      32.175  -7.270 -21.711  0.00  0.00    +0.099 C 
ATOM     28  C   UNL     1      32.330  -8.954 -19.548  0.00  0.00    +0.268 C 
ATOM     29  C   UNL     1      32.701  -6.715 -20.450  0.00  0.00    +0.025 C 
ATOM     30  C   UNL     1      32.765  -7.549 -19.413  0.00  0.00    +0.061 C 
BRANCH  27  31
ATOM     31  C   UNL     1      32.094  -6.340 -22.869  0.00  0.00    +0.020 C 
ATOM     32  C   UNL     1      33.227  -6.090 -23.644  0.00  0.00    +0.012 C 
ATOM     33  C   UNL     1      30.884  -5.719 -23.181  0.00  0.00    +0.002 C 
ATOM     34  C   UNL     1      33.149  -5.218 -24.731  0.00  0.00    +0.068 C 
ATOM     35  C   UNL     1      30.807  -4.847 -24.267  0.00  0.00    +0.001 C 
ATOM     36  C   UNL     1      31.939  -4.597 -25.042  0.00  0.00    +0.010 C 
BRANCH  34  38
ATOM     37  N   UNL     1      35.251  -4.750 -26.169  0.00  0.00    -0.191 NA
ATOM     38  C   UNL     1      34.309  -4.960 -25.525  0.00  0.00    +0.100 C 
ENDBRANCH  34  38
ENDBRANCH  27  31
ENDBRANCH  23  25
ENDBRANCH   2  23
TORSDOF 8
ENDMDL
MODEL 8
REMARK VINA RESULT:     -12.6      3.587     14.809
REMARK  Name = 25171648
REMARK  8 active torsions:
REMARK  status: ('A' for Active; 'I' for Inactive)
REMARK    1  A    between atoms: C_1  and  C_12
REMARK    2  A    between atoms: C_2  and  C_23
REMARK    3  A    between atoms: C_9  and  O_13
REMARK    4  A    between atoms: O_13  and  C_14
REMARK    5  A    between atoms: C_14  and  C_16
REMARK    6  A    between atoms: C_23  and  N_25
REMARK    7  A    between atoms: C_27  and  C_31
REMARK    8  A    between atoms: C_34  and  C_38
REMARK                            x       y       z     vdW  Elec       q    Type
REMARK                         _______ _______ _______ _____ _____    ______ ____
ROOT
ATOM      1  C   UNL     1      33.174 -13.161 -21.747  0.00  0.00    +0.062 C 
ATOM      2  C   UNL     1      32.589 -11.103 -22.871  0.00  0.00    +0.000 C 
ATOM      3  C   UNL     1      33.318 -12.293 -22.830  0.00  0.00    +0.007 C 
ATOM      4  C   UNL     1      32.303 -12.839 -20.707  0.00  0.00    +0.010 C 
ATOM      5  C   UNL     1      31.718 -10.782 -21.831  0.00  0.00    -0.003 C 
ATOM      6  C   UNL     1      31.574 -11.651 -20.749  0.00  0.00    +0.000 C 
ENDROOT
BRANCH   1  12
ATOM      7  N   UNL     1      34.280 -14.917 -22.890  0.00  0.00    -0.212 NA
ATOM      8  N   UNL     1      34.200 -14.882 -20.482  0.00  0.00    -0.190 NA
ATOM      9  C   UNL     1      35.329 -16.676 -21.623  0.00  0.00    +0.161 C 
ATOM     10  C   UNL     1      34.984 -16.066 -22.812  0.00  0.00    +0.201 C 
ATOM     11  C   UNL     1      34.906 -16.032 -20.478  0.00  0.00    +0.144 C 
ATOM     12  C   UNL     1      33.926 -14.388 -21.704  0.00  0.00    +0.031 C 
BRANCH   9  13
ATOM     13  O   UNL     1      36.046 -17.845 -21.583  0.00  0.00    -0.476 OA
BRANCH  13  14
ATOM     14  C   UNL     1      35.346 -19.041 -21.867  0.00  0.00    +0.205 C 
BRANCH  14  16
ATOM     15  N   UNL     1      34.007 -22.031 -19.053  0.00  0.00    +0.386 N 
ATOM     16  C   UNL     1      34.919 -19.681 -20.550  0.00  0.00    +0.040 C 
ATOM     17  C   UNL     1      35.860 -20.828 -20.165  0.00  0.00    -0.019 C 
ATOM     18  C   UNL     1      33.479 -20.197 -20.628  0.00  0.00    -0.019 C 
ATOM     19  C   UNL     1      35.383 -21.540 -18.898  0.00  0.00    -0.077 C 
ATOM     20  C   UNL     1      33.080 -20.929 -19.344  0.00  0.00    -0.077 C 
ATOM     21  C   UNL     1      33.583 -22.753 -17.853  0.00  0.00    -0.101 C 
ATOM     22  H   UNL     1      33.990 -22.674 -19.844  0.00  0.00    -0.080 HD
ENDBRANCH  14  16
ENDBRANCH  13  14
ENDBRANCH   9  13
ENDBRANCH   1  12
BRANCH   2  23
ATOM     23  C   UNL     1      32.742 -10.174 -24.028  0.00  0.00    +0.146 C 
BRANCH  23  25
ATOM     24  O   UNL     1      35.569  -9.844 -23.697  0.00  0.00    -0.268 OA
ATOM     25  N   UNL     1      33.426  -8.945 -23.663  0.00  0.00    -0.173 N 
ATOM     26  N   UNL     1      32.606  -7.873 -23.458  0.00  0.00    -0.175 NA
ATOM     27  C   UNL     1      33.145  -6.745 -23.122  0.00  0.00    +0.099 C 
ATOM     28  C   UNL     1      34.806  -8.893 -23.531  0.00  0.00    +0.268 C 
ATOM     29  C   UNL     1      34.596  -6.526 -22.968  0.00  0.00    +0.025 C 
ATOM     30  C   UNL     1      35.382  -7.581 -23.169  0.00  0.00    +0.061 C 
BRANCH  27  31
ATOM     31  C   UNL     1      32.262  -5.571 -22.891  0.00  0.00    +0.020 C 
ATOM     32  C   UNL     1      31.882  -4.761 -23.961  0.00  0.00    +0.012 C 
ATOM     33  C   UNL     1      31.812  -5.281 -21.602  0.00  0.00    +0.002 C 
ATOM     34  C   UNL     1      31.054  -3.661 -23.742  0.00  0.00    +0.068 C 
ATOM     35  C   UNL     1      30.984  -4.180 -21.384  0.00  0.00    +0.001 C 
ATOM     36  C   UNL     1      30.604  -3.370 -22.454  0.00  0.00    +0.010 C 
BRANCH  34  38
ATOM     37  N   UNL     1      30.349  -2.155 -25.729  0.00  0.00    -0.191 NA
ATOM     38  C   UNL     1      30.665  -2.830 -24.838  0.00  0.00    +0.100 C 
ENDBRANCH  34  38
ENDBRANCH  27  31
ENDBRANCH  23  25
ENDBRANCH   2  23
TORSDOF 8
ENDMDL
MODEL 9
REMARK VINA RESULT:     -11.7      2.002     12.219
REMARK  Name = 25171648
REMARK  8 active torsions:
REMARK  status: ('A' for Active; 'I' for Inactive)
REMARK    1  A    between atoms: C_1  and  C_12
REMARK    2  A    between atoms: C_2  and  C_23
REMARK    3  A    between atoms: C_9  and  O_13
REMARK    4  A    between atoms: O_13  and  C_14
REMARK    5  A    between atoms: C_14  and  C_16
REMARK    6  A    between atoms: C_23  and  N_25
REMARK    7  A    between atoms: C_27  and  C_31
REMARK    8  A    between atoms: C_34  and  C_38
REMARK                            x       y       z     vdW  Elec       q    Type
REMARK                         _______ _______ _______ _____ _____    ______ ____
ROOT
ATOM      1  C   UNL     1      35.059 -19.573 -21.361  0.00  0.00    +0.062 C 
ATOM      2  C   UNL     1      35.251 -17.447 -22.493  0.00  0.00    +0.000 C 
ATOM      3  C   UNL     1      35.437 -18.230 -21.354  0.00  0.00    +0.007 C 
ATOM      4  C   UNL     1      34.495 -20.132 -22.508  0.00  0.00    +0.010 C 
ATOM      5  C   UNL     1      34.688 -18.007 -23.640  0.00  0.00    -0.003 C 
ATOM      6  C   UNL     1      34.311 -19.349 -23.648  0.00  0.00    +0.000 C 
ENDROOT
BRANCH   1  12
ATOM      7  N   UNL     1      36.450 -20.290 -19.582  0.00  0.00    -0.212 NA
ATOM      8  N   UNL     1      34.210 -21.148 -19.807  0.00  0.00    -0.190 NA
ATOM      9  C   UNL     1      35.607 -21.888 -17.992  0.00  0.00    +0.161 C 
ATOM     10  C   UNL     1      36.595 -21.060 -18.484  0.00  0.00    +0.201 C 
ATOM     11  C   UNL     1      34.423 -21.891 -18.701  0.00  0.00    +0.144 C 
ATOM     12  C   UNL     1      35.251 -20.381 -20.185  0.00  0.00    +0.031 C 
BRANCH   9  13
ATOM     13  O   UNL     1      35.789 -22.658 -16.870  0.00  0.00    -0.476 OA
BRANCH  13  14
ATOM     14  C   UNL     1      34.627 -23.147 -16.229  0.00  0.00    +0.205 C 
BRANCH  14  16
ATOM     15  N   UNL     1      35.576 -23.528 -12.032  0.00  0.00    +0.386 N 
ATOM     16  C   UNL     1      35.033 -23.783 -14.903  0.00  0.00    +0.040 C 
ATOM     17  C   UNL     1      33.915 -23.647 -13.862  0.00  0.00    -0.019 C 
ATOM     18  C   UNL     1      36.322 -23.155 -14.362  0.00  0.00    -0.019 C 
ATOM     19  C   UNL     1      34.352 -24.192 -12.501  0.00  0.00    -0.077 C 
ATOM     20  C   UNL     1      36.679 -23.717 -12.984  0.00  0.00    -0.077 C 
ATOM     21  C   UNL     1      35.952 -24.023 -10.708  0.00  0.00    -0.101 C 
ATOM     22  H   UNL     1      35.385 -22.528 -11.966  0.00  0.00    -0.080 HD
ENDBRANCH  14  16
ENDBRANCH  13  14
ENDBRANCH   9  13
ENDBRANCH   1  12
BRANCH   2  23
ATOM     23  C   UNL     1      35.655 -16.011 -22.486  0.00  0.00    +0.146 C 
BRANCH  23  25
ATOM     24  O   UNL     1      34.713 -16.075 -25.192  0.00  0.00    -0.268 OA
ATOM     25  N   UNL     1      34.637 -15.148 -23.062  0.00  0.00    -0.173 N 
ATOM     26  N   UNL     1      34.113 -14.228 -22.200  0.00  0.00    -0.175 NA
ATOM     27  C   UNL     1      33.206 -13.419 -22.645  0.00  0.00    +0.099 C 
ATOM     28  C   UNL     1      34.251 -15.264 -24.389  0.00  0.00    +0.268 C 
ATOM     29  C   UNL     1      32.674 -13.436 -24.021  0.00  0.00    +0.025 C 
ATOM     30  C   UNL     1      33.197 -14.337 -24.851  0.00  0.00    +0.061 C 
BRANCH  27  31
ATOM     31  C   UNL     1      32.631 -12.409 -21.718  0.00  0.00    +0.020 C 
ATOM     32  C   UNL     1      32.337 -11.125 -22.179  0.00  0.00    +0.012 C 
ATOM     33  C   UNL     1      32.384 -12.745 -20.386  0.00  0.00    +0.002 C 
ATOM     34  C   UNL     1      31.797 -10.178 -21.308  0.00  0.00    +0.068 C 
ATOM     35  C   UNL     1      31.844 -11.798 -19.516  0.00  0.00    +0.001 C 
ATOM     36  C   UNL     1      31.551 -10.515 -19.976  0.00  0.00    +0.010 C 
BRANCH  34  38
ATOM     37  N   UNL     1      31.253  -7.795 -22.161  0.00  0.00    -0.191 NA
ATOM     38  C   UNL     1      31.497  -8.863 -21.779  0.00  0.00    +0.100 C 
ENDBRANCH  34  38
ENDBRANCH  27  31
ENDBRANCH  23  25
ENDBRANCH   2  23
TORSDOF 8
ENDMDL
