MODEL 1
REMARK VINA RESULT:     -11.9      0.000      0.000
REMARK  Name = 11691242
REMARK  5 active torsions:
REMARK  status: ('A' for Active; 'I' for Inactive)
REMARK    1  A    between atoms: N_1  and  C_25
REMARK    2  A    between atoms: C_5  and  N_11
REMARK    3  A    between atoms: N_12  and  C_17
REMARK    4  A    between atoms: C_18  and  O_23
REMARK    5  A    between atoms: C_25  and  C_28
REMARK                            x       y       z     vdW  Elec       q    Type
REMARK                         _______ _______ _______ _____ _____    ______ ____
ROOT
ATOM      1  N   UNL     1      35.267 -16.592 -21.981  0.00  0.00    -0.282 N 
ATOM      2  C   UNL     1      34.594 -15.912 -22.970  0.00  0.00    +0.053 C 
ATOM      3  C   UNL     1      33.928 -14.848 -22.357  0.00  0.00    +0.028 C 
ATOM      4  C   UNL     1      35.051 -15.997 -20.767  0.00  0.00    +0.066 C 
ATOM      5  C   UNL     1      33.154 -13.982 -23.154  0.00  0.00    +0.053 C 
ATOM      6  C   UNL     1      34.225 -14.915 -20.966  0.00  0.00    +0.019 C 
ATOM      7  C   UNL     1      34.524 -16.153 -24.346  0.00  0.00    +0.015 C 
ATOM      8  C   UNL     1      33.074 -14.212 -24.533  0.00  0.00    +0.015 C 
ATOM      9  C   UNL     1      33.750 -15.281 -25.118  0.00  0.00    +0.003 C 
ENDROOT
BRANCH   5  11
ATOM     10  O   UNL     1      33.747 -11.056 -23.256  0.00  0.00    -0.252 OA
ATOM     11  N   UNL     1      32.468 -12.904 -22.593  0.00  0.00    -0.268 N 
ATOM     12  N   UNL     1      31.824 -10.780 -21.954  0.00  0.00    -0.266 N 
ATOM     13  C   UNL     1      32.780 -11.525 -22.663  0.00  0.00    +0.308 C 
ATOM     14  H   UNL     1      31.659 -13.132 -22.080  0.00  0.00    +0.156 HD
ATOM     15  H   UNL     1      31.103 -11.297 -21.529  0.00  0.00    +0.157 HD
BRANCH  12  17
ATOM     16 BR   UNL     1      31.043  -6.087 -24.199  0.00  0.00    -0.049 Br
ATOM     17  C   UNL     1      31.768  -9.377 -21.778  0.00  0.00    +0.086 C 
ATOM     18  C   UNL     1      31.998  -8.827 -20.527  0.00  0.00    +0.152 C 
ATOM     19  C   UNL     1      31.482  -8.579 -22.874  0.00  0.00    +0.024 C 
ATOM     20  C   UNL     1      31.940  -7.443 -20.368  0.00  0.00    +0.039 C 
ATOM     21  C   UNL     1      31.425  -7.194 -22.715  0.00  0.00    +0.036 C 
ATOM     22  C   UNL     1      31.653  -6.626 -21.463  0.00  0.00    +0.010 C 
BRANCH  18  23
ATOM     23  O   UNL     1      32.281  -9.607 -19.446  0.00  0.00    -0.470 OA
ATOM     24  C   UNL     1      31.183 -10.000 -18.625  0.00  0.00    +0.253 C 
ENDBRANCH  18  23
ENDBRANCH  12  17
ENDBRANCH   5  11
BRANCH   1  25
ATOM     25  C   UNL     1      36.086 -17.769 -22.178  0.00  0.00    +0.122 C 
BRANCH  25  28
ATOM     26  N   UNL     1      34.992 -20.910 -19.475  0.00  0.00    -0.230 NA
ATOM     27  N   UNL     1      32.724 -20.700 -20.172  0.00  0.00    -0.343 N 
ATOM     28  C   UNL     1      35.701 -18.871 -21.229  0.00  0.00    +0.002 C 
ATOM     29  C   UNL     1      34.380 -19.272 -21.144  0.00  0.00    +0.031 C 
ATOM     30  C   UNL     1      36.674 -19.473 -20.451  0.00  0.00    +0.018 C 
ATOM     31  C   UNL     1      34.078 -20.291 -20.256  0.00  0.00    +0.125 C 
ATOM     32  C   UNL     1      36.270 -20.484 -19.594  0.00  0.00    +0.100 C 
ATOM     33  H   UNL     1      32.465 -21.421 -19.554  0.00  0.00    +0.144 HD
ATOM     34  H   UNL     1      32.042 -20.263 -20.733  0.00  0.00    +0.144 HD
ENDBRANCH  25  28
ENDBRANCH   1  25
TORSDOF 5
ENDMDL
MODEL 2
REMARK VINA RESULT:     -10.9      5.710      9.742
REMARK  Name = 11691242
REMARK  5 active torsions:
REMARK  status: ('A' for Active; 'I' for Inactive)
REMARK    1  A    between atoms: N_1  and  C_25
REMARK    2  A    between atoms: C_5  and  N_11
REMARK    3  A    between atoms: N_12  and  C_17
REMARK    4  A    between atoms: C_18  and  O_23
REMARK    5  A    between atoms: C_25  and  C_28
REMARK                            x       y       z     vdW  Elec       q    Type
REMARK                         _______ _______ _______ _____ _____    ______ ____
ROOT
ATOM      1  N   UNL     1      36.281 -22.792 -15.235  0.00  0.00    -0.282 N 
ATOM      2  C   UNL     1      35.390 -22.778 -16.284  0.00  0.00    +0.053 C 
ATOM      3  C   UNL     1      35.872 -21.862 -17.221  0.00  0.00    +0.028 C 
ATOM      4  C   UNL     1      37.306 -21.917 -15.475  0.00  0.00    +0.066 C 
ATOM      5  C   UNL     1      35.139 -21.653 -18.406  0.00  0.00    +0.053 C 
ATOM      6  C   UNL     1      37.082 -21.325 -16.696  0.00  0.00    +0.019 C 
ATOM      7  C   UNL     1      34.207 -23.500 -16.474  0.00  0.00    +0.015 C 
ATOM      8  C   UNL     1      33.952 -22.368 -18.609  0.00  0.00    +0.015 C 
ATOM      9  C   UNL     1      33.496 -23.277 -17.657  0.00  0.00    +0.003 C 
ENDROOT
BRANCH   5  11
ATOM     10  O   UNL     1      33.585 -19.752 -20.107  0.00  0.00    -0.252 OA
ATOM     11  N   UNL     1      35.575 -20.748 -19.375  0.00  0.00    -0.268 N 
ATOM     12  N   UNL     1      35.646 -19.126 -21.017  0.00  0.00    -0.266 N 
ATOM     13  C   UNL     1      34.806 -19.859 -20.164  0.00  0.00    +0.308 C 
ATOM     14  H   UNL     1      36.547 -20.725 -19.531  0.00  0.00    +0.156 HD
ATOM     15  H   UNL     1      36.608 -19.323 -20.949  0.00  0.00    +0.157 HD
BRANCH  12  17
ATOM     16 BR   UNL     1      34.636 -14.040 -21.901  0.00  0.00    -0.049 Br
ATOM     17  C   UNL     1      35.280 -18.137 -21.961  0.00  0.00    +0.086 C 
ATOM     18  C   UNL     1      35.044 -18.493 -23.280  0.00  0.00    +0.152 C 
ATOM     19  C   UNL     1      35.165 -16.823 -21.539  0.00  0.00    +0.024 C 
ATOM     20  C   UNL     1      34.684 -17.509 -24.199  0.00  0.00    +0.039 C 
ATOM     21  C   UNL     1      34.805 -15.838 -22.458  0.00  0.00    +0.036 C 
ATOM     22  C   UNL     1      34.565 -16.181 -23.789  0.00  0.00    +0.010 C 
BRANCH  18  23
ATOM     23  O   UNL     1      35.154 -19.785 -23.700  0.00  0.00    -0.470 OA
ATOM     24  C   UNL     1      34.289 -20.200 -24.755  0.00  0.00    +0.253 C 
ENDBRANCH  18  23
ENDBRANCH  12  17
ENDBRANCH   5  11
BRANCH   1  25
ATOM     25  C   UNL     1      36.163 -23.603 -14.042  0.00  0.00    +0.122 C 
BRANCH  25  28
ATOM     26  N   UNL     1      38.373 -27.256 -14.405  0.00  0.00    -0.230 NA
ATOM     27  N   UNL     1      40.330 -26.132 -13.644  0.00  0.00    -0.343 N 
ATOM     28  C   UNL     1      36.940 -24.885 -14.170  0.00  0.00    +0.002 C 
ATOM     29  C   UNL     1      38.284 -24.907 -13.845  0.00  0.00    +0.031 C 
ATOM     30  C   UNL     1      36.300 -26.029 -14.611  0.00  0.00    +0.018 C 
ATOM     31  C   UNL     1      38.954 -26.112 -13.979  0.00  0.00    +0.125 C 
ATOM     32  C   UNL     1      37.058 -27.185 -14.711  0.00  0.00    +0.100 C 
ATOM     33  H   UNL     1      40.844 -26.967 -13.724  0.00  0.00    +0.144 HD
ATOM     34  H   UNL     1      40.772 -25.309 -13.330  0.00  0.00    +0.144 HD
ENDBRANCH  25  28
ENDBRANCH   1  25
TORSDOF 5
ENDMDL
MODEL 3
REMARK VINA RESULT:     -10.8      6.915     12.396
REMARK  Name = 11691242
REMARK  5 active torsions:
REMARK  status: ('A' for Active; 'I' for Inactive)
REMARK    1  A    between atoms: N_1  and  C_25
REMARK    2  A    between atoms: C_5  and  N_11
REMARK    3  A    between atoms: N_12  and  C_17
REMARK    4  A    between atoms: C_18  and  O_23
REMARK    5  A    between atoms: C_25  and  C_28
REMARK                            x       y       z     vdW  Elec       q    Type
REMARK                         _______ _______ _______ _____ _____    ______ ____
ROOT
ATOM      1  N   UNL     1      35.915 -18.944 -21.350  0.00  0.00    -0.282 N 
ATOM      2  C   UNL     1      35.182 -19.830 -20.593  0.00  0.00    +0.053 C 
ATOM      3  C   UNL     1      36.052 -20.381 -19.649  0.00  0.00    +0.028 C 
ATOM      4  C   UNL     1      37.213 -18.916 -20.919  0.00  0.00    +0.066 C 
ATOM      5  C   UNL     1      35.551 -21.330 -18.737  0.00  0.00    +0.053 C 
ATOM      6  C   UNL     1      37.331 -19.795 -19.868  0.00  0.00    +0.019 C 
ATOM      7  C   UNL     1      33.831 -20.183 -20.670  0.00  0.00    +0.015 C 
ATOM      8  C   UNL     1      34.200 -21.693 -18.802  0.00  0.00    +0.015 C 
ATOM      9  C   UNL     1      33.355 -21.127 -19.755  0.00  0.00    +0.003 C 
ENDROOT
BRANCH   5  11
ATOM     10  O   UNL     1      34.867 -22.565 -16.105  0.00  0.00    -0.252 OA
ATOM     11  N   UNL     1      36.376 -21.911 -17.774  0.00  0.00    -0.268 N 
ATOM     12  N   UNL     1      37.161 -22.958 -15.870  0.00  0.00    -0.266 N 
ATOM     13  C   UNL     1      36.015 -22.489 -16.533  0.00  0.00    +0.308 C 
ATOM     14  H   UNL     1      37.338 -21.921 -17.985  0.00  0.00    +0.156 HD
ATOM     15  H   UNL     1      38.015 -22.826 -16.340  0.00  0.00    +0.157 HD
BRANCH  12  17
ATOM     16 BR   UNL     1      34.740 -24.050 -11.330  0.00  0.00    -0.049 Br
ATOM     17  C   UNL     1      37.238 -23.598 -14.610  0.00  0.00    +0.086 C 
ATOM     18  C   UNL     1      38.388 -24.284 -14.251  0.00  0.00    +0.152 C 
ATOM     19  C   UNL     1      36.149 -23.522 -13.757  0.00  0.00    +0.024 C 
ATOM     20  C   UNL     1      38.449 -24.910 -13.007  0.00  0.00    +0.039 C 
ATOM     21  C   UNL     1      36.211 -24.148 -12.511  0.00  0.00    +0.036 C 
ATOM     22  C   UNL     1      37.361 -24.842 -12.137  0.00  0.00    +0.010 C 
BRANCH  18  23
ATOM     23  O   UNL     1      39.462 -24.361 -15.087  0.00  0.00    -0.470 OA
ATOM     24  C   UNL     1      40.418 -25.386 -14.822  0.00  0.00    +0.253 C 
ENDBRANCH  18  23
ENDBRANCH  12  17
ENDBRANCH   5  11
BRANCH   1  25
ATOM     25  C   UNL     1      35.402 -18.153 -22.449  0.00  0.00    +0.122 C 
BRANCH  25  28
ATOM     26  N   UNL     1      34.428 -14.174 -21.191  0.00  0.00    -0.230 NA
ATOM     27  N   UNL     1      34.294 -13.501 -23.472  0.00  0.00    -0.343 N 
ATOM     28  C   UNL     1      35.061 -16.756 -22.008  0.00  0.00    +0.002 C 
ATOM     29  C   UNL     1      34.837 -15.774 -22.956  0.00  0.00    +0.031 C 
ATOM     30  C   UNL     1      34.974 -16.468 -20.658  0.00  0.00    +0.018 C 
ATOM     31  C   UNL     1      34.525 -14.504 -22.498  0.00  0.00    +0.125 C 
ATOM     32  C   UNL     1      34.656 -15.167 -20.302  0.00  0.00    +0.100 C 
ATOM     33  H   UNL     1      34.069 -12.585 -23.191  0.00  0.00    +0.144 HD
ATOM     34  H   UNL     1      34.358 -13.721 -24.430  0.00  0.00    +0.144 HD
ENDBRANCH  25  28
ENDBRANCH   1  25
TORSDOF 5
ENDMDL
MODEL 4
REMARK VINA RESULT:     -10.3      1.667      2.155
REMARK  Name = 11691242
REMARK  5 active torsions:
REMARK  status: ('A' for Active; 'I' for Inactive)
REMARK    1  A    between atoms: N_1  and  C_25
REMARK    2  A    between atoms: C_5  and  N_11
REMARK    3  A    between atoms: N_12  and  C_17
REMARK    4  A    between atoms: C_18  and  O_23
REMARK    5  A    between atoms: C_25  and  C_28
REMARK                            x       y       z     vdW  Elec       q    Type
REMARK                         _______ _______ _______ _____ _____    ______ ____
ROOT
ATOM      1  N   UNL     1      35.322 -17.853 -21.882  0.00  0.00    -0.282 N 
ATOM      2  C   UNL     1      34.846 -17.059 -22.901  0.00  0.00    +0.053 C 
ATOM      3  C   UNL     1      34.663 -15.779 -22.374  0.00  0.00    +0.028 C 
ATOM      4  C   UNL     1      35.445 -17.121 -20.731  0.00  0.00    +0.066 C 
ATOM      5  C   UNL     1      34.177 -14.760 -23.217  0.00  0.00    +0.053 C 
ATOM      6  C   UNL     1      35.044 -15.833 -21.003  0.00  0.00    +0.019 C 
ATOM      7  C   UNL     1      34.567 -17.373 -24.235  0.00  0.00    +0.015 C 
ATOM      8  C   UNL     1      33.894 -15.060 -24.555  0.00  0.00    +0.015 C 
ATOM      9  C   UNL     1      34.087 -16.346 -25.055  0.00  0.00    +0.003 C 
ENDROOT
BRANCH   5  11
ATOM     10  O   UNL     1      32.958 -12.384 -24.555  0.00  0.00    -0.252 OA
ATOM     11  N   UNL     1      33.976 -13.464 -22.742  0.00  0.00    -0.268 N 
ATOM     12  N   UNL     1      33.386 -11.238 -22.562  0.00  0.00    -0.266 N 
ATOM     13  C   UNL     1      33.392 -12.359 -23.408  0.00  0.00    +0.308 C 
ATOM     14  H   UNL     1      34.280 -13.294 -21.820  0.00  0.00    +0.156 HD
ATOM     15  H   UNL     1      33.770 -11.371 -21.666  0.00  0.00    +0.157 HD
BRANCH  12  17
ATOM     16 BR   UNL     1      34.512  -6.341 -24.117  0.00  0.00    -0.049 Br
ATOM     17  C   UNL     1      32.894  -9.941 -22.840  0.00  0.00    +0.086 C 
ATOM     18  C   UNL     1      31.544  -9.664 -22.684  0.00  0.00    +0.152 C 
ATOM     19  C   UNL     1      33.784  -8.968 -23.265  0.00  0.00    +0.024 C 
ATOM     20  C   UNL     1      31.074  -8.381 -22.962  0.00  0.00    +0.039 C 
ATOM     21  C   UNL     1      33.313  -7.684 -23.542  0.00  0.00    +0.036 C 
ATOM     22  C   UNL     1      31.959  -7.391 -23.391  0.00  0.00    +0.010 C 
BRANCH  18  23
ATOM     23  O   UNL     1      30.665 -10.617 -22.265  0.00  0.00    -0.470 OA
ATOM     24  C   UNL     1      30.547 -10.815 -20.857  0.00  0.00    +0.253 C 
ENDBRANCH  18  23
ENDBRANCH  12  17
ENDBRANCH   5  11
BRANCH   1  25
ATOM     25  C   UNL     1      35.645 -19.259 -21.992  0.00  0.00    +0.122 C 
BRANCH  25  28
ATOM     26  N   UNL     1      33.968 -21.507 -18.751  0.00  0.00    -0.230 NA
ATOM     27  N   UNL     1      36.166 -22.024 -17.991  0.00  0.00    -0.343 N 
ATOM     28  C   UNL     1      35.057 -20.049 -20.854  0.00  0.00    +0.002 C 
ATOM     29  C   UNL     1      35.896 -20.673 -19.948  0.00  0.00    +0.031 C 
ATOM     30  C   UNL     1      33.683 -20.142 -20.726  0.00  0.00    +0.018 C 
ATOM     31  C   UNL     1      35.304 -21.387 -18.918  0.00  0.00    +0.125 C 
ATOM     32  C   UNL     1      33.190 -20.879 -19.661  0.00  0.00    +0.100 C 
ATOM     33  H   UNL     1      35.789 -22.541 -17.244  0.00  0.00    +0.144 HD
ATOM     34  H   UNL     1      37.143 -21.948 -18.095  0.00  0.00    +0.144 HD
ENDBRANCH  25  28
ENDBRANCH   1  25
TORSDOF 5
ENDMDL
MODEL 5
REMARK VINA RESULT:     -10.3      6.887     12.072
REMARK  Name = 11691242
REMARK  5 active torsions:
REMARK  status: ('A' for Active; 'I' for Inactive)
REMARK    1  A    between atoms: N_1  and  C_25
REMARK    2  A    between atoms: C_5  and  N_11
REMARK    3  A    between atoms: N_12  and  C_17
REMARK    4  A    between atoms: C_18  and  O_23
REMARK    5  A    between atoms: C_25  and  C_28
REMARK                            x       y       z     vdW  Elec       q    Type
REMARK                         _______ _______ _______ _____ _____    ______ ____
ROOT
ATOM      1  N   UNL     1      35.826 -18.841 -21.949  0.00  0.00    -0.282 N 
ATOM      2  C   UNL     1      35.093 -19.628 -21.090  0.00  0.00    +0.053 C 
ATOM      3  C   UNL     1      35.947 -20.009 -20.053  0.00  0.00    +0.028 C 
ATOM      4  C   UNL     1      37.110 -18.713 -21.493  0.00  0.00    +0.066 C 
ATOM      5  C   UNL     1      35.443 -20.829 -19.025  0.00  0.00    +0.053 C 
ATOM      6  C   UNL     1      37.217 -19.425 -20.321  0.00  0.00    +0.019 C 
ATOM      7  C   UNL     1      33.754 -20.026 -21.150  0.00  0.00    +0.015 C 
ATOM      8  C   UNL     1      34.104 -21.237 -19.071  0.00  0.00    +0.015 C 
ATOM      9  C   UNL     1      33.274 -20.840 -20.118  0.00  0.00    +0.003 C 
ENDROOT
BRANCH   5  11
ATOM     10  O   UNL     1      35.137 -23.129 -17.143  0.00  0.00    -0.252 OA
ATOM     11  N   UNL     1      36.253 -21.240 -17.965  0.00  0.00    -0.268 N 
ATOM     12  N   UNL     1      37.128 -22.390 -16.164  0.00  0.00    -0.266 N 
ATOM     13  C   UNL     1      36.075 -22.340 -17.091  0.00  0.00    +0.308 C 
ATOM     14  H   UNL     1      37.055 -20.692 -17.803  0.00  0.00    +0.156 HD
ATOM     15  H   UNL     1      37.811 -21.686 -16.247  0.00  0.00    +0.157 HD
BRANCH  12  17
ATOM     16 BR   UNL     1      40.337 -25.958 -14.009  0.00  0.00    -0.049 Br
ATOM     17  C   UNL     1      37.328 -23.329 -15.124  0.00  0.00    +0.086 C 
ATOM     18  C   UNL     1      36.345 -23.520 -14.165  0.00  0.00    +0.152 C 
ATOM     19  C   UNL     1      38.516 -24.041 -15.089  0.00  0.00    +0.024 C 
ATOM     20  C   UNL     1      36.557 -24.448 -13.146  0.00  0.00    +0.039 C 
ATOM     21  C   UNL     1      38.727 -24.970 -14.070  0.00  0.00    +0.036 C 
ATOM     22  C   UNL     1      37.748 -25.173 -13.098  0.00  0.00    +0.010 C 
BRANCH  18  23
ATOM     23  O   UNL     1      35.175 -22.822 -14.195  0.00  0.00    -0.470 OA
ATOM     24  C   UNL     1      33.979 -23.549 -13.919  0.00  0.00    +0.253 C 
ENDBRANCH  18  23
ENDBRANCH  12  17
ENDBRANCH   5  11
BRANCH   1  25
ATOM     25  C   UNL     1      35.328 -18.234 -23.165  0.00  0.00    +0.122 C 
BRANCH  25  28
ATOM     26  N   UNL     1      34.217 -14.143 -22.533  0.00  0.00    -0.230 NA
ATOM     27  N   UNL     1      34.655 -14.399 -20.205  0.00  0.00    -0.343 N 
ATOM     28  C   UNL     1      34.937 -16.798 -22.942  0.00  0.00    +0.002 C 
ATOM     29  C   UNL     1      34.978 -16.267 -21.666  0.00  0.00    +0.031 C 
ATOM     30  C   UNL     1      34.541 -16.024 -24.018  0.00  0.00    +0.018 C 
ATOM     31  C   UNL     1      34.610 -14.940 -21.514  0.00  0.00    +0.125 C 
ATOM     32  C   UNL     1      34.192 -14.707 -23.762  0.00  0.00    +0.100 C 
ATOM     33  H   UNL     1      34.402 -13.460 -20.053  0.00  0.00    +0.144 HD
ATOM     34  H   UNL     1      34.940 -14.962 -19.450  0.00  0.00    +0.144 HD
ENDBRANCH  25  28
ENDBRANCH   1  25
TORSDOF 5
ENDMDL
MODEL 6
REMARK VINA RESULT:     -10.0      1.509      2.147
REMARK  Name = 11691242
REMARK  5 active torsions:
REMARK  status: ('A' for Active; 'I' for Inactive)
REMARK    1  A    between atoms: N_1  and  C_25
REMARK    2  A    between atoms: C_5  and  N_11
REMARK    3  A    between atoms: N_12  and  C_17
REMARK    4  A    between atoms: C_18  and  O_23
REMARK    5  A    between atoms: C_25  and  C_28
REMARK                            x       y       z     vdW  Elec       q    Type
REMARK                         _______ _______ _______ _____ _____    ______ ____
ROOT
ATOM      1  N   UNL     1      35.364 -16.785 -22.056  0.00  0.00    -0.282 N 
ATOM      2  C   UNL     1      34.701 -16.131 -23.069  0.00  0.00    +0.053 C 
ATOM      3  C   UNL     1      34.118 -14.991 -22.511  0.00  0.00    +0.028 C 
ATOM      4  C   UNL     1      35.220 -16.100 -20.879  0.00  0.00    +0.066 C 
ATOM      5  C   UNL     1      33.371 -14.133 -23.342  0.00  0.00    +0.053 C 
ATOM      6  C   UNL     1      34.454 -14.985 -21.127  0.00  0.00    +0.019 C 
ATOM      7  C   UNL     1      34.574 -16.457 -24.424  0.00  0.00    +0.015 C 
ATOM      8  C   UNL     1      33.235 -14.447 -24.700  0.00  0.00    +0.015 C 
ATOM      9  C   UNL     1      33.828 -15.591 -25.230  0.00  0.00    +0.003 C 
ENDROOT
BRANCH   5  11
ATOM     10  O   UNL     1      34.145 -11.263 -23.637  0.00  0.00    -0.252 OA
ATOM     11  N   UNL     1      32.768 -12.981 -22.836  0.00  0.00    -0.268 N 
ATOM     12  N   UNL     1      32.274 -10.786 -22.318  0.00  0.00    -0.266 N 
ATOM     13  C   UNL     1      33.165 -11.632 -22.997  0.00  0.00    +0.308 C 
ATOM     14  H   UNL     1      31.958 -13.126 -22.294  0.00  0.00    +0.156 HD
ATOM     15  H   UNL     1      31.532 -11.228 -21.847  0.00  0.00    +0.157 HD
BRANCH  12  17
ATOM     16 BR   UNL     1      33.135  -6.587 -19.268  0.00  0.00    -0.049 Br
ATOM     17  C   UNL     1      32.311  -9.374 -22.229  0.00  0.00    +0.086 C 
ATOM     18  C   UNL     1      32.014  -8.601 -23.341  0.00  0.00    +0.152 C 
ATOM     19  C   UNL     1      32.646  -8.792 -21.017  0.00  0.00    +0.024 C 
ATOM     20  C   UNL     1      32.055  -7.212 -23.238  0.00  0.00    +0.039 C 
ATOM     21  C   UNL     1      32.686  -7.401 -20.914  0.00  0.00    +0.036 C 
ATOM     22  C   UNL     1      32.391  -6.611 -22.024  0.00  0.00    +0.010 C 
BRANCH  18  23
ATOM     23  O   UNL     1      31.682  -9.169 -24.535  0.00  0.00    -0.470 OA
ATOM     24  C   UNL     1      31.997  -8.430 -25.714  0.00  0.00    +0.253 C 
ENDBRANCH  18  23
ENDBRANCH  12  17
ENDBRANCH   5  11
BRANCH   1  25
ATOM     25  C   UNL     1      36.105 -18.020 -22.195  0.00  0.00    +0.122 C 
BRANCH  25  28
ATOM     26  N   UNL     1      34.789 -20.968 -19.377  0.00  0.00    -0.230 NA
ATOM     27  N   UNL     1      32.547 -20.658 -20.122  0.00  0.00    -0.343 N 
ATOM     28  C   UNL     1      35.642 -19.054 -21.206  0.00  0.00    +0.002 C 
ATOM     29  C   UNL     1      34.298 -19.373 -21.126  0.00  0.00    +0.031 C 
ATOM     30  C   UNL     1      36.566 -19.676 -20.385  0.00  0.00    +0.018 C 
ATOM     31  C   UNL     1      33.924 -20.333 -20.200  0.00  0.00    +0.125 C 
ATOM     32  C   UNL     1      36.091 -20.622 -19.491  0.00  0.00    +0.100 C 
ATOM     33  H   UNL     1      32.237 -21.335 -19.478  0.00  0.00    +0.144 HD
ATOM     34  H   UNL     1      31.901 -20.208 -20.713  0.00  0.00    +0.144 HD
ENDBRANCH  25  28
ENDBRANCH   1  25
TORSDOF 5
ENDMDL
MODEL 7
REMARK VINA RESULT:      -9.8      3.221      6.110
REMARK  Name = 11691242
REMARK  5 active torsions:
REMARK  status: ('A' for Active; 'I' for Inactive)
REMARK    1  A    between atoms: N_1  and  C_25
REMARK    2  A    between atoms: C_5  and  N_11
REMARK    3  A    between atoms: N_12  and  C_17
REMARK    4  A    between atoms: C_18  and  O_23
REMARK    5  A    between atoms: C_25  and  C_28
REMARK                            x       y       z     vdW  Elec       q    Type
REMARK                         _______ _______ _______ _____ _____    ______ ____
ROOT
ATOM      1  N   UNL     1      34.314 -21.688 -19.397  0.00  0.00    -0.282 N 
ATOM      2  C   UNL     1      35.271 -20.780 -19.790  0.00  0.00    +0.053 C 
ATOM      3  C   UNL     1      34.611 -19.759 -20.479  0.00  0.00    +0.028 C 
ATOM      4  C   UNL     1      33.076 -21.278 -19.812  0.00  0.00    +0.066 C 
ATOM      5  C   UNL     1      35.369 -18.690 -20.996  0.00  0.00    +0.053 C 
ATOM      6  C   UNL     1      33.226 -20.087 -20.485  0.00  0.00    +0.019 C 
ATOM      7  C   UNL     1      36.656 -20.784 -19.592  0.00  0.00    +0.015 C 
ATOM      8  C   UNL     1      36.756 -18.680 -20.805  0.00  0.00    +0.015 C 
ATOM      9  C   UNL     1      37.387 -19.712 -20.113  0.00  0.00    +0.003 C 
ENDROOT
BRANCH   5  11
ATOM     10  O   UNL     1      34.917 -15.848 -20.196  0.00  0.00    -0.252 OA
ATOM     11  N   UNL     1      34.760 -17.644 -21.691  0.00  0.00    -0.268 N 
ATOM     12  N   UNL     1      33.906 -15.583 -22.288  0.00  0.00    -0.266 N 
ATOM     13  C   UNL     1      34.563 -16.304 -21.278  0.00  0.00    +0.308 C 
ATOM     14  H   UNL     1      34.423 -17.868 -22.589  0.00  0.00    +0.156 HD
ATOM     15  H   UNL     1      33.685 -16.087 -23.104  0.00  0.00    +0.157 HD
BRANCH  12  17
ATOM     16 BR   UNL     1      31.999 -11.567 -19.476  0.00  0.00    -0.049 Br
ATOM     17  C   UNL     1      33.524 -14.221 -22.277  0.00  0.00    +0.086 C 
ATOM     18  C   UNL     1      33.633 -13.461 -23.431  0.00  0.00    +0.152 C 
ATOM     19  C   UNL     1      33.044 -13.673 -21.098  0.00  0.00    +0.024 C 
ATOM     20  C   UNL     1      33.252 -12.120 -23.405  0.00  0.00    +0.039 C 
ATOM     21  C   UNL     1      32.663 -12.332 -21.072  0.00  0.00    +0.036 C 
ATOM     22  C   UNL     1      32.767 -11.555 -22.226  0.00  0.00    +0.010 C 
BRANCH  18  23
ATOM     23  O   UNL     1      34.103 -13.996 -24.594  0.00  0.00    -0.470 OA
ATOM     24  C   UNL     1      33.153 -14.639 -25.442  0.00  0.00    +0.253 C 
ENDBRANCH  18  23
ENDBRANCH  12  17
ENDBRANCH   5  11
BRANCH   1  25
ATOM     25  C   UNL     1      34.564 -22.905 -18.656  0.00  0.00    +0.122 C 
BRANCH  25  28
ATOM     26  N   UNL     1      32.708 -22.794 -14.795  0.00  0.00    -0.230 NA
ATOM     27  N   UNL     1      34.859 -22.875 -13.774  0.00  0.00    -0.343 N 
ATOM     28  C   UNL     1      33.913 -22.867 -17.300  0.00  0.00    +0.002 C 
ATOM     29  C   UNL     1      34.699 -22.890 -16.162  0.00  0.00    +0.031 C 
ATOM     30  C   UNL     1      32.534 -22.808 -17.206  0.00  0.00    +0.018 C 
ATOM     31  C   UNL     1      34.051 -22.852 -14.938  0.00  0.00    +0.125 C 
ATOM     32  C   UNL     1      31.982 -22.774 -15.935  0.00  0.00    +0.100 C 
ATOM     33  H   UNL     1      34.440 -22.848 -12.884  0.00  0.00    +0.144 HD
ATOM     34  H   UNL     1      35.839 -22.916 -13.857  0.00  0.00    +0.144 HD
ENDBRANCH  25  28
ENDBRANCH   1  25
TORSDOF 5
ENDMDL
MODEL 8
REMARK VINA RESULT:      -9.6      2.747      4.977
REMARK  Name = 11691242
REMARK  5 active torsions:
REMARK  status: ('A' for Active; 'I' for Inactive)
REMARK    1  A    between atoms: N_1  and  C_25
REMARK    2  A    between atoms: C_5  and  N_11
REMARK    3  A    between atoms: N_12  and  C_17
REMARK    4  A    between atoms: C_18  and  O_23
REMARK    5  A    between atoms: C_25  and  C_28
REMARK                            x       y       z     vdW  Elec       q    Type
REMARK                         _______ _______ _______ _____ _____    ______ ____
ROOT
ATOM      1  N   UNL     1      33.914 -12.883 -22.473  0.00  0.00    -0.282 N 
ATOM      2  C   UNL     1      32.887 -12.235 -21.826  0.00  0.00    +0.053 C 
ATOM      3  C   UNL     1      32.520 -11.148 -22.623  0.00  0.00    +0.028 C 
ATOM      4  C   UNL     1      34.209 -12.246 -23.648  0.00  0.00    +0.066 C 
ATOM      5  C   UNL     1      31.478 -10.306 -22.186  0.00  0.00    +0.053 C 
ATOM      6  C   UNL     1      33.364 -11.167 -23.769  0.00  0.00    +0.019 C 
ATOM      7  C   UNL     1      32.260 -12.524 -20.609  0.00  0.00    +0.015 C 
ATOM      8  C   UNL     1      30.842 -10.583 -20.970  0.00  0.00    +0.015 C 
ATOM      9  C   UNL     1      31.228 -11.675 -20.195  0.00  0.00    +0.003 C 
ENDROOT
BRANCH   5  11
ATOM     10  O   UNL     1      32.823  -7.678 -22.641  0.00  0.00    -0.252 OA
ATOM     11  N   UNL     1      31.073  -9.206 -22.943  0.00  0.00    -0.268 N 
ATOM     12  N   UNL     1      30.977  -7.142 -23.974  0.00  0.00    -0.266 N 
ATOM     13  C   UNL     1      31.739  -7.972 -23.136  0.00  0.00    +0.308 C 
ATOM     14  H   UNL     1      30.208  -9.301 -23.404  0.00  0.00    +0.156 HD
ATOM     15  H   UNL     1      30.126  -7.517 -24.295  0.00  0.00    +0.157 HD
BRANCH  12  17
ATOM     16 BR   UNL     1      33.334  -4.155 -27.606  0.00  0.00    -0.049 Br
ATOM     17  C   UNL     1      31.283  -5.832 -24.414  0.00  0.00    +0.086 C 
ATOM     18  C   UNL     1      30.850  -4.737 -23.683  0.00  0.00    +0.152 C 
ATOM     19  C   UNL     1      32.018  -5.676 -25.578  0.00  0.00    +0.024 C 
ATOM     20  C   UNL     1      31.158  -3.453 -24.129  0.00  0.00    +0.039 C 
ATOM     21  C   UNL     1      32.327  -4.390 -26.024  0.00  0.00    +0.036 C 
ATOM     22  C   UNL     1      31.897  -3.279 -25.300  0.00  0.00    +0.010 C 
BRANCH  18  23
ATOM     23  O   UNL     1      30.128  -4.886 -22.537  0.00  0.00    -0.470 OA
ATOM     24  C   UNL     1      30.497  -4.069 -21.427  0.00  0.00    +0.253 C 
ENDBRANCH  18  23
ENDBRANCH  12  17
ENDBRANCH   5  11
BRANCH   1  25
ATOM     25  C   UNL     1      34.597 -14.066 -21.993  0.00  0.00    +0.122 C 
BRANCH  25  28
ATOM     26  N   UNL     1      34.200 -17.326 -24.746  0.00  0.00    -0.230 NA
ATOM     27  N   UNL     1      35.420 -18.720 -23.248  0.00  0.00    -0.343 N 
ATOM     28  C   UNL     1      34.459 -15.210 -22.959  0.00  0.00    +0.002 C 
ATOM     29  C   UNL     1      35.010 -16.440 -22.648  0.00  0.00    +0.031 C 
ATOM     30  C   UNL     1      33.780 -15.021 -24.150  0.00  0.00    +0.018 C 
ATOM     31  C   UNL     1      34.854 -17.462 -23.571  0.00  0.00    +0.125 C 
ATOM     32  C   UNL     1      33.679 -16.106 -25.006  0.00  0.00    +0.100 C 
ATOM     33  H   UNL     1      35.332 -19.474 -23.875  0.00  0.00    +0.144 HD
ATOM     34  H   UNL     1      35.899 -18.841 -22.396  0.00  0.00    +0.144 HD
ENDBRANCH  25  28
ENDBRANCH   1  25
TORSDOF 5
ENDMDL
MODEL 9
REMARK VINA RESULT:      -9.5      2.849      5.327
REMARK  Name = 11691242
REMARK  5 active torsions:
REMARK  status: ('A' for Active; 'I' for Inactive)
REMARK    1  A    between atoms: N_1  and  C_25
REMARK    2  A    between atoms: C_5  and  N_11
REMARK    3  A    between atoms: N_12  and  C_17
REMARK    4  A    between atoms: C_18  and  O_23
REMARK    5  A    between atoms: C_25  and  C_28
REMARK                            x       y       z     vdW  Elec       q    Type
REMARK                         _______ _______ _______ _____ _____    ______ ____
ROOT
ATOM      1  N   UNL     1      33.901 -12.746 -22.587  0.00  0.00    -0.282 N 
ATOM      2  C   UNL     1      32.823 -12.167 -21.957  0.00  0.00    +0.053 C 
ATOM      3  C   UNL     1      32.511 -11.003 -22.664  0.00  0.00    +0.028 C 
ATOM      4  C   UNL     1      34.281 -11.992 -23.664  0.00  0.00    +0.066 C 
ATOM      5  C   UNL     1      31.434 -10.210 -22.223  0.00  0.00    +0.053 C 
ATOM      6  C   UNL     1      33.440 -10.905 -23.738  0.00  0.00    +0.019 C 
ATOM      7  C   UNL     1      32.108 -12.579 -20.828  0.00  0.00    +0.015 C 
ATOM      8  C   UNL     1      30.708 -10.610 -21.094  0.00  0.00    +0.015 C 
ATOM      9  C   UNL     1      31.041 -11.776 -20.409  0.00  0.00    +0.003 C 
ENDROOT
BRANCH   5  11
ATOM     10  O   UNL     1      32.657  -7.487 -22.119  0.00  0.00    -0.252 OA
ATOM     11  N   UNL     1      31.080  -9.037 -22.892  0.00  0.00    -0.268 N 
ATOM     12  N   UNL     1      31.011  -6.859 -23.657  0.00  0.00    -0.266 N 
ATOM     13  C   UNL     1      31.686  -7.760 -22.817  0.00  0.00    +0.308 C 
ATOM     14  H   UNL     1      30.305  -9.107 -23.496  0.00  0.00    +0.156 HD
ATOM     15  H   UNL     1      30.246  -7.225 -24.157  0.00  0.00    +0.157 HD
BRANCH  12  17
ATOM     16 BR   UNL     1      30.279  -1.903 -22.053  0.00  0.00    -0.049 Br
ATOM     17  C   UNL     1      31.295  -5.490 -23.873  0.00  0.00    +0.086 C 
ATOM     18  C   UNL     1      32.107  -5.109 -24.930  0.00  0.00    +0.152 C 
ATOM     19  C   UNL     1      30.749  -4.552 -23.011  0.00  0.00    +0.024 C 
ATOM     20  C   UNL     1      32.378  -3.757 -25.131  0.00  0.00    +0.039 C 
ATOM     21  C   UNL     1      31.020  -3.198 -23.212  0.00  0.00    +0.036 C 
ATOM     22  C   UNL     1      31.835  -2.801 -24.272  0.00  0.00    +0.010 C 
BRANCH  18  23
ATOM     23  O   UNL     1      32.646  -6.028 -25.781  0.00  0.00    -0.470 OA
ATOM     24  C   UNL     1      33.404  -5.527 -26.880  0.00  0.00    +0.253 C 
ENDBRANCH  18  23
ENDBRANCH  12  17
ENDBRANCH   5  11
BRANCH   1  25
ATOM     25  C   UNL     1      34.553 -13.973 -22.181  0.00  0.00    +0.122 C 
BRANCH  25  28
ATOM     26  N   UNL     1      33.908 -17.106 -25.033  0.00  0.00    -0.230 NA
ATOM     27  N   UNL     1      35.167 -18.593 -23.662  0.00  0.00    -0.343 N 
ATOM     28  C   UNL     1      34.328 -15.073 -23.182  0.00  0.00    +0.002 C 
ATOM     29  C   UNL     1      34.859 -16.329 -22.951  0.00  0.00    +0.031 C 
ATOM     30  C   UNL     1      33.590 -14.817 -24.324  0.00  0.00    +0.018 C 
ATOM     31  C   UNL     1      34.622 -17.308 -23.903  0.00  0.00    +0.125 C 
ATOM     32  C   UNL     1      33.409 -15.863 -25.214  0.00  0.00    +0.100 C 
ATOM     33  H   UNL     1      35.023 -19.318 -24.312  0.00  0.00    +0.144 HD
ATOM     34  H   UNL     1      35.690 -18.761 -22.844  0.00  0.00    +0.144 HD
ENDBRANCH  25  28
ENDBRANCH   1  25
TORSDOF 5
ENDMDL
