MODEL 1
REMARK VINA RESULT:     -11.5      0.000      0.000
REMARK  Name = 44629554
REMARK  5 active torsions:
REMARK  status: ('A' for Active; 'I' for Inactive)
REMARK    1  A    between atoms: C_5  and  C_30
REMARK    2  A    between atoms: C_6  and  N_18
REMARK    3  A    between atoms: C_7  and  C_12
REMARK    4  A    between atoms: N_18  and  C_20
REMARK    5  A    between atoms: C_20  and  C_24
REMARK                            x       y       z     vdW  Elec       q    Type
REMARK                         _______ _______ _______ _____ _____    ______ ____
ROOT
ATOM      1  N   UNL     1      32.839 -23.205 -15.944  0.00  0.00    -0.152 N 
ATOM      2  N   UNL     1      35.195 -23.694 -15.840  0.00  0.00    -0.389 NA
ATOM      3  N   UNL     1      31.935 -22.629 -16.786  0.00  0.00    -0.174 NA
ATOM      4  C   UNL     1      34.122 -23.176 -16.495  0.00  0.00    +0.189 C 
ATOM      5  C   UNL     1      34.010 -22.560 -17.720  0.00  0.00    +0.112 C 
ATOM      6  C   UNL     1      32.600 -23.767 -14.680  0.00  0.00    +0.126 C 
ATOM      7  C   UNL     1      34.972 -24.229 -14.674  0.00  0.00    +0.140 C 
ATOM      8  C   UNL     1      33.636 -24.290 -14.003  0.00  0.00    +0.064 C 
ATOM      9  C   UNL     1      32.650 -22.249 -17.843  0.00  0.00    +0.100 C 
ENDROOT
BRANCH   7  12
ATOM     10  F   UNL     1      36.114 -26.724 -15.334  0.00  0.00    -0.204 F 
ATOM     11  F   UNL     1      36.173 -22.932 -12.474  0.00  0.00    -0.204 F 
ATOM     12  C   UNL     1      36.115 -24.813 -13.923  0.00  0.00    +0.085 C 
ATOM     13  C   UNL     1      36.636 -26.050 -14.299  0.00  0.00    +0.145 C 
ATOM     14  C   UNL     1      36.667 -24.123 -12.844  0.00  0.00    +0.145 C 
ATOM     15  C   UNL     1      37.709 -26.599 -13.595  0.00  0.00    +0.030 C 
ATOM     16  C   UNL     1      37.739 -24.670 -12.140  0.00  0.00    +0.030 C 
ATOM     17  C   UNL     1      38.260 -25.909 -12.516  0.00  0.00    +0.005 C 
ENDBRANCH   7  12
BRANCH   6  18
ATOM     18  N   UNL     1      31.317 -23.739 -14.210  0.00  0.00    -0.316 N 
ATOM     19  H   UNL     1      31.083 -23.068 -13.530  0.00  0.00    +0.148 HD
BRANCH  18  20
ATOM     20  C   UNL     1      30.291 -24.642 -14.660  0.00  0.00    +0.114 C 
BRANCH  20  24
ATOM     21  N   UNL     1      27.936 -21.893 -15.764  0.00  0.00    -0.181 NA
ATOM     22  N   UNL     1      27.565 -23.824 -17.156  0.00  0.00    -0.204 NA
ATOM     23  N   UNL     1      26.325 -21.858 -17.470  0.00  0.00    -0.303 N 
ATOM     24  C   UNL     1      29.227 -23.894 -15.415  0.00  0.00    +0.020 C 
ATOM     25  C   UNL     1      28.885 -22.593 -15.109  0.00  0.00    +0.106 C 
ATOM     26  C   UNL     1      28.526 -24.466 -16.458  0.00  0.00    +0.163 C 
ATOM     27  C   UNL     1      27.325 -22.559 -16.761  0.00  0.00    +0.084 C 
ATOM     28  H   UNL     1      26.107 -20.930 -17.225  0.00  0.00    +0.154 HD
ATOM     29  H   UNL     1      25.845 -22.297 -18.209  0.00  0.00    +0.154 HD
ENDBRANCH  20  24
ENDBRANCH  18  20
ENDBRANCH   6  18
BRANCH   5  30
ATOM     30  C   UNL     1      35.082 -22.288 -18.691  0.00  0.00    +0.015 C 
ATOM     31  C   UNL     1      34.784 -21.082 -19.591  0.00  0.00    +0.001 C 
ENDBRANCH   5  30
TORSDOF 5
ENDMDL
MODEL 2
REMARK VINA RESULT:     -11.0      2.593      5.937
REMARK  Name = 44629554
REMARK  5 active torsions:
REMARK  status: ('A' for Active; 'I' for Inactive)
REMARK    1  A    between atoms: C_5  and  C_30
REMARK    2  A    between atoms: C_6  and  N_18
REMARK    3  A    between atoms: C_7  and  C_12
REMARK    4  A    between atoms: N_18  and  C_20
REMARK    5  A    between atoms: C_20  and  C_24
REMARK                            x       y       z     vdW  Elec       q    Type
REMARK                         _______ _______ _______ _____ _____    ______ ____
ROOT
ATOM      1  N   UNL     1      33.001 -23.014 -16.300  0.00  0.00    -0.152 N 
ATOM      2  N   UNL     1      33.644 -24.259 -14.342  0.00  0.00    -0.389 NA
ATOM      3  N   UNL     1      31.876 -22.539 -16.906  0.00  0.00    -0.174 NA
ATOM      4  C   UNL     1      32.685 -23.696 -15.123  0.00  0.00    +0.189 C 
ATOM      5  C   UNL     1      31.316 -23.644 -14.996  0.00  0.00    +0.112 C 
ATOM      6  C   UNL     1      34.330 -22.885 -16.734  0.00  0.00    +0.126 C 
ATOM      7  C   UNL     1      34.878 -24.128 -14.735  0.00  0.00    +0.140 C 
ATOM      8  C   UNL     1      35.306 -23.428 -15.987  0.00  0.00    +0.064 C 
ATOM      9  C   UNL     1      30.877 -22.924 -16.113  0.00  0.00    +0.100 C 
ENDROOT
BRANCH   7  12
ATOM     10  F   UNL     1      35.899 -22.871 -12.424  0.00  0.00    -0.204 F 
ATOM     11  F   UNL     1      36.078 -26.607 -15.352  0.00  0.00    -0.204 F 
ATOM     12  C   UNL     1      35.961 -24.724 -13.909  0.00  0.00    +0.085 C 
ATOM     13  C   UNL     1      36.422 -24.054 -12.777  0.00  0.00    +0.145 C 
ATOM     14  C   UNL     1      36.514 -25.954 -14.265  0.00  0.00    +0.145 C 
ATOM     15  C   UNL     1      37.438 -24.613 -12.000  0.00  0.00    +0.030 C 
ATOM     16  C   UNL     1      37.529 -26.513 -13.489  0.00  0.00    +0.030 C 
ATOM     17  C   UNL     1      37.991 -25.842 -12.357  0.00  0.00    +0.005 C 
ENDBRANCH   7  12
BRANCH   6  18
ATOM     18  N   UNL     1      34.549 -22.216 -17.905  0.00  0.00    -0.316 N 
ATOM     19  H   UNL     1      33.774 -21.839 -18.380  0.00  0.00    +0.148 HD
BRANCH  18  20
ATOM     20  C   UNL     1      35.856 -22.033 -18.478  0.00  0.00    +0.114 C 
BRANCH  20  24
ATOM     21  N   UNL     1      34.729 -19.471 -21.025  0.00  0.00    -0.181 NA
ATOM     22  N   UNL     1      37.003 -18.981 -20.401  0.00  0.00    -0.204 NA
ATOM     23  N   UNL     1      35.872 -17.651 -21.967  0.00  0.00    -0.303 N 
ATOM     24  C   UNL     1      35.860 -20.856 -19.414  0.00  0.00    +0.020 C 
ATOM     25  C   UNL     1      34.760 -20.519 -20.175  0.00  0.00    +0.106 C 
ATOM     26  C   UNL     1      36.965 -20.044 -19.570  0.00  0.00    +0.163 C 
ATOM     27  C   UNL     1      35.867 -18.756 -21.087  0.00  0.00    +0.084 C 
ATOM     28  H   UNL     1      35.068 -17.439 -22.495  0.00  0.00    +0.154 HD
ATOM     29  H   UNL     1      36.678 -17.093 -22.053  0.00  0.00    +0.154 HD
ENDBRANCH  20  24
ENDBRANCH  18  20
ENDBRANCH   6  18
BRANCH   5  30
ATOM     30  C   UNL     1      30.491 -24.217 -13.919  0.00  0.00    +0.015 C 
ATOM     31  C   UNL     1      29.627 -25.395 -14.387  0.00  0.00    +0.001 C 
ENDBRANCH   5  30
TORSDOF 5
ENDMDL
MODEL 3
REMARK VINA RESULT:     -11.0      2.578      5.678
REMARK  Name = 44629554
REMARK  5 active torsions:
REMARK  status: ('A' for Active; 'I' for Inactive)
REMARK    1  A    between atoms: C_5  and  C_30
REMARK    2  A    between atoms: C_6  and  N_18
REMARK    3  A    between atoms: C_7  and  C_12
REMARK    4  A    between atoms: N_18  and  C_20
REMARK    5  A    between atoms: C_20  and  C_24
REMARK                            x       y       z     vdW  Elec       q    Type
REMARK                         _______ _______ _______ _____ _____    ______ ____
ROOT
ATOM      1  N   UNL     1      33.018 -23.039 -16.262  0.00  0.00    -0.152 N 
ATOM      2  N   UNL     1      33.671 -24.274 -14.301  0.00  0.00    -0.389 NA
ATOM      3  N   UNL     1      31.888 -22.574 -16.867  0.00  0.00    -0.174 NA
ATOM      4  C   UNL     1      32.707 -23.719 -15.083  0.00  0.00    +0.189 C 
ATOM      5  C   UNL     1      31.339 -23.676 -14.953  0.00  0.00    +0.112 C 
ATOM      6  C   UNL     1      34.345 -22.903 -16.698  0.00  0.00    +0.126 C 
ATOM      7  C   UNL     1      34.904 -24.136 -14.697  0.00  0.00    +0.140 C 
ATOM      8  C   UNL     1      35.326 -23.438 -15.951  0.00  0.00    +0.064 C 
ATOM      9  C   UNL     1      30.894 -22.962 -16.072  0.00  0.00    +0.100 C 
ENDROOT
BRANCH   7  12
ATOM     10  F   UNL     1      36.097 -26.625 -15.288  0.00  0.00    -0.204 F 
ATOM     11  F   UNL     1      35.943 -22.849 -12.410  0.00  0.00    -0.204 F 
ATOM     12  C   UNL     1      35.992 -24.722 -13.870  0.00  0.00    +0.085 C 
ATOM     13  C   UNL     1      36.542 -25.956 -14.215  0.00  0.00    +0.145 C 
ATOM     14  C   UNL     1      36.464 -24.036 -12.751  0.00  0.00    +0.145 C 
ATOM     15  C   UNL     1      37.564 -26.506 -13.440  0.00  0.00    +0.030 C 
ATOM     16  C   UNL     1      37.485 -24.586 -11.976  0.00  0.00    +0.030 C 
ATOM     17  C   UNL     1      38.035 -25.821 -12.320  0.00  0.00    +0.005 C 
ENDBRANCH   7  12
BRANCH   6  18
ATOM     18  N   UNL     1      34.558 -22.236 -17.872  0.00  0.00    -0.316 N 
ATOM     19  H   UNL     1      33.778 -21.879 -18.354  0.00  0.00    +0.148 HD
BRANCH  18  20
ATOM     20  C   UNL     1      35.865 -22.029 -18.437  0.00  0.00    +0.114 C 
BRANCH  20  24
ATOM     21  N   UNL     1      36.965 -18.993 -20.411  0.00  0.00    -0.181 NA
ATOM     22  N   UNL     1      34.683 -19.500 -20.993  0.00  0.00    -0.204 NA
ATOM     23  N   UNL     1      35.801 -17.685 -21.973  0.00  0.00    -0.303 N 
ATOM     24  C   UNL     1      35.848 -20.863 -19.387  0.00  0.00    +0.020 C 
ATOM     25  C   UNL     1      36.946 -20.047 -19.568  0.00  0.00    +0.106 C 
ATOM     26  C   UNL     1      34.733 -20.538 -20.133  0.00  0.00    +0.163 C 
ATOM     27  C   UNL     1      35.818 -18.780 -21.081  0.00  0.00    +0.084 C 
ATOM     28  H   UNL     1      36.603 -17.123 -22.078  0.00  0.00    +0.154 HD
ATOM     29  H   UNL     1      34.988 -17.482 -22.489  0.00  0.00    +0.154 HD
ENDBRANCH  20  24
ENDBRANCH  18  20
ENDBRANCH   6  18
BRANCH   5  30
ATOM     30  C   UNL     1      30.519 -24.251 -13.874  0.00  0.00    +0.015 C 
ATOM     31  C   UNL     1      29.658 -25.432 -14.338  0.00  0.00    +0.001 C 
ENDBRANCH   5  30
TORSDOF 5
ENDMDL
MODEL 4
REMARK VINA RESULT:     -10.9      2.772      7.488
REMARK  Name = 44629554
REMARK  5 active torsions:
REMARK  status: ('A' for Active; 'I' for Inactive)
REMARK    1  A    between atoms: C_5  and  C_30
REMARK    2  A    between atoms: C_6  and  N_18
REMARK    3  A    between atoms: C_7  and  C_12
REMARK    4  A    between atoms: N_18  and  C_20
REMARK    5  A    between atoms: C_20  and  C_24
REMARK                            x       y       z     vdW  Elec       q    Type
REMARK                         _______ _______ _______ _____ _____    ______ ____
ROOT
ATOM      1  N   UNL     1      35.269 -22.971 -14.831  0.00  0.00    -0.152 N 
ATOM      2  N   UNL     1      33.256 -23.181 -16.137  0.00  0.00    -0.389 NA
ATOM      3  N   UNL     1      36.574 -22.611 -14.987  0.00  0.00    -0.174 NA
ATOM      4  C   UNL     1      34.577 -22.874 -16.041  0.00  0.00    +0.189 C 
ATOM      5  C   UNL     1      35.486 -22.441 -16.979  0.00  0.00    +0.112 C 
ATOM      6  C   UNL     1      34.629 -23.398 -13.657  0.00  0.00    +0.126 C 
ATOM      7  C   UNL     1      32.658 -23.563 -15.045  0.00  0.00    +0.140 C 
ATOM      8  C   UNL     1      33.323 -23.709 -13.713  0.00  0.00    +0.064 C 
ATOM      9  C   UNL     1      36.687 -22.297 -16.276  0.00  0.00    +0.100 C 
ENDROOT
BRANCH   7  12
ATOM     10  F   UNL     1      30.816 -22.128 -16.630  0.00  0.00    -0.204 F 
ATOM     11  F   UNL     1      31.535 -25.696 -13.577  0.00  0.00    -0.204 F 
ATOM     12  C   UNL     1      31.212 -23.903 -15.102  0.00  0.00    +0.085 C 
ATOM     13  C   UNL     1      30.351 -23.156 -15.906  0.00  0.00    +0.145 C 
ATOM     14  C   UNL     1      30.716 -24.970 -14.353  0.00  0.00    +0.145 C 
ATOM     15  C   UNL     1      28.993 -23.475 -15.960  0.00  0.00    +0.030 C 
ATOM     16  C   UNL     1      29.360 -25.290 -14.407  0.00  0.00    +0.030 C 
ATOM     17  C   UNL     1      28.498 -24.542 -15.210  0.00  0.00    +0.005 C 
ENDBRANCH   7  12
BRANCH   6  18
ATOM     18  N   UNL     1      35.385 -23.479 -12.521  0.00  0.00    -0.316 N 
ATOM     19  H   UNL     1      35.673 -22.642 -12.092  0.00  0.00    +0.148 HD
BRANCH  18  20
ATOM     20  C   UNL     1      35.779 -24.727 -11.922  0.00  0.00    +0.114 C 
BRANCH  20  24
ATOM     21  N   UNL     1      38.344 -26.879 -13.685  0.00  0.00    -0.181 NA
ATOM     22  N   UNL     1      39.419 -24.852 -12.950  0.00  0.00    -0.204 NA
ATOM     23  N   UNL     1      40.623 -26.504 -14.101  0.00  0.00    -0.303 N 
ATOM     24  C   UNL     1      37.079 -25.204 -12.507  0.00  0.00    +0.020 C 
ATOM     25  C   UNL     1      37.194 -26.420 -13.149  0.00  0.00    +0.106 C 
ATOM     26  C   UNL     1      38.236 -24.454 -12.436  0.00  0.00    +0.163 C 
ATOM     27  C   UNL     1      39.401 -26.056 -13.552  0.00  0.00    +0.084 C 
ATOM     28  H   UNL     1      40.669 -27.378 -14.553  0.00  0.00    +0.154 HD
ATOM     29  H   UNL     1      41.429 -25.943 -14.032  0.00  0.00    +0.154 HD
ENDBRANCH  20  24
ENDBRANCH  18  20
ENDBRANCH   6  18
BRANCH   5  30
ATOM     30  C   UNL     1      35.247 -22.182 -18.408  0.00  0.00    +0.015 C 
ATOM     31  C   UNL     1      36.323 -21.292 -19.044  0.00  0.00    +0.001 C 
ENDBRANCH   5  30
TORSDOF 5
ENDMDL
MODEL 5
REMARK VINA RESULT:     -10.9      2.785      7.407
REMARK  Name = 44629554
REMARK  5 active torsions:
REMARK  status: ('A' for Active; 'I' for Inactive)
REMARK    1  A    between atoms: C_5  and  C_30
REMARK    2  A    between atoms: C_6  and  N_18
REMARK    3  A    between atoms: C_7  and  C_12
REMARK    4  A    between atoms: N_18  and  C_20
REMARK    5  A    between atoms: C_20  and  C_24
REMARK                            x       y       z     vdW  Elec       q    Type
REMARK                         _______ _______ _______ _____ _____    ______ ____
ROOT
ATOM      1  N   UNL     1      35.282 -22.965 -14.788  0.00  0.00    -0.152 N 
ATOM      2  N   UNL     1      33.280 -23.162 -16.112  0.00  0.00    -0.389 NA
ATOM      3  N   UNL     1      36.589 -22.605 -14.930  0.00  0.00    -0.174 NA
ATOM      4  C   UNL     1      34.600 -22.857 -16.002  0.00  0.00    +0.189 C 
ATOM      5  C   UNL     1      35.516 -22.417 -16.929  0.00  0.00    +0.112 C 
ATOM      6  C   UNL     1      34.632 -23.402 -13.623  0.00  0.00    +0.126 C 
ATOM      7  C   UNL     1      32.672 -23.553 -15.029  0.00  0.00    +0.140 C 
ATOM      8  C   UNL     1      33.326 -23.711 -13.692  0.00  0.00    +0.064 C 
ATOM      9  C   UNL     1      36.712 -22.279 -16.215  0.00  0.00    +0.100 C 
ENDROOT
BRANCH   7  12
ATOM     10  F   UNL     1      31.529 -25.675 -13.561  0.00  0.00    -0.204 F 
ATOM     11  F   UNL     1      30.850 -22.125 -16.643  0.00  0.00    -0.204 F 
ATOM     12  C   UNL     1      31.226 -23.891 -15.100  0.00  0.00    +0.085 C 
ATOM     13  C   UNL     1      30.721 -24.952 -14.350  0.00  0.00    +0.145 C 
ATOM     14  C   UNL     1      30.375 -23.147 -15.917  0.00  0.00    +0.145 C 
ATOM     15  C   UNL     1      29.363 -25.270 -14.416  0.00  0.00    +0.030 C 
ATOM     16  C   UNL     1      29.018 -23.464 -15.983  0.00  0.00    +0.030 C 
ATOM     17  C   UNL     1      28.513 -24.526 -15.233  0.00  0.00    +0.005 C 
ENDBRANCH   7  12
BRANCH   6  18
ATOM     18  N   UNL     1      35.378 -23.493 -12.481  0.00  0.00    -0.316 N 
ATOM     19  H   UNL     1      35.659 -22.660 -12.040  0.00  0.00    +0.148 HD
BRANCH  18  20
ATOM     20  C   UNL     1      35.773 -24.746 -11.893  0.00  0.00    +0.114 C 
BRANCH  20  24
ATOM     21  N   UNL     1      39.414 -24.851 -12.919  0.00  0.00    -0.181 NA
ATOM     22  N   UNL     1      38.347 -26.876 -13.671  0.00  0.00    -0.204 NA
ATOM     23  N   UNL     1      40.624 -26.492 -14.081  0.00  0.00    -0.303 N 
ATOM     24  C   UNL     1      37.075 -25.214 -12.480  0.00  0.00    +0.020 C 
ATOM     25  C   UNL     1      38.229 -24.462 -12.403  0.00  0.00    +0.106 C 
ATOM     26  C   UNL     1      37.194 -26.425 -13.133  0.00  0.00    +0.163 C 
ATOM     27  C   UNL     1      39.401 -26.051 -13.529  0.00  0.00    +0.084 C 
ATOM     28  H   UNL     1      41.429 -25.929 -14.007  0.00  0.00    +0.154 HD
ATOM     29  H   UNL     1      40.673 -27.361 -14.540  0.00  0.00    +0.154 HD
ENDBRANCH  20  24
ENDBRANCH  18  20
ENDBRANCH   6  18
BRANCH   5  30
ATOM     30  C   UNL     1      35.290 -22.146 -18.358  0.00  0.00    +0.015 C 
ATOM     31  C   UNL     1      36.334 -21.197 -18.961  0.00  0.00    +0.001 C 
ENDBRANCH   5  30
TORSDOF 5
ENDMDL
MODEL 6
REMARK VINA RESULT:     -10.8      2.522      7.276
REMARK  Name = 44629554
REMARK  5 active torsions:
REMARK  status: ('A' for Active; 'I' for Inactive)
REMARK    1  A    between atoms: C_5  and  C_30
REMARK    2  A    between atoms: C_6  and  N_18
REMARK    3  A    between atoms: C_7  and  C_12
REMARK    4  A    between atoms: N_18  and  C_20
REMARK    5  A    between atoms: C_20  and  C_24
REMARK                            x       y       z     vdW  Elec       q    Type
REMARK                         _______ _______ _______ _____ _____    ______ ____
ROOT
ATOM      1  N   UNL     1      32.678 -24.184 -13.672  0.00  0.00    -0.152 N 
ATOM      2  N   UNL     1      32.710 -22.945 -15.737  0.00  0.00    -0.389 NA
ATOM      3  N   UNL     1      31.787 -24.626 -12.740  0.00  0.00    -0.174 NA
ATOM      4  C   UNL     1      32.029 -23.483 -14.690  0.00  0.00    +0.189 C 
ATOM      5  C   UNL     1      30.689 -23.488 -14.378  0.00  0.00    +0.112 C 
ATOM      6  C   UNL     1      34.071 -24.360 -13.680  0.00  0.00    +0.126 C 
ATOM      7  C   UNL     1      34.000 -23.120 -15.753  0.00  0.00    +0.140 C 
ATOM      8  C   UNL     1      34.778 -23.844 -14.699  0.00  0.00    +0.064 C 
ATOM      9  C   UNL     1      30.603 -24.202 -13.177  0.00  0.00    +0.100 C 
ENDROOT
BRANCH   7  12
ATOM     10  F   UNL     1      32.984 -22.942 -18.380  0.00  0.00    -0.204 F 
ATOM     11  F   UNL     1      36.628 -22.138 -15.441  0.00  0.00    -0.204 F 
ATOM     12  C   UNL     1      34.786 -22.554 -16.882  0.00  0.00    +0.085 C 
ATOM     13  C   UNL     1      34.228 -22.492 -18.158  0.00  0.00    +0.145 C 
ATOM     14  C   UNL     1      36.080 -22.083 -16.664  0.00  0.00    +0.145 C 
ATOM     15  C   UNL     1      34.964 -21.960 -19.218  0.00  0.00    +0.030 C 
ATOM     16  C   UNL     1      36.817 -21.552 -17.722  0.00  0.00    +0.030 C 
ATOM     17  C   UNL     1      36.259 -21.491 -18.999  0.00  0.00    +0.005 C 
ENDBRANCH   7  12
BRANCH   6  18
ATOM     18  N   UNL     1      34.626 -25.046 -12.637  0.00  0.00    -0.316 N 
ATOM     19  H   UNL     1      34.246 -25.922 -12.399  0.00  0.00    +0.148 HD
BRANCH  18  20
ATOM     20  C   UNL     1      35.738 -24.551 -11.868  0.00  0.00    +0.114 C 
BRANCH  20  24
ATOM     21  N   UNL     1      39.358 -24.698 -12.962  0.00  0.00    -0.181 NA
ATOM     22  N   UNL     1      38.310 -26.800 -13.497  0.00  0.00    -0.204 NA
ATOM     23  N   UNL     1      40.571 -26.422 -13.993  0.00  0.00    -0.303 N 
ATOM     24  C   UNL     1      37.035 -25.053 -12.438  0.00  0.00    +0.020 C 
ATOM     25  C   UNL     1      38.178 -24.279 -12.458  0.00  0.00    +0.106 C 
ATOM     26  C   UNL     1      37.161 -26.318 -12.977  0.00  0.00    +0.163 C 
ATOM     27  C   UNL     1      39.353 -25.949 -13.457  0.00  0.00    +0.084 C 
ATOM     28  H   UNL     1      41.367 -25.842 -13.990  0.00  0.00    +0.154 HD
ATOM     29  H   UNL     1      40.625 -27.330 -14.369  0.00  0.00    +0.154 HD
ENDBRANCH  20  24
ENDBRANCH  18  20
ENDBRANCH   6  18
BRANCH   5  30
ATOM     30  C   UNL     1      29.586 -22.880 -15.140  0.00  0.00    +0.015 C 
ATOM     31  C   UNL     1      28.641 -23.918 -15.760  0.00  0.00    +0.001 C 
ENDBRANCH   5  30
TORSDOF 5
ENDMDL
MODEL 7
REMARK VINA RESULT:     -10.7      1.931      4.642
REMARK  Name = 44629554
REMARK  5 active torsions:
REMARK  status: ('A' for Active; 'I' for Inactive)
REMARK    1  A    between atoms: C_5  and  C_30
REMARK    2  A    between atoms: C_6  and  N_18
REMARK    3  A    between atoms: C_7  and  C_12
REMARK    4  A    between atoms: N_18  and  C_20
REMARK    5  A    between atoms: C_20  and  C_24
REMARK                            x       y       z     vdW  Elec       q    Type
REMARK                         _______ _______ _______ _____ _____    ______ ____
ROOT
ATOM      1  N   UNL     1      34.618 -24.066 -13.082  0.00  0.00    -0.152 N 
ATOM      2  N   UNL     1      36.101 -23.552 -14.909  0.00  0.00    -0.389 NA
ATOM      3  N   UNL     1      34.660 -24.607 -11.832  0.00  0.00    -0.174 NA
ATOM      4  C   UNL     1      35.889 -24.048 -13.661  0.00  0.00    +0.189 C 
ATOM      5  C   UNL     1      36.748 -24.598 -12.738  0.00  0.00    +0.112 C 
ATOM      6  C   UNL     1      33.496 -23.577 -13.770  0.00  0.00    +0.126 C 
ATOM      7  C   UNL     1      35.063 -23.084 -15.542  0.00  0.00    +0.140 C 
ATOM      8  C   UNL     1      33.666 -23.077 -15.006  0.00  0.00    +0.064 C 
ATOM      9  C   UNL     1      35.940 -24.919 -11.641  0.00  0.00    +0.100 C 
ENDROOT
BRANCH   7  12
ATOM     10  F   UNL     1      33.163 -23.429 -17.600  0.00  0.00    -0.204 F 
ATOM     11  F   UNL     1      37.344 -21.597 -16.285  0.00  0.00    -0.204 F 
ATOM     12  C   UNL     1      35.249 -22.527 -16.908  0.00  0.00    +0.085 C 
ATOM     13  C   UNL     1      34.273 -22.730 -17.882  0.00  0.00    +0.145 C 
ATOM     14  C   UNL     1      36.398 -21.799 -17.214  0.00  0.00    +0.145 C 
ATOM     15  C   UNL     1      34.446 -22.207 -19.165  0.00  0.00    +0.030 C 
ATOM     16  C   UNL     1      36.572 -21.276 -18.495  0.00  0.00    +0.030 C 
ATOM     17  C   UNL     1      35.596 -21.480 -19.470  0.00  0.00    +0.005 C 
ENDBRANCH   7  12
BRANCH   6  18
ATOM     18  N   UNL     1      32.288 -23.647 -13.136  0.00  0.00    -0.316 N 
ATOM     19  H   UNL     1      32.082 -22.974 -12.448  0.00  0.00    +0.148 HD
BRANCH  18  20
ATOM     20  C   UNL     1      31.302 -24.655 -13.423  0.00  0.00    +0.114 C 
BRANCH  20  24
ATOM     21  N   UNL     1      28.966 -22.255 -15.187  0.00  0.00    -0.181 NA
ATOM     22  N   UNL     1      28.611 -24.465 -16.078  0.00  0.00    -0.204 NA
ATOM     23  N   UNL     1      27.379 -22.634 -16.873  0.00  0.00    -0.303 N 
ATOM     24  C   UNL     1      30.249 -24.112 -14.349  0.00  0.00    +0.020 C 
ATOM     25  C   UNL     1      29.906 -22.776 -14.369  0.00  0.00    +0.106 C 
ATOM     26  C   UNL     1      29.561 -24.918 -15.234  0.00  0.00    +0.163 C 
ATOM     27  C   UNL     1      28.368 -23.143 -16.003  0.00  0.00    +0.084 C 
ATOM     28  H   UNL     1      27.159 -21.674 -16.861  0.00  0.00    +0.154 HD
ATOM     29  H   UNL     1      26.908 -23.238 -17.491  0.00  0.00    +0.154 HD
ENDBRANCH  20  24
ENDBRANCH  18  20
ENDBRANCH   6  18
BRANCH   5  30
ATOM     30  C   UNL     1      38.199 -24.803 -12.872  0.00  0.00    +0.015 C 
ATOM     31  C   UNL     1      38.557 -26.004 -13.757  0.00  0.00    +0.001 C 
ENDBRANCH   5  30
TORSDOF 5
ENDMDL
MODEL 8
REMARK VINA RESULT:     -10.5      2.499      7.363
REMARK  Name = 44629554
REMARK  5 active torsions:
REMARK  status: ('A' for Active; 'I' for Inactive)
REMARK    1  A    between atoms: C_5  and  C_30
REMARK    2  A    between atoms: C_6  and  N_18
REMARK    3  A    between atoms: C_7  and  C_12
REMARK    4  A    between atoms: N_18  and  C_20
REMARK    5  A    between atoms: C_20  and  C_24
REMARK                            x       y       z     vdW  Elec       q    Type
REMARK                         _______ _______ _______ _____ _____    ______ ____
ROOT
ATOM      1  N   UNL     1      32.473 -24.373 -13.971  0.00  0.00    -0.152 N 
ATOM      2  N   UNL     1      32.452 -23.248 -16.101  0.00  0.00    -0.389 NA
ATOM      3  N   UNL     1      31.602 -24.925 -13.080  0.00  0.00    -0.174 NA
ATOM      4  C   UNL     1      31.795 -23.851 -15.075  0.00  0.00    +0.189 C 
ATOM      5  C   UNL     1      30.456 -24.087 -14.859  0.00  0.00    +0.112 C 
ATOM      6  C   UNL     1      33.871 -24.291 -13.869  0.00  0.00    +0.126 C 
ATOM      7  C   UNL     1      33.749 -23.185 -16.014  0.00  0.00    +0.140 C 
ATOM      8  C   UNL     1      34.555 -23.703 -14.865  0.00  0.00    +0.064 C 
ATOM      9  C   UNL     1      30.401 -24.747 -13.626  0.00  0.00    +0.100 C 
ENDROOT
BRANCH   7  12
ATOM     10  F   UNL     1      36.521 -22.675 -15.858  0.00  0.00    -0.204 F 
ATOM     11  F   UNL     1      32.538 -22.370 -18.430  0.00  0.00    -0.204 F 
ATOM     12  C   UNL     1      34.510 -22.539 -17.116  0.00  0.00    +0.085 C 
ATOM     13  C   UNL     1      35.880 -22.315 -16.980  0.00  0.00    +0.145 C 
ATOM     14  C   UNL     1      33.855 -22.159 -18.287  0.00  0.00    +0.145 C 
ATOM     15  C   UNL     1      36.595 -21.709 -18.014  0.00  0.00    +0.030 C 
ATOM     16  C   UNL     1      34.569 -21.554 -19.322  0.00  0.00    +0.030 C 
ATOM     17  C   UNL     1      35.939 -21.329 -19.184  0.00  0.00    +0.005 C 
ENDBRANCH   7  12
BRANCH   6  18
ATOM     18  N   UNL     1      34.453 -24.813 -12.748  0.00  0.00    -0.316 N 
ATOM     19  H   UNL     1      34.106 -25.664 -12.395  0.00  0.00    +0.148 HD
BRANCH  18  20
ATOM     20  C   UNL     1      35.547 -24.182 -12.059  0.00  0.00    +0.114 C 
BRANCH  20  24
ATOM     21  N   UNL     1      38.426 -26.567 -12.649  0.00  0.00    -0.181 NA
ATOM     22  N   UNL     1      38.935 -24.471 -13.722  0.00  0.00    -0.204 NA
ATOM     23  N   UNL     1      40.438 -26.268 -13.818  0.00  0.00    -0.303 N 
ATOM     24  C   UNL     1      36.860 -24.743 -12.531  0.00  0.00    +0.020 C 
ATOM     25  C   UNL     1      37.255 -26.033 -12.242  0.00  0.00    +0.106 C 
ATOM     26  C   UNL     1      37.749 -24.000 -13.282  0.00  0.00    +0.163 C 
ATOM     27  C   UNL     1      39.205 -25.743 -13.374  0.00  0.00    +0.084 C 
ATOM     28  H   UNL     1      40.688 -27.194 -13.593  0.00  0.00    +0.154 HD
ATOM     29  H   UNL     1      41.049 -25.710 -14.352  0.00  0.00    +0.154 HD
ENDBRANCH  20  24
ENDBRANCH  18  20
ENDBRANCH   6  18
BRANCH   5  30
ATOM     30  C   UNL     1      29.328 -23.728 -15.734  0.00  0.00    +0.015 C 
ATOM     31  C   UNL     1      28.517 -22.537 -15.209  0.00  0.00    +0.001 C 
ENDBRANCH   5  30
TORSDOF 5
ENDMDL
MODEL 9
REMARK VINA RESULT:     -10.4     12.227     16.082
REMARK  Name = 44629554
REMARK  5 active torsions:
REMARK  status: ('A' for Active; 'I' for Inactive)
REMARK    1  A    between atoms: C_5  and  C_30
REMARK    2  A    between atoms: C_6  and  N_18
REMARK    3  A    between atoms: C_7  and  C_12
REMARK    4  A    between atoms: N_18  and  C_20
REMARK    5  A    between atoms: C_20  and  C_24
REMARK                            x       y       z     vdW  Elec       q    Type
REMARK                         _______ _______ _______ _____ _____    ______ ____
ROOT
ATOM      1  N   UNL     1      32.866 -11.821 -22.147  0.00  0.00    -0.152 N 
ATOM      2  N   UNL     1      32.437  -9.453 -22.068  0.00  0.00    -0.389 NA
ATOM      3  N   UNL     1      32.570 -12.954 -21.448  0.00  0.00    -0.174 NA
ATOM      4  C   UNL     1      32.284 -10.701 -21.550  0.00  0.00    +0.189 C 
ATOM      5  C   UNL     1      31.606 -11.154 -20.442  0.00  0.00    +0.112 C 
ATOM      6  C   UNL     1      33.644 -11.708 -23.310  0.00  0.00    +0.126 C 
ATOM      7  C   UNL     1      33.147  -9.348 -23.155  0.00  0.00    +0.140 C 
ATOM      8  C   UNL     1      33.817 -10.490 -23.851  0.00  0.00    +0.064 C 
ATOM      9  C   UNL     1      31.816 -12.537 -20.433  0.00  0.00    +0.100 C 
ENDROOT
BRANCH   7  12
ATOM     10  F   UNL     1      31.096  -8.000 -24.548  0.00  0.00    -0.204 F 
ATOM     11  F   UNL     1      35.587  -7.938 -23.002  0.00  0.00    -0.204 F 
ATOM     12  C   UNL     1      33.337  -8.003 -23.760  0.00  0.00    +0.085 C 
ATOM     13  C   UNL     1      32.284  -7.388 -24.435  0.00  0.00    +0.145 C 
ATOM     14  C   UNL     1      34.567  -7.356 -23.650  0.00  0.00    +0.145 C 
ATOM     15  C   UNL     1      32.460  -6.125 -25.003  0.00  0.00    +0.030 C 
ATOM     16  C   UNL     1      34.745  -6.094 -24.217  0.00  0.00    +0.030 C 
ATOM     17  C   UNL     1      33.692  -5.479 -24.893  0.00  0.00    +0.005 C 
ENDBRANCH   7  12
BRANCH   6  18
ATOM     18  N   UNL     1      34.189 -12.853 -23.818  0.00  0.00    -0.316 N 
ATOM     19  H   UNL     1      35.162 -12.978 -23.749  0.00  0.00    +0.148 HD
BRANCH  18  20
ATOM     20  C   UNL     1      33.410 -13.886 -24.450  0.00  0.00    +0.114 C 
BRANCH  20  24
ATOM     21  N   UNL     1      34.192 -17.586 -24.585  0.00  0.00    -0.181 NA
ATOM     22  N   UNL     1      35.185 -16.665 -22.593  0.00  0.00    -0.204 NA
ATOM     23  N   UNL     1      35.406 -18.943 -23.105  0.00  0.00    -0.303 N 
ATOM     24  C   UNL     1      33.946 -15.244 -24.090  0.00  0.00    +0.020 C 
ATOM     25  C   UNL     1      33.726 -16.354 -24.879  0.00  0.00    +0.106 C 
ATOM     26  C   UNL     1      34.689 -15.461 -22.946  0.00  0.00    +0.163 C 
ATOM     27  C   UNL     1      34.903 -17.668 -23.445  0.00  0.00    +0.084 C 
ATOM     28  H   UNL     1      35.230 -19.714 -23.692  0.00  0.00    +0.154 HD
ATOM     29  H   UNL     1      35.932 -19.062 -22.282  0.00  0.00    +0.154 HD
ENDBRANCH  20  24
ENDBRANCH  18  20
ENDBRANCH   6  18
BRANCH   5  30
ATOM     30  C   UNL     1      30.827 -10.359 -19.478  0.00  0.00    +0.015 C 
ATOM     31  C   UNL     1      31.605 -10.040 -18.196  0.00  0.00    +0.001 C 
ENDBRANCH   5  30
TORSDOF 5
ENDMDL
