MODEL 1
REMARK VINA RESULT:     -12.5      0.000      0.000
REMARK  Name = 51049992
REMARK  10 active torsions:
REMARK  status: ('A' for Active; 'I' for Inactive)
REMARK    1  A    between atoms: C_1  and  C_7
REMARK    2  A    between atoms: C_6  and  C_23
REMARK    3  A    between atoms: C_7  and  N_8
REMARK    4  A    between atoms: C_23  and  O_24
REMARK    5  A    between atoms: O_24  and  C_25
REMARK    6  A    between atoms: C_26  and  C_31
REMARK    7  A    between atoms: C_31  and  C_32
REMARK    8  A    between atoms: C_31  and  C_35
REMARK    9  A    between atoms: C_35  and  C_37
REMARK   10  A    between atoms: C_37  and  O_38
REMARK                            x       y       z     vdW  Elec       q    Type
REMARK                         _______ _______ _______ _____ _____    ______ ____
ROOT
ATOM      1  C   UNL     1      34.186 -14.840 -23.311  0.00  0.00    -0.043 C 
ATOM      2  C   UNL     1      34.365 -14.667 -21.938  0.00  0.00    -0.007 C 
ATOM      3  C   UNL     1      34.548 -16.044 -23.914  0.00  0.00    -0.007 C 
ATOM      4  C   UNL     1      34.904 -15.698 -21.169  0.00  0.00    -0.001 C 
ATOM      5  C   UNL     1      35.087 -17.076 -23.146  0.00  0.00    -0.001 C 
ATOM      6  C   UNL     1      35.265 -16.903 -21.773  0.00  0.00    +0.021 C 
ENDROOT
BRANCH   1   7
ATOM      7  C   UNL     1      33.605 -13.726 -24.140  0.00  0.00    -0.050 C 
BRANCH   7   8
ATOM      8  N   UNL     1      33.470 -12.488 -23.371  0.00  0.00    +0.390 N 
ATOM      9  C   UNL     1      32.647  -9.699 -22.893  0.00  0.00    +0.033 C 
ATOM     10  C   UNL     1      31.892 -10.905 -22.305  0.00  0.00    -0.015 C 
ATOM     11  C   UNL     1      34.098 -10.098 -23.220  0.00  0.00    -0.015 C 
ATOM     12  C   UNL     1      34.174 -11.388 -24.043  0.00  0.00    -0.076 C 
ATOM     13  C   UNL     1      32.052 -12.165 -23.163  0.00  0.00    -0.076 C 
ATOM     14  C   UNL     1      32.587  -8.496 -21.974  0.00  0.00    -0.019 C 
ATOM     15  C   UNL     1      31.932  -9.130 -24.118  0.00  0.00    -0.023 C 
ATOM     16  C   UNL     1      31.933  -7.438 -22.623  0.00  0.00    -0.004 C 
ATOM     17  C   UNL     1      31.535  -7.859 -23.952  0.00  0.00    -0.005 C 
ATOM     18  C   UNL     1      33.067  -8.347 -20.683  0.00  0.00    -0.004 C 
ATOM     19  C   UNL     1      31.744  -6.216 -21.998  0.00  0.00    -0.000 C 
ATOM     20  C   UNL     1      32.882  -7.118 -20.044  0.00  0.00    -0.000 C 
ATOM     21  C   UNL     1      32.226  -6.062 -20.696  0.00  0.00    -0.000 C 
ATOM     22  H   UNL     1      33.898 -12.622 -22.456  0.00  0.00    -0.079 HD
ENDBRANCH   7   8
ENDBRANCH   1   7
BRANCH   6  23
ATOM     23  C   UNL     1      35.839 -18.007 -20.951  0.00  0.00    +0.232 C 
BRANCH  23  24
ATOM     24  O   UNL     1      35.342 -19.254 -21.422  0.00  0.00    -0.471 OA
BRANCH  24  25
ATOM     25  C   UNL     1      34.891 -20.136 -20.476  0.00  0.00    +0.139 C 
ATOM     26  C   UNL     1      33.973 -21.929 -18.546  0.00  0.00    -0.010 C 
ATOM     27  C   UNL     1      33.524 -20.252 -20.224  0.00  0.00    +0.037 C 
ATOM     28  C   UNL     1      35.799 -20.917 -19.761  0.00  0.00    +0.037 C 
ATOM     29  C   UNL     1      33.065 -21.149 -19.259  0.00  0.00    -0.000 C 
ATOM     30  C   UNL     1      35.341 -21.813 -18.796  0.00  0.00    -0.000 C 
BRANCH  26  31
ATOM     31  C   UNL     1      33.484 -22.888 -17.514  0.00  0.00    +0.097 C 
BRANCH  31  32
ATOM     32  C   UNL     1      34.452 -23.030 -16.392  0.00  0.00    -0.087 C 
ATOM     33  C   UNL     1      35.245 -23.152 -15.497  0.00  0.00    -0.090 C 
ATOM     34  C   UNL     1      36.209 -23.303 -14.409  0.00  0.00    +0.090 C 
ENDBRANCH  31  32
BRANCH  31  35
ATOM     35  C   UNL     1      32.085 -22.499 -16.962  0.00  0.00    +0.127 C 
BRANCH  35  37
ATOM     36  O   UNL     1      31.276 -24.404 -15.668  0.00  0.00    -0.250 OA
ATOM     37  C   UNL     1      31.681 -23.251 -15.709  0.00  0.00    +0.315 C 
BRANCH  37  38
ATOM     38  O   UNL     1      31.838 -22.480 -14.600  0.00  0.00    -0.480 OA
ATOM     39  H   UNL     1      31.479 -21.616 -14.575  0.00  0.00    +0.295 HD
ENDBRANCH  37  38
ENDBRANCH  35  37
ENDBRANCH  31  35
ENDBRANCH  26  31
ENDBRANCH  24  25
ENDBRANCH  23  24
ENDBRANCH   6  23
TORSDOF 10
ENDMDL
MODEL 2
REMARK VINA RESULT:     -12.4      2.165      4.066
REMARK  Name = 51049992
REMARK  10 active torsions:
REMARK  status: ('A' for Active; 'I' for Inactive)
REMARK    1  A    between atoms: C_1  and  C_7
REMARK    2  A    between atoms: C_6  and  C_23
REMARK    3  A    between atoms: C_7  and  N_8
REMARK    4  A    between atoms: C_23  and  O_24
REMARK    5  A    between atoms: O_24  and  C_25
REMARK    6  A    between atoms: C_26  and  C_31
REMARK    7  A    between atoms: C_31  and  C_32
REMARK    8  A    between atoms: C_31  and  C_35
REMARK    9  A    between atoms: C_35  and  C_37
REMARK   10  A    between atoms: C_37  and  O_38
REMARK                            x       y       z     vdW  Elec       q    Type
REMARK                         _______ _______ _______ _____ _____    ______ ____
ROOT
ATOM      1  C   UNL     1      35.276 -18.129 -22.652  0.00  0.00    -0.043 C 
ATOM      2  C   UNL     1      34.287 -19.021 -22.237  0.00  0.00    -0.007 C 
ATOM      3  C   UNL     1      36.522 -18.128 -22.023  0.00  0.00    -0.007 C 
ATOM      4  C   UNL     1      34.543 -19.911 -21.195  0.00  0.00    -0.001 C 
ATOM      5  C   UNL     1      36.778 -19.018 -20.980  0.00  0.00    -0.001 C 
ATOM      6  C   UNL     1      35.789 -19.910 -20.567  0.00  0.00    +0.021 C 
ENDROOT
BRANCH   1   7
ATOM      7  C   UNL     1      34.999 -17.168 -23.776  0.00  0.00    -0.050 C 
BRANCH   7   8
ATOM      8  N   UNL     1      34.211 -16.019 -23.330  0.00  0.00    +0.390 N 
ATOM      9  C   UNL     1      33.496 -13.167 -23.126  0.00  0.00    +0.033 C 
ATOM     10  C   UNL     1      32.733 -14.157 -24.025  0.00  0.00    -0.015 C 
ATOM     11  C   UNL     1      34.216 -13.930 -22.000  0.00  0.00    -0.015 C 
ATOM     12  C   UNL     1      35.041 -15.107 -22.530  0.00  0.00    -0.076 C 
ATOM     13  C   UNL     1      33.615 -15.327 -24.479  0.00  0.00    -0.076 C 
ATOM     14  C   UNL     1      32.585 -12.086 -22.581  0.00  0.00    -0.019 C 
ATOM     15  C   UNL     1      34.468 -12.308 -23.934  0.00  0.00    -0.023 C 
ATOM     16  C   UNL     1      33.016 -10.831 -23.036  0.00  0.00    -0.004 C 
ATOM     17  C   UNL     1      34.187 -10.997 -23.874  0.00  0.00    -0.005 C 
ATOM     18  C   UNL     1      31.475 -12.199 -21.758  0.00  0.00    -0.004 C 
ATOM     19  C   UNL     1      32.351  -9.669 -22.680  0.00  0.00    -0.000 C 
ATOM     20  C   UNL     1      30.798 -11.033 -21.394  0.00  0.00    -0.000 C 
ATOM     21  C   UNL     1      31.232  -9.778 -21.851  0.00  0.00    -0.000 C 
ATOM     22  H   UNL     1      33.452 -16.352 -22.737  0.00  0.00    -0.079 HD
ENDBRANCH   7   8
ENDBRANCH   1   7
BRANCH   6  23
ATOM     23  C   UNL     1      36.063 -20.864 -19.454  0.00  0.00    +0.232 C 
BRANCH  23  24
ATOM     24  O   UNL     1      35.027 -21.838 -19.399  0.00  0.00    -0.471 OA
BRANCH  24  25
ATOM     25  C   UNL     1      34.653 -22.272 -18.155  0.00  0.00    +0.139 C 
ATOM     26  C   UNL     1      33.893 -23.158 -15.622  0.00  0.00    -0.010 C 
ATOM     27  C   UNL     1      35.588 -22.315 -17.121  0.00  0.00    +0.037 C 
ATOM     28  C   UNL     1      33.338 -22.672 -17.922  0.00  0.00    +0.037 C 
ATOM     29  C   UNL     1      35.208 -22.758 -15.854  0.00  0.00    -0.000 C 
ATOM     30  C   UNL     1      32.957 -23.116 -16.655  0.00  0.00    -0.000 C 
BRANCH  26  31
ATOM     31  C   UNL     1      33.485 -23.632 -14.267  0.00  0.00    +0.097 C 
BRANCH  31  32
ATOM     32  C   UNL     1      32.107 -24.196 -14.274  0.00  0.00    -0.087 C 
ATOM     33  C   UNL     1      30.996 -24.654 -14.263  0.00  0.00    -0.090 C 
ATOM     34  C   UNL     1      29.646 -25.213 -14.248  0.00  0.00    +0.090 C 
ENDBRANCH  31  32
BRANCH  31  35
ATOM     35  C   UNL     1      34.480 -24.669 -13.680  0.00  0.00    +0.127 C 
BRANCH  35  37
ATOM     36  O   UNL     1      35.878 -23.305 -12.217  0.00  0.00    -0.250 OA
ATOM     37  C   UNL     1      35.114 -24.247 -12.369  0.00  0.00    +0.315 C 
BRANCH  37  38
ATOM     38  O   UNL     1      34.714 -25.049 -11.347  0.00  0.00    -0.480 OA
ATOM     39  H   UNL     1      33.818 -25.310 -11.279  0.00  0.00    +0.295 HD
ENDBRANCH  37  38
ENDBRANCH  35  37
ENDBRANCH  31  35
ENDBRANCH  26  31
ENDBRANCH  24  25
ENDBRANCH  23  24
ENDBRANCH   6  23
TORSDOF 10
ENDMDL
MODEL 3
REMARK VINA RESULT:     -12.0      1.867      3.546
REMARK  Name = 51049992
REMARK  10 active torsions:
REMARK  status: ('A' for Active; 'I' for Inactive)
REMARK    1  A    between atoms: C_1  and  C_7
REMARK    2  A    between atoms: C_6  and  C_23
REMARK    3  A    between atoms: C_7  and  N_8
REMARK    4  A    between atoms: C_23  and  O_24
REMARK    5  A    between atoms: O_24  and  C_25
REMARK    6  A    between atoms: C_26  and  C_31
REMARK    7  A    between atoms: C_31  and  C_32
REMARK    8  A    between atoms: C_31  and  C_35
REMARK    9  A    between atoms: C_35  and  C_37
REMARK   10  A    between atoms: C_37  and  O_38
REMARK                            x       y       z     vdW  Elec       q    Type
REMARK                         _______ _______ _______ _____ _____    ______ ____
ROOT
ATOM      1  C   UNL     1      35.298 -18.010 -22.735  0.00  0.00    -0.043 C 
ATOM      2  C   UNL     1      34.400 -19.019 -22.384  0.00  0.00    -0.007 C 
ATOM      3  C   UNL     1      36.494 -17.867 -22.031  0.00  0.00    -0.007 C 
ATOM      4  C   UNL     1      34.699 -19.884 -21.332  0.00  0.00    -0.001 C 
ATOM      5  C   UNL     1      36.792 -18.731 -20.978  0.00  0.00    -0.001 C 
ATOM      6  C   UNL     1      35.895 -19.740 -20.628  0.00  0.00    +0.021 C 
ENDROOT
BRANCH   1   7
ATOM      7  C   UNL     1      34.975 -17.078 -23.871  0.00  0.00    -0.050 C 
BRANCH   7   8
ATOM      8  N   UNL     1      34.184 -15.930 -23.426  0.00  0.00    +0.390 N 
ATOM      9  C   UNL     1      33.484 -13.076 -23.194  0.00  0.00    +0.033 C 
ATOM     10  C   UNL     1      32.738 -14.046 -24.128  0.00  0.00    -0.015 C 
ATOM     11  C   UNL     1      34.170 -13.863 -22.062  0.00  0.00    -0.015 C 
ATOM     12  C   UNL     1      34.999 -15.038 -22.590  0.00  0.00    -0.076 C 
ATOM     13  C   UNL     1      33.622 -15.215 -24.578  0.00  0.00    -0.076 C 
ATOM     14  C   UNL     1      32.567 -11.998 -22.654  0.00  0.00    -0.019 C 
ATOM     15  C   UNL     1      34.483 -12.212 -23.962  0.00  0.00    -0.023 C 
ATOM     16  C   UNL     1      33.019 -10.739 -23.078  0.00  0.00    -0.004 C 
ATOM     17  C   UNL     1      34.210 -10.900 -23.888  0.00  0.00    -0.005 C 
ATOM     18  C   UNL     1      31.437 -12.116 -21.862  0.00  0.00    -0.004 C 
ATOM     19  C   UNL     1      32.354  -9.577 -22.720  0.00  0.00    -0.000 C 
ATOM     20  C   UNL     1      30.758 -10.950 -21.496  0.00  0.00    -0.000 C 
ATOM     21  C   UNL     1      31.213  -9.692 -21.921  0.00  0.00    -0.000 C 
ATOM     22  H   UNL     1      33.408 -16.267 -22.858  0.00  0.00    -0.079 HD
ENDBRANCH   7   8
ENDBRANCH   1   7
BRANCH   6  23
ATOM     23  C   UNL     1      36.216 -20.666 -19.505  0.00  0.00    +0.232 C 
BRANCH  23  24
ATOM     24  O   UNL     1      35.337 -21.785 -19.549  0.00  0.00    -0.471 OA
BRANCH  24  25
ATOM     25  C   UNL     1      34.906 -22.278 -18.346  0.00  0.00    +0.139 C 
ATOM     26  C   UNL     1      34.028 -23.286 -15.897  0.00  0.00    -0.010 C 
ATOM     27  C   UNL     1      35.759 -22.272 -17.242  0.00  0.00    +0.037 C 
ATOM     28  C   UNL     1      33.614 -22.789 -18.225  0.00  0.00    +0.037 C 
ATOM     29  C   UNL     1      35.319 -22.775 -16.018  0.00  0.00    -0.000 C 
ATOM     30  C   UNL     1      33.175 -23.294 -17.001  0.00  0.00    -0.000 C 
BRANCH  26  31
ATOM     31  C   UNL     1      33.557 -23.825 -14.588  0.00  0.00    +0.097 C 
BRANCH  31  32
ATOM     32  C   UNL     1      34.607 -23.714 -13.539  0.00  0.00    -0.087 C 
ATOM     33  C   UNL     1      35.462 -23.611 -12.700  0.00  0.00    -0.090 C 
ATOM     34  C   UNL     1      36.503 -23.487 -11.682  0.00  0.00    +0.090 C 
ENDBRANCH  31  32
BRANCH  31  35
ATOM     35  C   UNL     1      32.249 -23.142 -14.106  0.00  0.00    +0.127 C 
BRANCH  35  37
ATOM     36  O   UNL     1      30.904 -23.779 -12.170  0.00  0.00    -0.250 OA
ATOM     37  C   UNL     1      31.348 -24.041 -13.279  0.00  0.00    +0.315 C 
BRANCH  37  38
ATOM     38  O   UNL     1      31.070 -25.198 -13.935  0.00  0.00    -0.480 OA
ATOM     39  H   UNL     1      31.608 -25.952 -13.803  0.00  0.00    +0.295 HD
ENDBRANCH  37  38
ENDBRANCH  35  37
ENDBRANCH  31  35
ENDBRANCH  26  31
ENDBRANCH  24  25
ENDBRANCH  23  24
ENDBRANCH   6  23
TORSDOF 10
ENDMDL
MODEL 4
REMARK VINA RESULT:     -11.7      3.560     13.432
REMARK  Name = 51049992
REMARK  10 active torsions:
REMARK  status: ('A' for Active; 'I' for Inactive)
REMARK    1  A    between atoms: C_1  and  C_7
REMARK    2  A    between atoms: C_6  and  C_23
REMARK    3  A    between atoms: C_7  and  N_8
REMARK    4  A    between atoms: C_23  and  O_24
REMARK    5  A    between atoms: O_24  and  C_25
REMARK    6  A    between atoms: C_26  and  C_31
REMARK    7  A    between atoms: C_31  and  C_32
REMARK    8  A    between atoms: C_31  and  C_35
REMARK    9  A    between atoms: C_35  and  C_37
REMARK   10  A    between atoms: C_37  and  O_38
REMARK                            x       y       z     vdW  Elec       q    Type
REMARK                         _______ _______ _______ _____ _____    ______ ____
ROOT
ATOM      1  C   UNL     1      33.904 -21.661 -18.879  0.00  0.00    -0.043 C 
ATOM      2  C   UNL     1      33.068 -20.778 -19.563  0.00  0.00    -0.007 C 
ATOM      3  C   UNL     1      35.286 -21.595 -19.060  0.00  0.00    -0.007 C 
ATOM      4  C   UNL     1      33.614 -19.829 -20.427  0.00  0.00    -0.001 C 
ATOM      5  C   UNL     1      35.832 -20.645 -19.924  0.00  0.00    -0.001 C 
ATOM      6  C   UNL     1      34.996 -19.763 -20.607  0.00  0.00    +0.021 C 
ENDROOT
BRANCH   1   7
ATOM      7  C   UNL     1      33.315 -22.685 -17.947  0.00  0.00    -0.050 C 
BRANCH   7   8
ATOM      8  N   UNL     1      34.054 -22.764 -16.686  0.00  0.00    +0.390 N 
ATOM      9  C   UNL     1      35.703 -24.058 -14.614  0.00  0.00    +0.033 C 
ATOM     10  C   UNL     1      36.276 -23.056 -15.632  0.00  0.00    -0.015 C 
ATOM     11  C   UNL     1      34.187 -23.838 -14.459  0.00  0.00    -0.015 C 
ATOM     12  C   UNL     1      33.465 -23.785 -15.809  0.00  0.00    -0.076 C 
ATOM     13  C   UNL     1      35.475 -23.033 -16.939  0.00  0.00    -0.076 C 
ATOM     14  C   UNL     1      36.422 -23.981 -13.284  0.00  0.00    -0.019 C 
ATOM     15  C   UNL     1      36.023 -25.501 -15.004  0.00  0.00    -0.023 C 
ATOM     16  C   UNL     1      37.037 -25.212 -13.007  0.00  0.00    -0.004 C 
ATOM     17  C   UNL     1      36.773 -26.138 -14.091  0.00  0.00    -0.005 C 
ATOM     18  C   UNL     1      36.526 -22.922 -12.396  0.00  0.00    -0.004 C 
ATOM     19  C   UNL     1      37.764 -25.409 -11.845  0.00  0.00    -0.000 C 
ATOM     20  C   UNL     1      37.258 -23.110 -11.221  0.00  0.00    -0.000 C 
ATOM     21  C   UNL     1      37.871 -24.343 -10.947  0.00  0.00    -0.000 C 
ATOM     22  H   UNL     1      33.985 -21.865 -16.209  0.00  0.00    -0.079 HD
ENDBRANCH   7   8
ENDBRANCH   1   7
BRANCH   6  23
ATOM     23  C   UNL     1      35.580 -18.746 -21.528  0.00  0.00    +0.232 C 
BRANCH  23  24
ATOM     24  O   UNL     1      35.792 -17.531 -20.819  0.00  0.00    -0.471 OA
BRANCH  24  25
ATOM     25  C   UNL     1      35.150 -16.418 -21.293  0.00  0.00    +0.139 C 
ATOM     26  C   UNL     1      33.844 -14.150 -22.260  0.00  0.00    -0.010 C 
ATOM     27  C   UNL     1      35.055 -16.200 -22.668  0.00  0.00    +0.037 C 
ATOM     28  C   UNL     1      34.592 -15.502 -20.402  0.00  0.00    +0.037 C 
ATOM     29  C   UNL     1      34.402 -15.066 -23.151  0.00  0.00    -0.000 C 
ATOM     30  C   UNL     1      33.939 -14.367 -20.886  0.00  0.00    -0.000 C 
BRANCH  26  31
ATOM     31  C   UNL     1      33.146 -12.938 -22.776  0.00  0.00    +0.097 C 
BRANCH  31  32
ATOM     32  C   UNL     1      32.469 -12.187 -21.683  0.00  0.00    -0.087 C 
ATOM     33  C   UNL     1      31.932 -11.567 -20.804  0.00  0.00    -0.090 C 
ATOM     34  C   UNL     1      31.283 -10.814 -19.733  0.00  0.00    +0.090 C 
ENDBRANCH  31  32
BRANCH  31  35
ATOM     35  C   UNL     1      34.101 -11.994 -23.556  0.00  0.00    +0.127 C 
BRANCH  35  37
ATOM     36  O   UNL     1      32.473 -10.291 -24.197  0.00  0.00    -0.250 OA
ATOM     37  C   UNL     1      33.569 -10.586 -23.739  0.00  0.00    +0.315 C 
BRANCH  37  38
ATOM     38  O   UNL     1      34.467  -9.659 -23.311  0.00  0.00    -0.480 OA
ATOM     39  H   UNL     1      34.199  -8.772 -23.183  0.00  0.00    +0.295 HD
ENDBRANCH  37  38
ENDBRANCH  35  37
ENDBRANCH  31  35
ENDBRANCH  26  31
ENDBRANCH  24  25
ENDBRANCH  23  24
ENDBRANCH   6  23
TORSDOF 10
ENDMDL
MODEL 5
REMARK VINA RESULT:     -11.7      1.839      2.826
REMARK  Name = 51049992
REMARK  10 active torsions:
REMARK  status: ('A' for Active; 'I' for Inactive)
REMARK    1  A    between atoms: C_1  and  C_7
REMARK    2  A    between atoms: C_6  and  C_23
REMARK    3  A    between atoms: C_7  and  N_8
REMARK    4  A    between atoms: C_23  and  O_24
REMARK    5  A    between atoms: O_24  and  C_25
REMARK    6  A    between atoms: C_26  and  C_31
REMARK    7  A    between atoms: C_31  and  C_32
REMARK    8  A    between atoms: C_31  and  C_35
REMARK    9  A    between atoms: C_35  and  C_37
REMARK   10  A    between atoms: C_37  and  O_38
REMARK                            x       y       z     vdW  Elec       q    Type
REMARK                         _______ _______ _______ _____ _____    ______ ____
ROOT
ATOM      1  C   UNL     1      33.066 -13.381 -21.815  0.00  0.00    -0.043 C 
ATOM      2  C   UNL     1      33.829 -14.100 -20.894  0.00  0.00    -0.007 C 
ATOM      3  C   UNL     1      33.033 -13.779 -23.152  0.00  0.00    -0.007 C 
ATOM      4  C   UNL     1      34.556 -15.215 -21.309  0.00  0.00    -0.001 C 
ATOM      5  C   UNL     1      33.760 -14.894 -23.567  0.00  0.00    -0.001 C 
ATOM      6  C   UNL     1      34.522 -15.612 -22.645  0.00  0.00    +0.021 C 
ENDROOT
BRANCH   1   7
ATOM      7  C   UNL     1      32.282 -12.178 -21.367  0.00  0.00    -0.050 C 
BRANCH   7   8
ATOM      8  N   UNL     1      32.749 -10.951 -22.014  0.00  0.00    +0.390 N 
ATOM      9  C   UNL     1      32.458  -8.359 -23.387  0.00  0.00    +0.033 C 
ATOM     10  C   UNL     1      32.826  -8.479 -21.897  0.00  0.00    -0.015 C 
ATOM     11  C   UNL     1      32.832  -9.658 -24.124  0.00  0.00    -0.015 C 
ATOM     12  C   UNL     1      32.299 -10.905 -23.412  0.00  0.00    -0.076 C 
ATOM     13  C   UNL     1      32.293  -9.771 -21.268  0.00  0.00    -0.076 C 
ATOM     14  C   UNL     1      33.096  -7.144 -24.028  0.00  0.00    -0.019 C 
ATOM     15  C   UNL     1      30.982  -8.012 -23.575  0.00  0.00    -0.023 C 
ATOM     16  C   UNL     1      32.096  -6.275 -24.492  0.00  0.00    -0.004 C 
ATOM     17  C   UNL     1      30.793  -6.838 -24.198  0.00  0.00    -0.005 C 
ATOM     18  C   UNL     1      34.436  -6.832 -24.188  0.00  0.00    -0.004 C 
ATOM     19  C   UNL     1      32.414  -5.083 -25.122  0.00  0.00    -0.000 C 
ATOM     20  C   UNL     1      34.767  -5.632 -24.822  0.00  0.00    -0.000 C 
ATOM     21  C   UNL     1      33.765  -4.765 -25.285  0.00  0.00    -0.000 C 
ATOM     22  H   UNL     1      33.768 -10.947 -22.013  0.00  0.00    -0.079 HD
ENDBRANCH   7   8
ENDBRANCH   1   7
BRANCH   6  23
ATOM     23  C   UNL     1      35.297 -16.806 -23.089  0.00  0.00    +0.232 C 
BRANCH  23  24
ATOM     24  O   UNL     1      36.247 -17.152 -22.087  0.00  0.00    -0.471 OA
BRANCH  24  25
ATOM     25  C   UNL     1      35.995 -18.287 -21.364  0.00  0.00    +0.139 C 
ATOM     26  C   UNL     1      35.484 -20.602 -19.892  0.00  0.00    -0.010 C 
ATOM     27  C   UNL     1      37.025 -18.905 -20.654  0.00  0.00    +0.037 C 
ATOM     28  C   UNL     1      34.710 -18.828 -21.338  0.00  0.00    +0.037 C 
ATOM     29  C   UNL     1      36.769 -20.062 -19.918  0.00  0.00    -0.000 C 
ATOM     30  C   UNL     1      34.454 -19.985 -20.602  0.00  0.00    -0.000 C 
BRANCH  26  31
ATOM     31  C   UNL     1      35.209 -21.839 -19.106  0.00  0.00    +0.097 C 
BRANCH  31  32
ATOM     32  C   UNL     1      36.073 -21.924 -17.896  0.00  0.00    -0.087 C 
ATOM     33  C   UNL     1      36.758 -22.004 -16.912  0.00  0.00    -0.090 C 
ATOM     34  C   UNL     1      37.590 -22.100 -15.714  0.00  0.00    +0.090 C 
ENDBRANCH  31  32
BRANCH  31  35
ATOM     35  C   UNL     1      33.715 -21.962 -18.702  0.00  0.00    +0.127 C 
BRANCH  35  37
ATOM     36  O   UNL     1      32.918 -23.033 -16.659  0.00  0.00    -0.250 OA
ATOM     37  C   UNL     1      33.417 -23.122 -17.772  0.00  0.00    +0.315 C 
BRANCH  37  38
ATOM     38  O   UNL     1      33.764 -24.309 -18.336  0.00  0.00    -0.480 OA
ATOM     39  H   UNL     1      33.657 -25.105 -17.856  0.00  0.00    +0.295 HD
ENDBRANCH  37  38
ENDBRANCH  35  37
ENDBRANCH  31  35
ENDBRANCH  26  31
ENDBRANCH  24  25
ENDBRANCH  23  24
ENDBRANCH   6  23
TORSDOF 10
ENDMDL
MODEL 6
REMARK VINA RESULT:     -11.7      2.290      3.925
REMARK  Name = 51049992
REMARK  10 active torsions:
REMARK  status: ('A' for Active; 'I' for Inactive)
REMARK    1  A    between atoms: C_1  and  C_7
REMARK    2  A    between atoms: C_6  and  C_23
REMARK    3  A    between atoms: C_7  and  N_8
REMARK    4  A    between atoms: C_23  and  O_24
REMARK    5  A    between atoms: O_24  and  C_25
REMARK    6  A    between atoms: C_26  and  C_31
REMARK    7  A    between atoms: C_31  and  C_32
REMARK    8  A    between atoms: C_31  and  C_35
REMARK    9  A    between atoms: C_35  and  C_37
REMARK   10  A    between atoms: C_37  and  O_38
REMARK                            x       y       z     vdW  Elec       q    Type
REMARK                         _______ _______ _______ _____ _____    ______ ____
ROOT
ATOM      1  C   UNL     1      34.931 -17.991 -23.304  0.00  0.00    -0.043 C 
ATOM      2  C   UNL     1      34.221 -19.100 -22.843  0.00  0.00    -0.007 C 
ATOM      3  C   UNL     1      36.070 -17.561 -22.623  0.00  0.00    -0.007 C 
ATOM      4  C   UNL     1      34.651 -19.778 -21.703  0.00  0.00    -0.001 C 
ATOM      5  C   UNL     1      36.500 -18.239 -21.483  0.00  0.00    -0.001 C 
ATOM      6  C   UNL     1      35.790 -19.348 -21.023  0.00  0.00    +0.021 C 
ENDROOT
BRANCH   1   7
ATOM      7  C   UNL     1      34.467 -17.259 -24.535  0.00  0.00    -0.050 C 
BRANCH   7   8
ATOM      8  N   UNL     1      34.471 -15.809 -24.340  0.00  0.00    +0.390 N 
ATOM      9  C   UNL     1      33.430 -13.223 -23.381  0.00  0.00    +0.033 C 
ATOM     10  C   UNL     1      34.585 -13.967 -22.688  0.00  0.00    -0.015 C 
ATOM     11  C   UNL     1      33.323 -13.675 -24.849  0.00  0.00    -0.015 C 
ATOM     12  C   UNL     1      33.302 -15.200 -24.988  0.00  0.00    -0.076 C 
ATOM     13  C   UNL     1      34.516 -15.483 -22.909  0.00  0.00    -0.076 C 
ATOM     14  C   UNL     1      33.577 -11.720 -23.264  0.00  0.00    -0.019 C 
ATOM     15  C   UNL     1      32.109 -13.417 -22.637  0.00  0.00    -0.023 C 
ATOM     16  C   UNL     1      32.487 -11.192 -22.557  0.00  0.00    -0.004 C 
ATOM     17  C   UNL     1      31.590 -12.267 -22.179  0.00  0.00    -0.005 C 
ATOM     18  C   UNL     1      34.583 -10.893 -23.738  0.00  0.00    -0.004 C 
ATOM     19  C   UNL     1      32.379  -9.833 -22.310  0.00  0.00    -0.000 C 
ATOM     20  C   UNL     1      34.483  -9.521 -23.494  0.00  0.00    -0.000 C 
ATOM     21  C   UNL     1      33.390  -8.995 -22.786  0.00  0.00    -0.000 C 
ATOM     22  H   UNL     1      35.307 -15.422 -24.776  0.00  0.00    -0.079 HD
ENDBRANCH   7   8
ENDBRANCH   1   7
BRANCH   6  23
ATOM     23  C   UNL     1      36.251 -20.075 -19.805  0.00  0.00    +0.232 C 
BRANCH  23  24
ATOM     24  O   UNL     1      35.630 -21.355 -19.755  0.00  0.00    -0.471 OA
BRANCH  24  25
ATOM     25  C   UNL     1      35.441 -21.900 -18.513  0.00  0.00    +0.139 C 
ATOM     26  C   UNL     1      35.054 -23.009 -15.983  0.00  0.00    -0.010 C 
ATOM     27  C   UNL     1      34.234 -22.528 -18.203  0.00  0.00    +0.037 C 
ATOM     28  C   UNL     1      36.454 -21.826 -17.557  0.00  0.00    +0.037 C 
ATOM     29  C   UNL     1      34.041 -23.083 -16.938  0.00  0.00    -0.000 C 
ATOM     30  C   UNL     1      36.260 -22.380 -16.291  0.00  0.00    -0.000 C 
BRANCH  26  31
ATOM     31  C   UNL     1      34.848 -23.602 -14.629  0.00  0.00    +0.097 C 
BRANCH  31  32
ATOM     32  C   UNL     1      33.428 -23.500 -14.195  0.00  0.00    -0.087 C 
ATOM     33  C   UNL     1      32.284 -23.401 -13.839  0.00  0.00    -0.090 C 
ATOM     34  C   UNL     1      30.894 -23.281 -13.404  0.00  0.00    +0.090 C 
ENDBRANCH  31  32
BRANCH  31  35
ATOM     35  C   UNL     1      35.322 -25.078 -14.554  0.00  0.00    +0.127 C 
BRANCH  35  37
ATOM     36  O   UNL     1      37.076 -25.219 -12.862  0.00  0.00    -0.250 OA
ATOM     37  C   UNL     1      36.737 -25.250 -14.037  0.00  0.00    +0.315 C 
BRANCH  37  38
ATOM     38  O   UNL     1      37.612 -25.463 -15.055  0.00  0.00    -0.480 OA
ATOM     39  H   UNL     1      37.858 -24.756 -15.617  0.00  0.00    +0.295 HD
ENDBRANCH  37  38
ENDBRANCH  35  37
ENDBRANCH  31  35
ENDBRANCH  26  31
ENDBRANCH  24  25
ENDBRANCH  23  24
ENDBRANCH   6  23
TORSDOF 10
ENDMDL
MODEL 7
REMARK VINA RESULT:     -11.1      2.091      3.872
REMARK  Name = 51049992
REMARK  10 active torsions:
REMARK  status: ('A' for Active; 'I' for Inactive)
REMARK    1  A    between atoms: C_1  and  C_7
REMARK    2  A    between atoms: C_6  and  C_23
REMARK    3  A    between atoms: C_7  and  N_8
REMARK    4  A    between atoms: C_23  and  O_24
REMARK    5  A    between atoms: O_24  and  C_25
REMARK    6  A    between atoms: C_26  and  C_31
REMARK    7  A    between atoms: C_31  and  C_32
REMARK    8  A    between atoms: C_31  and  C_35
REMARK    9  A    between atoms: C_35  and  C_37
REMARK   10  A    between atoms: C_37  and  O_38
REMARK                            x       y       z     vdW  Elec       q    Type
REMARK                         _______ _______ _______ _____ _____    ______ ____
ROOT
ATOM      1  C   UNL     1      32.561 -12.057 -21.829  0.00  0.00    -0.043 C 
ATOM      2  C   UNL     1      32.749 -13.247 -21.125  0.00  0.00    -0.007 C 
ATOM      3  C   UNL     1      32.959 -11.965 -23.163  0.00  0.00    -0.007 C 
ATOM      4  C   UNL     1      33.335 -14.344 -21.755  0.00  0.00    -0.001 C 
ATOM      5  C   UNL     1      33.545 -13.063 -23.793  0.00  0.00    -0.001 C 
ATOM      6  C   UNL     1      33.733 -14.252 -23.089  0.00  0.00    +0.021 C 
ENDROOT
BRANCH   1   7
ATOM      7  C   UNL     1      31.928 -10.873 -21.148  0.00  0.00    -0.050 C 
BRANCH   7   8
ATOM      8  N   UNL     1      32.165  -9.631 -21.885  0.00  0.00    +0.390 N 
ATOM      9  C   UNL     1      31.814  -6.773 -22.517  0.00  0.00    +0.033 C 
ATOM     10  C   UNL     1      33.043  -7.318 -21.767  0.00  0.00    -0.015 C 
ATOM     11  C   UNL     1      31.165  -7.898 -23.344  0.00  0.00    -0.015 C 
ATOM     12  C   UNL     1      30.923  -9.163 -22.515  0.00  0.00    -0.076 C 
ATOM     13  C   UNL     1      32.730  -8.606 -20.997  0.00  0.00    -0.076 C 
ATOM     14  C   UNL     1      32.164  -5.575 -23.375  0.00  0.00    -0.019 C 
ATOM     15  C   UNL     1      30.811  -6.129 -21.561  0.00  0.00    -0.023 C 
ATOM     16  C   UNL     1      31.446  -4.453 -22.934  0.00  0.00    -0.004 C 
ATOM     17  C   UNL     1      30.614  -4.824 -21.807  0.00  0.00    -0.005 C 
ATOM     18  C   UNL     1      33.037  -5.481 -24.447  0.00  0.00    -0.004 C 
ATOM     19  C   UNL     1      31.586  -3.221 -23.552  0.00  0.00    -0.000 C 
ATOM     20  C   UNL     1      33.184  -4.243 -25.077  0.00  0.00    -0.000 C 
ATOM     21  C   UNL     1      32.465  -3.122 -24.633  0.00  0.00    -0.000 C 
ATOM     22  H   UNL     1      32.842  -9.812 -22.625  0.00  0.00    -0.079 HD
ENDBRANCH   7   8
ENDBRANCH   1   7
BRANCH   6  23
ATOM     23  C   UNL     1      34.356 -15.427 -23.764  0.00  0.00    +0.232 C 
BRANCH  23  24
ATOM     24  O   UNL     1      35.478 -15.866 -23.008  0.00  0.00    -0.471 OA
BRANCH  24  25
ATOM     25  C   UNL     1      35.361 -17.075 -22.375  0.00  0.00    +0.139 C 
ATOM     26  C   UNL     1      35.120 -19.538 -21.087  0.00  0.00    -0.010 C 
ATOM     27  C   UNL     1      34.887 -18.186 -23.074  0.00  0.00    +0.037 C 
ATOM     28  C   UNL     1      35.715 -17.197 -21.031  0.00  0.00    +0.037 C 
ATOM     29  C   UNL     1      34.766 -19.417 -22.430  0.00  0.00    -0.000 C 
ATOM     30  C   UNL     1      35.593 -18.428 -20.387  0.00  0.00    -0.000 C 
BRANCH  26  31
ATOM     31  C   UNL     1      34.991 -20.854 -20.397  0.00  0.00    +0.097 C 
BRANCH  31  32
ATOM     32  C   UNL     1      35.853 -20.926 -19.185  0.00  0.00    -0.087 C 
ATOM     33  C   UNL     1      36.536 -20.990 -18.198  0.00  0.00    -0.090 C 
ATOM     34  C   UNL     1      37.364 -21.065 -16.996  0.00  0.00    +0.090 C 
ENDBRANCH  31  32
BRANCH  31  35
ATOM     35  C   UNL     1      33.521 -21.183 -20.022  0.00  0.00    +0.127 C 
BRANCH  35  37
ATOM     36  O   UNL     1      33.956 -23.438 -19.196  0.00  0.00    -0.250 OA
ATOM     37  C   UNL     1      33.368 -22.371 -19.092  0.00  0.00    +0.315 C 
BRANCH  37  38
ATOM     38  O   UNL     1      32.488 -22.104 -18.091  0.00  0.00    -0.480 OA
ATOM     39  H   UNL     1      32.423 -22.682 -17.358  0.00  0.00    +0.295 HD
ENDBRANCH  37  38
ENDBRANCH  35  37
ENDBRANCH  31  35
ENDBRANCH  26  31
ENDBRANCH  24  25
ENDBRANCH  23  24
ENDBRANCH   6  23
TORSDOF 10
ENDMDL
MODEL 8
REMARK VINA RESULT:     -10.6      3.849     13.121
REMARK  Name = 51049992
REMARK  10 active torsions:
REMARK  status: ('A' for Active; 'I' for Inactive)
REMARK    1  A    between atoms: C_1  and  C_7
REMARK    2  A    between atoms: C_6  and  C_23
REMARK    3  A    between atoms: C_7  and  N_8
REMARK    4  A    between atoms: C_23  and  O_24
REMARK    5  A    between atoms: O_24  and  C_25
REMARK    6  A    between atoms: C_26  and  C_31
REMARK    7  A    between atoms: C_31  and  C_32
REMARK    8  A    between atoms: C_31  and  C_35
REMARK    9  A    between atoms: C_35  and  C_37
REMARK   10  A    between atoms: C_37  and  O_38
REMARK                            x       y       z     vdW  Elec       q    Type
REMARK                         _______ _______ _______ _____ _____    ______ ____
ROOT
ATOM      1  C   UNL     1      33.774 -21.564 -18.861  0.00  0.00    -0.043 C 
ATOM      2  C   UNL     1      32.888 -20.768 -19.587  0.00  0.00    -0.007 C 
ATOM      3  C   UNL     1      35.110 -21.656 -19.255  0.00  0.00    -0.007 C 
ATOM      4  C   UNL     1      33.336 -20.064 -20.704  0.00  0.00    -0.001 C 
ATOM      5  C   UNL     1      35.558 -20.952 -20.373  0.00  0.00    -0.001 C 
ATOM      6  C   UNL     1      34.671 -20.156 -21.097  0.00  0.00    +0.021 C 
ENDROOT
BRANCH   1   7
ATOM      7  C   UNL     1      33.290 -22.323 -17.656  0.00  0.00    -0.050 C 
BRANCH   7   8
ATOM      8  N   UNL     1      34.380 -23.032 -16.985  0.00  0.00    +0.390 N 
ATOM      9  C   UNL     1      36.093 -23.791 -14.708  0.00  0.00    +0.033 C 
ATOM     10  C   UNL     1      34.976 -24.700 -15.253  0.00  0.00    -0.015 C 
ATOM     11  C   UNL     1      36.543 -22.804 -15.801  0.00  0.00    -0.015 C 
ATOM     12  C   UNL     1      35.362 -22.078 -16.451  0.00  0.00    -0.076 C 
ATOM     13  C   UNL     1      33.853 -23.901 -15.925  0.00  0.00    -0.076 C 
ATOM     14  C   UNL     1      37.254 -24.594 -14.161  0.00  0.00    -0.019 C 
ATOM     15  C   UNL     1      35.656 -23.062 -13.439  0.00  0.00    -0.023 C 
ATOM     16  C   UNL     1      37.411 -24.327 -12.793  0.00  0.00    -0.004 C 
ATOM     17  C   UNL     1      36.405 -23.372 -12.370  0.00  0.00    -0.005 C 
ATOM     18  C   UNL     1      38.098 -25.481 -14.811  0.00  0.00    -0.004 C 
ATOM     19  C   UNL     1      38.408 -24.937 -12.049  0.00  0.00    -0.000 C 
ATOM     20  C   UNL     1      39.107 -26.102 -14.070  0.00  0.00    -0.000 C 
ATOM     21  C   UNL     1      39.260 -25.832 -12.701  0.00  0.00    -0.000 C 
ATOM     22  H   UNL     1      34.856 -23.622 -17.666  0.00  0.00    -0.079 HD
ENDBRANCH   7   8
ENDBRANCH   1   7
BRANCH   6  23
ATOM     23  C   UNL     1      35.151 -19.402 -22.290  0.00  0.00    +0.232 C 
BRANCH  23  24
ATOM     24  O   UNL     1      36.014 -18.352 -21.870  0.00  0.00    -0.471 OA
BRANCH  24  25
ATOM     25  C   UNL     1      35.442 -17.123 -21.675  0.00  0.00    +0.139 C 
ATOM     26  C   UNL     1      34.273 -14.621 -21.278  0.00  0.00    -0.010 C 
ATOM     27  C   UNL     1      35.117 -16.701 -20.386  0.00  0.00    +0.037 C 
ATOM     28  C   UNL     1      35.182 -16.293 -22.766  0.00  0.00    +0.037 C 
ATOM     29  C   UNL     1      34.533 -15.449 -20.187  0.00  0.00    -0.000 C 
ATOM     30  C   UNL     1      34.598 -15.042 -22.568  0.00  0.00    -0.000 C 
BRANCH  26  31
ATOM     31  C   UNL     1      33.649 -13.283 -21.067  0.00  0.00    +0.097 C 
BRANCH  31  32
ATOM     32  C   UNL     1      33.534 -12.522 -22.342  0.00  0.00    -0.087 C 
ATOM     33  C   UNL     1      33.433 -11.922 -23.379  0.00  0.00    -0.090 C 
ATOM     34  C   UNL     1      33.311 -11.194 -24.640  0.00  0.00    +0.090 C 
ENDBRANCH  31  32
BRANCH  31  35
ATOM     35  C   UNL     1      32.260 -13.381 -20.381  0.00  0.00    +0.127 C 
BRANCH  35  37
ATOM     36  O   UNL     1      31.986 -11.225 -19.270  0.00  0.00    -0.250 OA
ATOM     37  C   UNL     1      31.609 -12.041 -20.100  0.00  0.00    +0.315 C 
BRANCH  37  38
ATOM     38  O   UNL     1      30.537 -11.834 -20.909  0.00  0.00    -0.480 OA
ATOM     39  H   UNL     1      30.013 -12.558 -21.187  0.00  0.00    +0.295 HD
ENDBRANCH  37  38
ENDBRANCH  35  37
ENDBRANCH  31  35
ENDBRANCH  26  31
ENDBRANCH  24  25
ENDBRANCH  23  24
ENDBRANCH   6  23
TORSDOF 10
ENDMDL
MODEL 9
REMARK VINA RESULT:     -10.3      4.222      8.075
REMARK  Name = 51049992
REMARK  10 active torsions:
REMARK  status: ('A' for Active; 'I' for Inactive)
REMARK    1  A    between atoms: C_1  and  C_7
REMARK    2  A    between atoms: C_6  and  C_23
REMARK    3  A    between atoms: C_7  and  N_8
REMARK    4  A    between atoms: C_23  and  O_24
REMARK    5  A    between atoms: O_24  and  C_25
REMARK    6  A    between atoms: C_26  and  C_31
REMARK    7  A    between atoms: C_31  and  C_32
REMARK    8  A    between atoms: C_31  and  C_35
REMARK    9  A    between atoms: C_35  and  C_37
REMARK   10  A    between atoms: C_37  and  O_38
REMARK                            x       y       z     vdW  Elec       q    Type
REMARK                         _______ _______ _______ _____ _____    ______ ____
ROOT
ATOM      1  C   UNL     1      31.900  -7.493 -21.208  0.00  0.00    -0.043 C 
ATOM      2  C   UNL     1      32.271  -7.701 -19.879  0.00  0.00    -0.007 C 
ATOM      3  C   UNL     1      31.511  -8.574 -22.000  0.00  0.00    -0.007 C 
ATOM      4  C   UNL     1      32.253  -8.988 -19.343  0.00  0.00    -0.001 C 
ATOM      5  C   UNL     1      31.492  -9.861 -21.463  0.00  0.00    -0.001 C 
ATOM      6  C   UNL     1      31.863 -10.068 -20.135  0.00  0.00    +0.021 C 
ENDROOT
BRANCH   1   7
ATOM      7  C   UNL     1      31.920  -6.104 -21.786  0.00  0.00    -0.050 C 
BRANCH   7   8
ATOM      8  N   UNL     1      32.247  -6.112 -23.213  0.00  0.00    +0.390 N 
ATOM      9  C   UNL     1      33.236  -4.984 -25.750  0.00  0.00    +0.033 C 
ATOM     10  C   UNL     1      34.056  -5.969 -24.898  0.00  0.00    -0.015 C 
ATOM     11  C   UNL     1      31.738  -5.139 -25.432  0.00  0.00    -0.015 C 
ATOM     12  C   UNL     1      31.455  -5.101 -23.927  0.00  0.00    -0.076 C 
ATOM     13  C   UNL     1      33.686  -5.900 -23.412  0.00  0.00    -0.076 C 
ATOM     14  C   UNL     1      33.518  -5.149 -27.229  0.00  0.00    -0.019 C 
ATOM     15  C   UNL     1      33.705  -3.543 -25.552  0.00  0.00    -0.023 C 
ATOM     16  C   UNL     1      34.060  -3.961 -27.742  0.00  0.00    -0.004 C 
ATOM     17  C   UNL     1      34.166  -2.980 -26.680  0.00  0.00    -0.005 C 
ATOM     18  C   UNL     1      33.315  -6.248 -28.048  0.00  0.00    -0.004 C 
ATOM     19  C   UNL     1      34.410  -3.848 -29.078  0.00  0.00    -0.000 C 
ATOM     20  C   UNL     1      33.664  -6.143 -29.397  0.00  0.00    -0.000 C 
ATOM     21  C   UNL     1      34.207  -4.953 -29.908  0.00  0.00    -0.000 C 
ATOM     22  H   UNL     1      32.009  -7.025 -23.598  0.00  0.00    -0.079 HD
ENDBRANCH   7   8
ENDBRANCH   1   7
BRANCH   6  23
ATOM     23  C   UNL     1      31.841 -11.444 -19.560  0.00  0.00    +0.232 C 
BRANCH  23  24
ATOM     24  O   UNL     1      31.386 -12.361 -20.548  0.00  0.00    -0.471 OA
BRANCH  24  25
ATOM     25  C   UNL     1      32.327 -13.184 -21.106  0.00  0.00    +0.139 C 
ATOM     26  C   UNL     1      34.248 -14.858 -22.243  0.00  0.00    -0.010 C 
ATOM     27  C   UNL     1      33.091 -14.024 -20.295  0.00  0.00    +0.037 C 
ATOM     28  C   UNL     1      32.525 -13.182 -22.487  0.00  0.00    +0.037 C 
ATOM     29  C   UNL     1      34.051 -14.861 -20.863  0.00  0.00    -0.000 C 
ATOM     30  C   UNL     1      33.486 -14.019 -23.056  0.00  0.00    -0.000 C 
BRANCH  26  31
ATOM     31  C   UNL     1      35.274 -15.753 -22.852  0.00  0.00    +0.097 C 
BRANCH  31  32
ATOM     32  C   UNL     1      35.276 -17.100 -22.217  0.00  0.00    -0.087 C 
ATOM     33  C   UNL     1      35.278 -18.179 -21.688  0.00  0.00    -0.090 C 
ATOM     34  C   UNL     1      35.284 -19.491 -21.044  0.00  0.00    +0.090 C 
ENDBRANCH  31  32
BRANCH  31  35
ATOM     35  C   UNL     1      35.099 -15.892 -24.389  0.00  0.00    +0.127 C 
BRANCH  35  37
ATOM     36  O   UNL     1      34.082 -18.093 -24.667  0.00  0.00    -0.250 OA
ATOM     37  C   UNL     1      34.026 -16.879 -24.805  0.00  0.00    +0.315 C 
BRANCH  37  38
ATOM     38  O   UNL     1      32.956 -16.244 -25.352  0.00  0.00    -0.480 OA
ATOM     39  H   UNL     1      32.435 -15.669 -24.829  0.00  0.00    +0.295 HD
ENDBRANCH  37  38
ENDBRANCH  35  37
ENDBRANCH  31  35
ENDBRANCH  26  31
ENDBRANCH  24  25
ENDBRANCH  23  24
ENDBRANCH   6  23
TORSDOF 10
ENDMDL
