MODEL 1
REMARK VINA RESULT:     -11.6      0.000      0.000
REMARK  Name = 11224409
REMARK  8 active torsions:
REMARK  status: ('A' for Active; 'I' for Inactive)
REMARK    1  A    between atoms: C_2  and  N_10
REMARK    2  A    between atoms: C_5  and  C_20
REMARK    3  A    between atoms: C_11  and  C_14
REMARK    4  A    between atoms: C_14  and  N_16
REMARK    5  A    between atoms: C_21  and  C_26
REMARK    6  A    between atoms: C_26  and  N_27
REMARK    7  A    between atoms: N_27  and  C_30
REMARK    8  A    between atoms: C_30  and  C_34
REMARK                            x       y       z     vdW  Elec       q    Type
REMARK                         _______ _______ _______ _____ _____    ______ ____
ROOT
ATOM      1  F   UNL     1      32.746 -20.854 -19.607  0.00  0.00    -0.204 F 
ATOM      2  C   UNL     1      35.030 -18.959 -21.706  0.00  0.00    +0.059 C 
ATOM      3  C   UNL     1      33.848 -19.493 -21.190  0.00  0.00    +0.045 C 
ATOM      4  C   UNL     1      36.254 -19.283 -21.119  0.00  0.00    +0.015 C 
ATOM      5  C   UNL     1      35.115 -20.672 -19.505  0.00  0.00    +0.028 C 
ATOM      6  C   UNL     1      33.891 -20.349 -20.090  0.00  0.00    +0.141 C 
ATOM      7  C   UNL     1      36.297 -20.139 -20.019  0.00  0.00    +0.004 C 
ENDROOT
BRANCH   2  10
ATOM      8  O   UNL     1      34.615 -17.241 -24.889  0.00  0.00    -0.434 OA
ATOM      9  O   UNL     1      33.930 -19.371 -24.512  0.00  0.00    -0.226 OA
ATOM     10  N   UNL     1      34.986 -18.086 -22.828  0.00  0.00    -0.221 N 
ATOM     11  C   UNL     1      35.059 -16.142 -24.083  0.00  0.00    +0.210 C 
ATOM     12  C   UNL     1      35.616 -16.792 -22.835  0.00  0.00    +0.147 C 
ATOM     13  C   UNL     1      34.451 -18.349 -24.087  0.00  0.00    +0.409 C 
BRANCH  11  14
ATOM     14  C   UNL     1      33.874 -15.227 -23.805  0.00  0.00    +0.135 C 
BRANCH  14  16
ATOM     15  O   UNL     1      32.298 -13.089 -22.631  0.00  0.00    -0.275 OA
ATOM     16  N   UNL     1      33.845 -14.820 -22.431  0.00  0.00    -0.301 N 
ATOM     17  C   UNL     1      33.055 -13.779 -21.954  0.00  0.00    +0.223 C 
ATOM     18  C   UNL     1      33.197 -13.579 -20.468  0.00  0.00    +0.095 C 
ATOM     19  H   UNL     1      34.415 -15.304 -21.790  0.00  0.00    +0.150 HD
ENDBRANCH  14  16
ENDBRANCH  11  14
ENDBRANCH   2  10
BRANCH   5  20
ATOM     20  C   UNL     1      35.164 -21.560 -18.363  0.00  0.00    +0.002 C 
ATOM     21  C   UNL     1      35.257 -23.271 -16.162  0.00  0.00    -0.044 C 
ATOM     22  C   UNL     1      36.300 -21.596 -17.556  0.00  0.00    -0.000 C 
ATOM     23  C   UNL     1      34.073 -22.381 -18.070  0.00  0.00    -0.000 C 
ATOM     24  C   UNL     1      36.346 -22.450 -16.454  0.00  0.00    -0.006 C 
ATOM     25  C   UNL     1      34.120 -23.236 -16.970  0.00  0.00    -0.006 C 
BRANCH  21  26
ATOM     26  C   UNL     1      35.307 -24.184 -14.984  0.00  0.00    -0.054 C 
BRANCH  26  27
ATOM     27  N   UNL     1      36.657 -24.307 -14.430  0.00  0.00    +0.390 N 
ATOM     28  H   UNL     1      36.633 -24.082 -13.436  0.00  0.00    -0.083 HD
ATOM     29  H   UNL     1      37.274 -23.663 -14.923  0.00  0.00    -0.083 HD
BRANCH  27  30
ATOM     30  C   UNL     1      37.161 -25.661 -14.601  0.00  0.00    -0.031 C 
BRANCH  30  34
ATOM     31  N   UNL     1      39.250 -26.870 -14.056  0.00  0.00    -0.170 NA
ATOM     32  N   UNL     1      40.535 -26.483 -14.014  0.00  0.00    -0.157 N 
ATOM     33  N   UNL     1      40.830 -25.207 -14.310  0.00  0.00    -0.162 NA
ATOM     34  C   UNL     1      38.654 -25.730 -14.418  0.00  0.00    +0.077 C 
ATOM     35  C   UNL     1      39.613 -24.720 -14.571  0.00  0.00    +0.133 C 
ATOM     36  H   UNL     1      41.245 -27.120 -13.770  0.00  0.00    +0.197 HD
ENDBRANCH  30  34
ENDBRANCH  27  30
ENDBRANCH  26  27
ENDBRANCH  21  26
ENDBRANCH   5  20
TORSDOF 8
ENDMDL
MODEL 2
REMARK VINA RESULT:     -11.6      5.542      9.949
REMARK  Name = 11224409
REMARK  8 active torsions:
REMARK  status: ('A' for Active; 'I' for Inactive)
REMARK    1  A    between atoms: C_2  and  N_10
REMARK    2  A    between atoms: C_5  and  C_20
REMARK    3  A    between atoms: C_11  and  C_14
REMARK    4  A    between atoms: C_14  and  N_16
REMARK    5  A    between atoms: C_21  and  C_26
REMARK    6  A    between atoms: C_26  and  N_27
REMARK    7  A    between atoms: N_27  and  C_30
REMARK    8  A    between atoms: C_30  and  C_34
REMARK                            x       y       z     vdW  Elec       q    Type
REMARK                         _______ _______ _______ _____ _____    ______ ____
ROOT
ATOM      1  F   UNL     1      31.560 -12.929 -21.298  0.00  0.00    -0.204 F 
ATOM      2  C   UNL     1      32.152  -9.525 -22.427  0.00  0.00    +0.059 C 
ATOM      3  C   UNL     1      31.619 -10.608 -21.726  0.00  0.00    +0.045 C 
ATOM      4  C   UNL     1      33.147  -9.735 -23.382  0.00  0.00    +0.015 C 
ATOM      5  C   UNL     1      33.077 -12.108 -22.935  0.00  0.00    +0.028 C 
ATOM      6  C   UNL     1      32.082 -11.899 -21.980  0.00  0.00    +0.141 C 
ATOM      7  C   UNL     1      33.610 -11.026 -23.636  0.00  0.00    +0.004 C 
ENDROOT
BRANCH   2  10
ATOM      8  O   UNL     1      31.262  -6.225 -21.173  0.00  0.00    -0.434 OA
ATOM      9  O   UNL     1      32.502  -7.721 -20.003  0.00  0.00    -0.226 OA
ATOM     10  N   UNL     1      31.679  -8.208 -22.168  0.00  0.00    -0.221 N 
ATOM     11  C   UNL     1      30.812  -6.092 -22.528  0.00  0.00    +0.210 C 
ATOM     12  C   UNL     1      30.788  -7.511 -23.056  0.00  0.00    +0.147 C 
ATOM     13  C   UNL     1      31.894  -7.439 -21.026  0.00  0.00    +0.409 C 
BRANCH  11  14
ATOM     14  C   UNL     1      31.779  -5.188 -23.280  0.00  0.00    +0.135 C 
BRANCH  14  16
ATOM     15  O   UNL     1      33.475  -6.264 -25.377  0.00  0.00    -0.275 OA
ATOM     16  N   UNL     1      33.128  -5.655 -23.155  0.00  0.00    -0.301 N 
ATOM     17  C   UNL     1      33.870  -6.158 -24.219  0.00  0.00    +0.223 C 
ATOM     18  C   UNL     1      35.265  -6.554 -23.817  0.00  0.00    +0.095 C 
ATOM     19  H   UNL     1      33.553  -5.619 -22.267  0.00  0.00    +0.150 HD
ENDBRANCH  14  16
ENDBRANCH  11  14
ENDBRANCH   2  10
BRANCH   5  20
ATOM     20  C   UNL     1      33.559 -13.446 -23.202  0.00  0.00    +0.002 C 
ATOM     21  C   UNL     1      34.492 -16.024 -23.718  0.00  0.00    -0.044 C 
ATOM     22  C   UNL     1      33.164 -14.111 -24.362  0.00  0.00    -0.000 C 
ATOM     23  C   UNL     1      34.422 -14.070 -22.300  0.00  0.00    -0.000 C 
ATOM     24  C   UNL     1      33.630 -15.400 -24.620  0.00  0.00    -0.006 C 
ATOM     25  C   UNL     1      34.888 -15.359 -22.557  0.00  0.00    -0.006 C 
BRANCH  21  26
ATOM     26  C   UNL     1      34.991 -17.402 -23.995  0.00  0.00    -0.054 C 
BRANCH  26  27
ATOM     27  N   UNL     1      35.749 -17.957 -22.872  0.00  0.00    +0.390 N 
ATOM     28  H   UNL     1      35.942 -17.216 -22.199  0.00  0.00    -0.083 HD
ATOM     29  H   UNL     1      36.620 -18.349 -23.227  0.00  0.00    -0.083 HD
BRANCH  27  30
ATOM     30  C   UNL     1      34.994 -19.012 -22.215  0.00  0.00    -0.031 C 
BRANCH  30  34
ATOM     31  N   UNL     1      36.731 -18.843 -20.461  0.00  0.00    -0.170 NA
ATOM     32  N   UNL     1      37.005 -19.595 -19.383  0.00  0.00    -0.157 N 
ATOM     33  N   UNL     1      36.234 -20.668 -19.138  0.00  0.00    -0.162 NA
ATOM     34  C   UNL     1      35.677 -19.493 -20.962  0.00  0.00    +0.077 C 
ATOM     35  C   UNL     1      35.376 -20.602 -20.159  0.00  0.00    +0.133 C 
ATOM     36  H   UNL     1      37.754 -19.366 -18.787  0.00  0.00    +0.197 HD
ENDBRANCH  30  34
ENDBRANCH  27  30
ENDBRANCH  26  27
ENDBRANCH  21  26
ENDBRANCH   5  20
TORSDOF 8
ENDMDL
MODEL 3
REMARK VINA RESULT:     -11.5      1.595      2.153
REMARK  Name = 11224409
REMARK  8 active torsions:
REMARK  status: ('A' for Active; 'I' for Inactive)
REMARK    1  A    between atoms: C_2  and  N_10
REMARK    2  A    between atoms: C_5  and  C_20
REMARK    3  A    between atoms: C_11  and  C_14
REMARK    4  A    between atoms: C_14  and  N_16
REMARK    5  A    between atoms: C_21  and  C_26
REMARK    6  A    between atoms: C_26  and  N_27
REMARK    7  A    between atoms: N_27  and  C_30
REMARK    8  A    between atoms: C_30  and  C_34
REMARK                            x       y       z     vdW  Elec       q    Type
REMARK                         _______ _______ _______ _____ _____    ______ ____
ROOT
ATOM      1  F   UNL     1      33.090 -20.967 -19.809  0.00  0.00    -0.204 F 
ATOM      2  C   UNL     1      35.093 -18.789 -21.920  0.00  0.00    +0.059 C 
ATOM      3  C   UNL     1      33.997 -19.484 -21.407  0.00  0.00    +0.045 C 
ATOM      4  C   UNL     1      36.343 -18.915 -21.315  0.00  0.00    +0.015 C 
ATOM      5  C   UNL     1      35.403 -20.431 -19.686  0.00  0.00    +0.028 C 
ATOM      6  C   UNL     1      34.153 -20.305 -20.290  0.00  0.00    +0.141 C 
ATOM      7  C   UNL     1      36.499 -19.736 -20.198  0.00  0.00    +0.004 C 
ENDROOT
BRANCH   2  10
ATOM      8  O   UNL     1      34.434 -17.199 -25.128  0.00  0.00    -0.434 OA
ATOM      9  O   UNL     1      33.986 -19.379 -24.691  0.00  0.00    -0.226 OA
ATOM     10  N   UNL     1      34.934 -17.951 -23.060  0.00  0.00    -0.221 N 
ATOM     11  C   UNL     1      34.774 -16.040 -24.356  0.00  0.00    +0.210 C 
ATOM     12  C   UNL     1      35.422 -16.599 -23.107  0.00  0.00    +0.147 C 
ATOM     13  C   UNL     1      34.404 -18.299 -24.300  0.00  0.00    +0.409 C 
BRANCH  11  14
ATOM     14  C   UNL     1      33.505 -15.249 -24.071  0.00  0.00    +0.135 C 
BRANCH  14  16
ATOM     15  O   UNL     1      34.124 -13.181 -22.129  0.00  0.00    -0.275 OA
ATOM     16  N   UNL     1      33.699 -13.851 -24.319  0.00  0.00    -0.301 N 
ATOM     17  C   UNL     1      33.994 -12.926 -23.323  0.00  0.00    +0.223 C 
ATOM     18  C   UNL     1      34.172 -11.531 -23.862  0.00  0.00    +0.095 C 
ATOM     19  H   UNL     1      33.619 -13.528 -25.246  0.00  0.00    +0.150 HD
ENDBRANCH  14  16
ENDBRANCH  11  14
ENDBRANCH   2  10
BRANCH   5  20
ATOM     20  C   UNL     1      35.569 -21.282 -18.527  0.00  0.00    +0.002 C 
ATOM     21  C   UNL     1      35.890 -22.924 -16.296  0.00  0.00    -0.044 C 
ATOM     22  C   UNL     1      34.533 -22.125 -18.127  0.00  0.00    -0.000 C 
ATOM     23  C   UNL     1      36.767 -21.261 -17.811  0.00  0.00    -0.000 C 
ATOM     24  C   UNL     1      34.694 -22.947 -17.011  0.00  0.00    -0.006 C 
ATOM     25  C   UNL     1      36.927 -22.081 -16.695  0.00  0.00    -0.006 C 
BRANCH  21  26
ATOM     26  C   UNL     1      36.062 -23.803 -15.103  0.00  0.00    -0.054 C 
BRANCH  26  27
ATOM     27  N   UNL     1      37.431 -24.303 -14.970  0.00  0.00    +0.390 N 
ATOM     28  H   UNL     1      38.037 -23.542 -14.664  0.00  0.00    -0.083 HD
ATOM     29  H   UNL     1      37.740 -24.659 -15.874  0.00  0.00    -0.083 HD
BRANCH  27  30
ATOM     30  C   UNL     1      37.492 -25.383 -13.997  0.00  0.00    -0.031 C 
BRANCH  30  34
ATOM     31  N   UNL     1      38.347 -23.914 -12.198  0.00  0.00    -0.170 NA
ATOM     32  N   UNL     1      38.000 -23.766 -10.910  0.00  0.00    -0.157 N 
ATOM     33  N   UNL     1      37.005 -24.526 -10.422  0.00  0.00    -0.162 NA
ATOM     34  C   UNL     1      37.489 -24.864 -12.583  0.00  0.00    +0.077 C 
ATOM     35  C   UNL     1      36.675 -25.235 -11.505  0.00  0.00    +0.133 C 
ATOM     36  H   UNL     1      38.465 -23.116 -10.334  0.00  0.00    +0.197 HD
ENDBRANCH  30  34
ENDBRANCH  27  30
ENDBRANCH  26  27
ENDBRANCH  21  26
ENDBRANCH   5  20
TORSDOF 8
ENDMDL
MODEL 4
REMARK VINA RESULT:     -11.4      6.307     10.451
REMARK  Name = 11224409
REMARK  8 active torsions:
REMARK  status: ('A' for Active; 'I' for Inactive)
REMARK    1  A    between atoms: C_2  and  N_10
REMARK    2  A    between atoms: C_5  and  C_20
REMARK    3  A    between atoms: C_11  and  C_14
REMARK    4  A    between atoms: C_14  and  N_16
REMARK    5  A    between atoms: C_21  and  C_26
REMARK    6  A    between atoms: C_26  and  N_27
REMARK    7  A    between atoms: N_27  and  C_30
REMARK    8  A    between atoms: C_30  and  C_34
REMARK                            x       y       z     vdW  Elec       q    Type
REMARK                         _______ _______ _______ _____ _____    ______ ____
ROOT
ATOM      1  F   UNL     1      31.380 -12.467 -21.463  0.00  0.00    -0.204 F 
ATOM      2  C   UNL     1      32.239  -9.032 -22.282  0.00  0.00    +0.059 C 
ATOM      3  C   UNL     1      31.603 -10.129 -21.699  0.00  0.00    +0.045 C 
ATOM      4  C   UNL     1      33.273  -9.231 -23.197  0.00  0.00    +0.015 C 
ATOM      5  C   UNL     1      33.035 -11.622 -22.946  0.00  0.00    +0.028 C 
ATOM      6  C   UNL     1      32.001 -11.423 -22.032  0.00  0.00    +0.141 C 
ATOM      7  C   UNL     1      33.672 -10.525 -23.529  0.00  0.00    +0.004 C 
ENDROOT
BRANCH   2  10
ATOM      8  O   UNL     1      31.552  -5.756 -20.849  0.00  0.00    -0.434 OA
ATOM      9  O   UNL     1      32.813  -7.337 -19.822  0.00  0.00    -0.226 OA
ATOM     10  N   UNL     1      31.832  -7.710 -21.943  0.00  0.00    -0.221 N 
ATOM     11  C   UNL     1      31.019  -5.555 -22.165  0.00  0.00    +0.210 C 
ATOM     12  C   UNL     1      30.909  -6.950 -22.742  0.00  0.00    +0.147 C 
ATOM     13  C   UNL     1      32.149  -6.995 -20.790  0.00  0.00    +0.409 C 
BRANCH  11  14
ATOM     14  C   UNL     1      31.965  -4.654 -22.946  0.00  0.00    +0.135 C 
BRANCH  14  16
ATOM     15  O   UNL     1      34.350  -5.852 -24.092  0.00  0.00    -0.275 OA
ATOM     16  N   UNL     1      32.143  -5.129 -24.287  0.00  0.00    -0.301 N 
ATOM     17  C   UNL     1      33.327  -5.691 -24.753  0.00  0.00    +0.223 C 
ATOM     18  C   UNL     1      33.234  -6.128 -26.191  0.00  0.00    +0.095 C 
ATOM     19  H   UNL     1      31.386  -5.051 -24.912  0.00  0.00    +0.150 HD
ENDBRANCH  14  16
ENDBRANCH  11  14
ENDBRANCH   2  10
BRANCH   5  20
ATOM     20  C   UNL     1      33.452 -12.963 -23.294  0.00  0.00    +0.002 C 
ATOM     21  C   UNL     1      34.257 -15.548 -23.967  0.00  0.00    -0.044 C 
ATOM     22  C   UNL     1      32.986 -13.556 -24.468  0.00  0.00    -0.000 C 
ATOM     23  C   UNL     1      34.321 -13.664 -22.457  0.00  0.00    -0.000 C 
ATOM     24  C   UNL     1      33.389 -14.848 -24.804  0.00  0.00    -0.006 C 
ATOM     25  C   UNL     1      34.723 -14.956 -22.793  0.00  0.00    -0.006 C 
BRANCH  21  26
ATOM     26  C   UNL     1      34.687 -16.930 -24.327  0.00  0.00    -0.054 C 
BRANCH  26  27
ATOM     27  N   UNL     1      35.544 -17.532 -23.304  0.00  0.00    +0.390 N 
ATOM     28  H   UNL     1      35.685 -16.862 -22.548  0.00  0.00    -0.083 HD
ATOM     29  H   UNL     1      36.437 -17.780 -23.728  0.00  0.00    -0.083 HD
BRANCH  27  30
ATOM     30  C   UNL     1      34.931 -18.736 -22.765  0.00  0.00    -0.031 C 
BRANCH  30  34
ATOM     31  N   UNL     1      35.029 -20.109 -20.708  0.00  0.00    -0.170 NA
ATOM     32  N   UNL     1      35.924 -20.180 -19.710  0.00  0.00    -0.157 N 
ATOM     33  N   UNL     1      37.005 -19.383 -19.760  0.00  0.00    -0.162 NA
ATOM     34  C   UNL     1      35.588 -19.174 -21.483  0.00  0.00    +0.077 C 
ATOM     35  C   UNL     1      36.787 -18.733 -20.907  0.00  0.00    +0.133 C 
ATOM     36  H   UNL     1      35.791 -20.800 -18.958  0.00  0.00    +0.197 HD
ENDBRANCH  30  34
ENDBRANCH  27  30
ENDBRANCH  26  27
ENDBRANCH  21  26
ENDBRANCH   5  20
TORSDOF 8
ENDMDL
MODEL 5
REMARK VINA RESULT:     -11.3      4.969      8.682
REMARK  Name = 11224409
REMARK  8 active torsions:
REMARK  status: ('A' for Active; 'I' for Inactive)
REMARK    1  A    between atoms: C_2  and  N_10
REMARK    2  A    between atoms: C_5  and  C_20
REMARK    3  A    between atoms: C_11  and  C_14
REMARK    4  A    between atoms: C_14  and  N_16
REMARK    5  A    between atoms: C_21  and  C_26
REMARK    6  A    between atoms: C_26  and  N_27
REMARK    7  A    between atoms: N_27  and  C_30
REMARK    8  A    between atoms: C_30  and  C_34
REMARK                            x       y       z     vdW  Elec       q    Type
REMARK                         _______ _______ _______ _____ _____    ______ ____
ROOT
ATOM      1  F   UNL     1      31.850 -13.757 -20.865  0.00  0.00    -0.204 F 
ATOM      2  C   UNL     1      32.381 -10.702 -22.761  0.00  0.00    +0.059 C 
ATOM      3  C   UNL     1      31.820 -11.624 -21.877  0.00  0.00    +0.045 C 
ATOM      4  C   UNL     1      33.524 -11.038 -23.486  0.00  0.00    +0.015 C 
ATOM      5  C   UNL     1      33.544 -13.218 -22.444  0.00  0.00    +0.028 C 
ATOM      6  C   UNL     1      32.401 -12.882 -21.719  0.00  0.00    +0.141 C 
ATOM      7  C   UNL     1      34.107 -12.296 -23.327  0.00  0.00    +0.004 C 
ENDROOT
BRANCH   2  10
ATOM      8  O   UNL     1      30.863  -7.402 -22.500  0.00  0.00    -0.434 OA
ATOM      9  O   UNL     1      31.461  -8.656 -20.706  0.00  0.00    -0.226 OA
ATOM     10  N   UNL     1      31.787  -9.418 -22.923  0.00  0.00    -0.221 N 
ATOM     11  C   UNL     1      31.107  -7.439 -23.913  0.00  0.00    +0.210 C 
ATOM     12  C   UNL     1      31.396  -8.896 -24.205  0.00  0.00    +0.147 C 
ATOM     13  C   UNL     1      31.400  -8.531 -21.921  0.00  0.00    +0.409 C 
BRANCH  11  14
ATOM     14  C   UNL     1      32.276  -6.519 -24.234  0.00  0.00    +0.135 C 
BRANCH  14  16
ATOM     15  O   UNL     1      34.329  -6.736 -22.192  0.00  0.00    -0.275 OA
ATOM     16  N   UNL     1      33.506  -7.250 -24.310  0.00  0.00    -0.301 N 
ATOM     17  C   UNL     1      34.437  -7.300 -23.278  0.00  0.00    +0.223 C 
ATOM     18  C   UNL     1      35.627  -8.159 -23.613  0.00  0.00    +0.095 C 
ATOM     19  H   UNL     1      33.702  -7.745 -25.140  0.00  0.00    +0.150 HD
ENDBRANCH  14  16
ENDBRANCH  11  14
ENDBRANCH   2  10
BRANCH   5  20
ATOM     20  C   UNL     1      34.151 -14.522 -22.283  0.00  0.00    +0.002 C 
ATOM     21  C   UNL     1      35.318 -17.036 -21.973  0.00  0.00    -0.044 C 
ATOM     22  C   UNL     1      34.500 -14.976 -21.012  0.00  0.00    -0.000 C 
ATOM     23  C   UNL     1      34.386 -15.325 -23.400  0.00  0.00    -0.000 C 
ATOM     24  C   UNL     1      35.083 -16.234 -20.856  0.00  0.00    -0.006 C 
ATOM     25  C   UNL     1      34.970 -16.581 -23.245  0.00  0.00    -0.006 C 
BRANCH  21  26
ATOM     26  C   UNL     1      35.942 -18.381 -21.806  0.00  0.00    -0.054 C 
BRANCH  26  27
ATOM     27  N   UNL     1      35.492 -19.057 -20.588  0.00  0.00    +0.390 N 
ATOM     28  H   UNL     1      35.338 -18.363 -19.857  0.00  0.00    -0.083 HD
ATOM     29  H   UNL     1      36.209 -19.722 -20.299  0.00  0.00    -0.083 HD
BRANCH  27  30
ATOM     30  C   UNL     1      34.254 -19.780 -20.829  0.00  0.00    -0.031 C 
BRANCH  30  34
ATOM     31  N   UNL     1      32.836 -21.291 -19.475  0.00  0.00    -0.170 NA
ATOM     32  N   UNL     1      33.131 -22.283 -18.621  0.00  0.00    -0.157 N 
ATOM     33  N   UNL     1      34.423 -22.577 -18.401  0.00  0.00    -0.162 NA
ATOM     34  C   UNL     1      34.061 -20.904 -19.846  0.00  0.00    +0.077 C 
ATOM     35  C   UNL     1      35.024 -21.685 -19.193  0.00  0.00    +0.133 C 
ATOM     36  H   UNL     1      32.416 -22.784 -18.165  0.00  0.00    +0.197 HD
ENDBRANCH  30  34
ENDBRANCH  27  30
ENDBRANCH  26  27
ENDBRANCH  21  26
ENDBRANCH   5  20
TORSDOF 8
ENDMDL
MODEL 6
REMARK VINA RESULT:     -11.2      5.188      9.037
REMARK  Name = 11224409
REMARK  8 active torsions:
REMARK  status: ('A' for Active; 'I' for Inactive)
REMARK    1  A    between atoms: C_2  and  N_10
REMARK    2  A    between atoms: C_5  and  C_20
REMARK    3  A    between atoms: C_11  and  C_14
REMARK    4  A    between atoms: C_14  and  N_16
REMARK    5  A    between atoms: C_21  and  C_26
REMARK    6  A    between atoms: C_26  and  N_27
REMARK    7  A    between atoms: N_27  and  C_30
REMARK    8  A    between atoms: C_30  and  C_34
REMARK                            x       y       z     vdW  Elec       q    Type
REMARK                         _______ _______ _______ _____ _____    ______ ____
ROOT
ATOM      1  F   UNL     1      31.874 -13.698 -21.024  0.00  0.00    -0.204 F 
ATOM      2  C   UNL     1      32.559 -10.676 -22.923  0.00  0.00    +0.059 C 
ATOM      3  C   UNL     1      31.940 -11.574 -22.054  0.00  0.00    +0.045 C 
ATOM      4  C   UNL     1      33.720 -11.050 -23.601  0.00  0.00    +0.015 C 
ATOM      5  C   UNL     1      33.641 -13.219 -22.541  0.00  0.00    +0.028 C 
ATOM      6  C   UNL     1      32.481 -12.846 -21.863  0.00  0.00    +0.141 C 
ATOM      7  C   UNL     1      34.261 -12.321 -23.410  0.00  0.00    +0.004 C 
ENDROOT
BRANCH   2  10
ATOM      8  O   UNL     1      31.106  -7.342 -22.749  0.00  0.00    -0.434 OA
ATOM      9  O   UNL     1      31.562  -8.611 -20.925  0.00  0.00    -0.226 OA
ATOM     10  N   UNL     1      32.006  -9.379 -23.119  0.00  0.00    -0.221 N 
ATOM     11  C   UNL     1      31.435  -7.384 -24.144  0.00  0.00    +0.210 C 
ATOM     12  C   UNL     1      31.708  -8.847 -24.421  0.00  0.00    +0.147 C 
ATOM     13  C   UNL     1      31.580  -8.483 -22.141  0.00  0.00    +0.409 C 
BRANCH  11  14
ATOM     14  C   UNL     1      32.643  -6.490 -24.391  0.00  0.00    +0.135 C 
BRANCH  14  16
ATOM     15  O   UNL     1      31.389  -4.038 -25.310  0.00  0.00    -0.275 OA
ATOM     16  N   UNL     1      32.525  -5.252 -23.679  0.00  0.00    -0.301 N 
ATOM     17  C   UNL     1      31.905  -4.121 -24.199  0.00  0.00    +0.223 C 
ATOM     18  C   UNL     1      31.900  -2.967 -23.232  0.00  0.00    +0.095 C 
ATOM     19  H   UNL     1      32.906  -5.199 -22.771  0.00  0.00    +0.150 HD
ENDBRANCH  14  16
ENDBRANCH  11  14
ENDBRANCH   2  10
BRANCH   5  20
ATOM     20  C   UNL     1      34.206 -14.537 -22.346  0.00  0.00    +0.002 C 
ATOM     21  C   UNL     1      35.293 -17.078 -21.970  0.00  0.00    -0.044 C 
ATOM     22  C   UNL     1      34.534 -14.972 -21.062  0.00  0.00    -0.000 C 
ATOM     23  C   UNL     1      34.422 -15.373 -23.442  0.00  0.00    -0.000 C 
ATOM     24  C   UNL     1      35.077 -16.243 -20.874  0.00  0.00    -0.006 C 
ATOM     25  C   UNL     1      34.965 -16.643 -23.254  0.00  0.00    -0.006 C 
BRANCH  21  26
ATOM     26  C   UNL     1      35.873 -18.437 -21.768  0.00  0.00    -0.054 C 
BRANCH  26  27
ATOM     27  N   UNL     1      35.402 -19.067 -20.533  0.00  0.00    +0.390 N 
ATOM     28  H   UNL     1      35.244 -18.347 -19.828  0.00  0.00    -0.083 HD
ATOM     29  H   UNL     1      36.110 -19.727 -20.211  0.00  0.00    -0.083 HD
BRANCH  27  30
ATOM     30  C   UNL     1      34.162 -19.789 -20.765  0.00  0.00    -0.031 C 
BRANCH  30  34
ATOM     31  N   UNL     1      32.768 -21.278 -19.363  0.00  0.00    -0.170 NA
ATOM     32  N   UNL     1      33.074 -22.295 -18.542  0.00  0.00    -0.157 N 
ATOM     33  N   UNL     1      34.365 -22.634 -18.395  0.00  0.00    -0.162 NA
ATOM     34  C   UNL     1      33.983 -20.925 -19.792  0.00  0.00    +0.077 C 
ATOM     35  C   UNL     1      34.953 -21.748 -19.204  0.00  0.00    +0.133 C 
ATOM     36  H   UNL     1      32.368 -22.780 -18.057  0.00  0.00    +0.197 HD
ENDBRANCH  30  34
ENDBRANCH  27  30
ENDBRANCH  26  27
ENDBRANCH  21  26
ENDBRANCH   5  20
TORSDOF 8
ENDMDL
MODEL 7
REMARK VINA RESULT:     -11.1      6.182     10.746
REMARK  Name = 11224409
REMARK  8 active torsions:
REMARK  status: ('A' for Active; 'I' for Inactive)
REMARK    1  A    between atoms: C_2  and  N_10
REMARK    2  A    between atoms: C_5  and  C_20
REMARK    3  A    between atoms: C_11  and  C_14
REMARK    4  A    between atoms: C_14  and  N_16
REMARK    5  A    between atoms: C_21  and  C_26
REMARK    6  A    between atoms: C_26  and  N_27
REMARK    7  A    between atoms: N_27  and  C_30
REMARK    8  A    between atoms: C_30  and  C_34
REMARK                            x       y       z     vdW  Elec       q    Type
REMARK                         _______ _______ _______ _____ _____    ______ ____
ROOT
ATOM      1  F   UNL     1      34.879 -10.809 -24.207  0.00  0.00    -0.204 F 
ATOM      2  C   UNL     1      32.194  -9.110 -22.443  0.00  0.00    +0.059 C 
ATOM      3  C   UNL     1      33.339  -9.322 -23.211  0.00  0.00    +0.045 C 
ATOM      4  C   UNL     1      31.487 -10.198 -21.930  0.00  0.00    +0.015 C 
ATOM      5  C   UNL     1      33.070 -11.709 -22.953  0.00  0.00    +0.028 C 
ATOM      6  C   UNL     1      33.777 -10.622 -23.466  0.00  0.00    +0.141 C 
ATOM      7  C   UNL     1      31.924 -11.498 -22.186  0.00  0.00    +0.004 C 
ENDROOT
BRANCH   2  10
ATOM      8  O   UNL     1      31.506  -5.730 -21.277  0.00  0.00    -0.434 OA
ATOM      9  O   UNL     1      33.050  -7.095 -20.331  0.00  0.00    -0.226 OA
ATOM     10  N   UNL     1      31.747  -7.784 -22.182  0.00  0.00    -0.221 N 
ATOM     11  C   UNL     1      30.737  -5.723 -22.487  0.00  0.00    +0.210 C 
ATOM     12  C   UNL     1      30.641  -7.183 -22.878  0.00  0.00    +0.147 C 
ATOM     13  C   UNL     1      32.202  -6.915 -21.193  0.00  0.00    +0.409 C 
BRANCH  11  14
ATOM     14  C   UNL     1      31.457  -4.871 -23.523  0.00  0.00    +0.135 C 
BRANCH  14  16
ATOM     15  O   UNL     1      31.209  -1.978 -23.522  0.00  0.00    -0.275 OA
ATOM     16  N   UNL     1      30.530  -4.076 -24.274  0.00  0.00    -0.301 N 
ATOM     17  C   UNL     1      30.482  -2.687 -24.212  0.00  0.00    +0.223 C 
ATOM     18  C   UNL     1      29.433  -2.104 -25.121  0.00  0.00    +0.095 C 
ATOM     19  H   UNL     1      29.893  -4.539 -24.866  0.00  0.00    +0.150 HD
ENDBRANCH  14  16
ENDBRANCH  11  14
ENDBRANCH   2  10
BRANCH   5  20
ATOM     20  C   UNL     1      33.520 -13.059 -23.215  0.00  0.00    +0.002 C 
ATOM     21  C   UNL     1      34.387 -15.662 -23.719  0.00  0.00    -0.044 C 
ATOM     22  C   UNL     1      34.321 -13.720 -22.284  0.00  0.00    -0.000 C 
ATOM     23  C   UNL     1      33.153 -13.700 -24.399  0.00  0.00    -0.000 C 
ATOM     24  C   UNL     1      34.754 -15.022 -22.536  0.00  0.00    -0.006 C 
ATOM     25  C   UNL     1      33.587 -15.001 -24.652  0.00  0.00    -0.006 C 
BRANCH  21  26
ATOM     26  C   UNL     1      34.850 -17.054 -23.988  0.00  0.00    -0.054 C 
BRANCH  26  27
ATOM     27  N   UNL     1      35.655 -17.596 -22.891  0.00  0.00    +0.390 N 
ATOM     28  H   UNL     1      35.526 -17.015 -22.063  0.00  0.00    -0.083 HD
ATOM     29  H   UNL     1      36.635 -17.597 -23.173  0.00  0.00    -0.083 HD
BRANCH  27  30
ATOM     30  C   UNL     1      35.254 -18.960 -22.586  0.00  0.00    -0.031 C 
BRANCH  30  34
ATOM     31  N   UNL     1      36.834 -18.828 -20.685  0.00  0.00    -0.170 NA
ATOM     32  N   UNL     1      36.927 -19.517 -19.537  0.00  0.00    -0.157 N 
ATOM     33  N   UNL     1      36.026 -20.483 -19.294  0.00  0.00    -0.162 NA
ATOM     34  C   UNL     1      35.766 -19.407 -21.242  0.00  0.00    +0.077 C 
ATOM     35  C   UNL     1      35.275 -20.412 -20.397  0.00  0.00    +0.133 C 
ATOM     36  H   UNL     1      37.640 -19.318 -18.887  0.00  0.00    +0.197 HD
ENDBRANCH  30  34
ENDBRANCH  27  30
ENDBRANCH  26  27
ENDBRANCH  21  26
ENDBRANCH   5  20
TORSDOF 8
ENDMDL
MODEL 8
REMARK VINA RESULT:     -10.8      2.127      3.584
REMARK  Name = 11224409
REMARK  8 active torsions:
REMARK  status: ('A' for Active; 'I' for Inactive)
REMARK    1  A    between atoms: C_2  and  N_10
REMARK    2  A    between atoms: C_5  and  C_20
REMARK    3  A    between atoms: C_11  and  C_14
REMARK    4  A    between atoms: C_14  and  N_16
REMARK    5  A    between atoms: C_21  and  C_26
REMARK    6  A    between atoms: C_26  and  N_27
REMARK    7  A    between atoms: N_27  and  C_30
REMARK    8  A    between atoms: C_30  and  C_34
REMARK                            x       y       z     vdW  Elec       q    Type
REMARK                         _______ _______ _______ _____ _____    ______ ____
ROOT
ATOM      1  F   UNL     1      32.904 -20.777 -19.686  0.00  0.00    -0.204 F 
ATOM      2  C   UNL     1      35.052 -18.821 -21.870  0.00  0.00    +0.059 C 
ATOM      3  C   UNL     1      33.907 -19.398 -21.318  0.00  0.00    +0.045 C 
ATOM      4  C   UNL     1      36.302 -19.078 -21.307  0.00  0.00    +0.015 C 
ATOM      5  C   UNL     1      35.263 -20.487 -19.642  0.00  0.00    +0.028 C 
ATOM      6  C   UNL     1      34.013 -20.231 -20.204  0.00  0.00    +0.141 C 
ATOM      7  C   UNL     1      36.408 -19.911 -20.193  0.00  0.00    +0.004 C 
ENDROOT
BRANCH   2  10
ATOM      8  O   UNL     1      34.452 -17.169 -25.058  0.00  0.00    -0.434 OA
ATOM      9  O   UNL     1      33.785 -19.288 -24.596  0.00  0.00    -0.226 OA
ATOM     10  N   UNL     1      34.943 -17.971 -23.006  0.00  0.00    -0.221 N 
ATOM     11  C   UNL     1      34.945 -16.054 -24.304  0.00  0.00    +0.210 C 
ATOM     12  C   UNL     1      35.574 -16.681 -23.078  0.00  0.00    +0.147 C 
ATOM     13  C   UNL     1      34.333 -18.259 -24.225  0.00  0.00    +0.409 C 
BRANCH  11  14
ATOM     14  C   UNL     1      33.782 -15.129 -23.976  0.00  0.00    +0.135 C 
BRANCH  14  16
ATOM     15  O   UNL     1      32.166 -13.083 -22.698  0.00  0.00    -0.275 OA
ATOM     16  N   UNL     1      33.809 -14.732 -22.599  0.00  0.00    -0.301 N 
ATOM     17  C   UNL     1      32.994 -13.736 -22.070  0.00  0.00    +0.223 C 
ATOM     18  C   UNL     1      33.209 -13.537 -20.593  0.00  0.00    +0.095 C 
ATOM     19  H   UNL     1      34.439 -15.189 -21.995  0.00  0.00    +0.150 HD
ENDBRANCH  14  16
ENDBRANCH  11  14
ENDBRANCH   2  10
BRANCH   5  20
ATOM     20  C   UNL     1      35.378 -21.351 -18.487  0.00  0.00    +0.002 C 
ATOM     21  C   UNL     1      35.601 -23.018 -16.261  0.00  0.00    -0.044 C 
ATOM     22  C   UNL     1      34.327 -22.202 -18.145  0.00  0.00    -0.000 C 
ATOM     23  C   UNL     1      36.541 -21.335 -17.716  0.00  0.00    -0.000 C 
ATOM     24  C   UNL     1      34.439 -23.036 -17.032  0.00  0.00    -0.006 C 
ATOM     25  C   UNL     1      36.652 -22.167 -16.603  0.00  0.00    -0.006 C 
BRANCH  21  26
ATOM     26  C   UNL     1      35.720 -23.910 -15.072  0.00  0.00    -0.054 C 
BRANCH  26  27
ATOM     27  N   UNL     1      35.121 -23.323 -13.872  0.00  0.00    +0.390 N 
ATOM     28  H   UNL     1      34.587 -22.495 -14.135  0.00  0.00    -0.083 HD
ATOM     29  H   UNL     1      35.866 -23.072 -13.223  0.00  0.00    -0.083 HD
BRANCH  27  30
ATOM     30  C   UNL     1      34.235 -24.276 -13.221  0.00  0.00    -0.031 C 
BRANCH  30  34
ATOM     31  N   UNL     1      31.984 -23.546 -12.496  0.00  0.00    -0.170 NA
ATOM     32  N   UNL     1      30.827 -23.392 -13.157  0.00  0.00    -0.157 N 
ATOM     33  N   UNL     1      30.798 -23.668 -14.472  0.00  0.00    -0.162 NA
ATOM     34  C   UNL     1      32.786 -23.961 -13.482  0.00  0.00    +0.077 C 
ATOM     35  C   UNL     1      32.065 -24.036 -14.681  0.00  0.00    +0.133 C 
ATOM     36  H   UNL     1      30.017 -23.086 -12.690  0.00  0.00    +0.197 HD
ENDBRANCH  30  34
ENDBRANCH  27  30
ENDBRANCH  26  27
ENDBRANCH  21  26
ENDBRANCH   5  20
TORSDOF 8
ENDMDL
MODEL 9
REMARK VINA RESULT:     -10.6      4.311     12.140
REMARK  Name = 11224409
REMARK  8 active torsions:
REMARK  status: ('A' for Active; 'I' for Inactive)
REMARK    1  A    between atoms: C_2  and  N_10
REMARK    2  A    between atoms: C_5  and  C_20
REMARK    3  A    between atoms: C_11  and  C_14
REMARK    4  A    between atoms: C_14  and  N_16
REMARK    5  A    between atoms: C_21  and  C_26
REMARK    6  A    between atoms: C_26  and  N_27
REMARK    7  A    between atoms: N_27  and  C_30
REMARK    8  A    between atoms: C_30  and  C_34
REMARK                            x       y       z     vdW  Elec       q    Type
REMARK                         _______ _______ _______ _____ _____    ______ ____
ROOT
ATOM      1  F   UNL     1      34.288 -14.189 -19.969  0.00  0.00    -0.204 F 
ATOM      2  C   UNL     1      35.117 -17.333 -21.593  0.00  0.00    +0.059 C 
ATOM      3  C   UNL     1      34.911 -16.378 -20.596  0.00  0.00    +0.045 C 
ATOM      4  C   UNL     1      34.893 -17.005 -22.930  0.00  0.00    +0.015 C 
ATOM      5  C   UNL     1      34.257 -14.768 -22.275  0.00  0.00    +0.028 C 
ATOM      6  C   UNL     1      34.481 -15.095 -20.938  0.00  0.00    +0.141 C 
ATOM      7  C   UNL     1      34.463 -15.722 -23.271  0.00  0.00    +0.004 C 
ENDROOT
BRANCH   2  10
ATOM      8  O   UNL     1      36.841 -20.388 -20.618  0.00  0.00    -0.434 OA
ATOM      9  O   UNL     1      37.858 -18.366 -20.772  0.00  0.00    -0.226 OA
ATOM     10  N   UNL     1      35.555 -18.641 -21.244  0.00  0.00    -0.221 N 
ATOM     11  C   UNL     1      35.490 -20.866 -20.606  0.00  0.00    +0.210 C 
ATOM     12  C   UNL     1      34.709 -19.800 -21.345  0.00  0.00    +0.147 C 
ATOM     13  C   UNL     1      36.838 -19.033 -20.867  0.00  0.00    +0.409 C 
BRANCH  11  14
ATOM     14  C   UNL     1      35.044 -21.042 -19.161  0.00  0.00    +0.135 C 
BRANCH  14  16
ATOM     15  O   UNL     1      35.206 -22.767 -16.830  0.00  0.00    -0.275 OA
ATOM     16  N   UNL     1      36.168 -21.227 -18.291  0.00  0.00    -0.301 N 
ATOM     17  C   UNL     1      36.157 -22.078 -17.191  0.00  0.00    +0.223 C 
ATOM     18  C   UNL     1      37.476 -22.102 -16.464  0.00  0.00    +0.095 C 
ATOM     19  H   UNL     1      36.992 -20.723 -18.482  0.00  0.00    +0.150 HD
ENDBRANCH  14  16
ENDBRANCH  11  14
ENDBRANCH   2  10
BRANCH   5  20
ATOM     20  C   UNL     1      33.812 -13.438 -22.634  0.00  0.00    +0.002 C 
ATOM     21  C   UNL     1      32.952 -10.877 -23.327  0.00  0.00    -0.044 C 
ATOM     22  C   UNL     1      34.504 -12.709 -23.600  0.00  0.00    -0.000 C 
ATOM     23  C   UNL     1      32.690 -12.887 -22.014  0.00  0.00    -0.000 C 
ATOM     24  C   UNL     1      34.073 -11.428 -23.947  0.00  0.00    -0.006 C 
ATOM     25  C   UNL     1      32.260 -11.607 -22.360  0.00  0.00    -0.006 C 
BRANCH  21  26
ATOM     26  C   UNL     1      32.492  -9.508 -23.699  0.00  0.00    -0.054 C 
BRANCH  26  27
ATOM     27  N   UNL     1      31.293  -9.103 -22.963  0.00  0.00    +0.390 N 
ATOM     28  H   UNL     1      31.102  -9.787 -22.231  0.00  0.00    -0.083 HD
ATOM     29  H   UNL     1      30.510  -9.054 -23.614  0.00  0.00    -0.083 HD
BRANCH  27  30
ATOM     30  C   UNL     1      31.480  -7.794 -22.357  0.00  0.00    -0.031 C 
BRANCH  30  34
ATOM     31  N   UNL     1      33.033  -6.997 -20.602  0.00  0.00    -0.170 NA
ATOM     32  N   UNL     1      33.324  -7.458 -19.375  0.00  0.00    -0.157 N 
ATOM     33  N   UNL     1      32.696  -8.562 -18.939  0.00  0.00    -0.162 NA
ATOM     34  C   UNL     1      32.124  -7.893 -20.999  0.00  0.00    +0.077 C 
ATOM     35  C   UNL     1      31.920  -8.843 -19.989  0.00  0.00    +0.133 C 
ATOM     36  H   UNL     1      33.984  -6.997 -18.808  0.00  0.00    +0.197 HD
ENDBRANCH  30  34
ENDBRANCH  27  30
ENDBRANCH  26  27
ENDBRANCH  21  26
ENDBRANCH   5  20
TORSDOF 8
ENDMDL
