MODEL 1
REMARK VINA RESULT:     -11.2      0.000      0.000
REMARK  Name = 11442891
REMARK  5 active torsions:
REMARK  status: ('A' for Active; 'I' for Inactive)
REMARK    1  A    between atoms: C_12  and  C_30
REMARK    2  A    between atoms: C_13  and  C_19
REMARK    3  A    between atoms: C_16  and  N_22
REMARK    4  A    between atoms: C_30  and  C_31
REMARK    5  A    between atoms: C_30  and  O_37
REMARK                            x       y       z     vdW  Elec       q    Type
REMARK                         _______ _______ _______ _____ _____    ______ ____
ROOT
ATOM      1  O   UNL     1      32.309 -11.621 -20.998  0.00  0.00    -0.271 OA
ATOM      2  O   UNL     1      35.506 -18.940 -23.680  0.00  0.00    -0.270 OA
ATOM      3  N   UNL     1      33.057 -12.815 -22.832  0.00  0.00    -0.231 N 
ATOM      4  N   UNL     1      34.330 -15.167 -25.236  0.00  0.00    -0.273 N 
ATOM      5  N   UNL     1      34.667 -16.356 -24.677  0.00  0.00    -0.157 NA
ATOM      6  N   UNL     1      34.580 -17.179 -22.425  0.00  0.00    -0.264 N 
ATOM      7  C   UNL     1      33.374 -14.054 -22.048  0.00  0.00    +0.077 C 
ATOM      8  C   UNL     1      33.875 -14.926 -23.110  0.00  0.00    +0.067 A 
ATOM      9  C   UNL     1      33.353 -12.932 -24.300  0.00  0.00    +0.091 C 
ATOM     10  C   UNL     1      33.855 -14.302 -24.318  0.00  0.00    +0.093 A 
ATOM     11  C   UNL     1      34.384 -16.195 -23.371  0.00  0.00    +0.157 A 
ATOM     12  C   UNL     1      32.541 -11.691 -22.206  0.00  0.00    +0.265 C 
ATOM     13  C   UNL     1      35.114 -18.459 -22.623  0.00  0.00    +0.251 C 
ATOM     14  H   UNL     1      34.420 -14.961 -26.194  0.00  0.00    +0.189 HD
ATOM     15  H   UNL     1      34.314 -16.957 -21.504  0.00  0.00    +0.157 HD
ENDROOT
BRANCH  13  19
ATOM     16  C   UNL     1      35.451 -20.863 -19.102  0.00  0.00    +0.048 C 
ATOM     17  C   UNL     1      34.224 -20.751 -19.755  0.00  0.00    +0.015 C 
ATOM     18  C   UNL     1      36.569 -20.191 -19.597  0.00  0.00    +0.015 C 
ATOM     19  C   UNL     1      35.232 -19.295 -21.399  0.00  0.00    +0.054 C 
ATOM     20  C   UNL     1      34.114 -19.967 -20.904  0.00  0.00    +0.006 C 
ATOM     21  C   UNL     1      36.459 -19.407 -20.745  0.00  0.00    +0.006 C 
BRANCH  16  22
ATOM     22  N   UNL     1      35.562 -21.648 -17.949  0.00  0.00    -0.312 N 
ATOM     23  N   UNL     1      35.824 -23.455 -15.752  0.00  0.00    +0.388 N 
ATOM     24  C   UNL     1      36.888 -21.948 -17.399  0.00  0.00    +0.068 C 
ATOM     25  C   UNL     1      34.527 -22.659 -17.700  0.00  0.00    +0.068 C 
ATOM     26  C   UNL     1      36.780 -22.354 -15.927  0.00  0.00    -0.056 C 
ATOM     27  C   UNL     1      34.495 -23.040 -16.218  0.00  0.00    -0.056 C 
ATOM     28  C   UNL     1      35.769 -23.869 -14.351  0.00  0.00    -0.101 C 
ATOM     29  H   UNL     1      36.133 -24.252 -16.307  0.00  0.00    -0.080 HD
ENDBRANCH  16  22
ENDBRANCH  13  19
BRANCH  12  30
ATOM     30  C   UNL     1      32.268 -10.513 -23.108  0.00  0.00    +0.214 C 
BRANCH  30  31
ATOM     31  C   UNL     1      31.998  -9.272 -22.305  0.00  0.00    +0.013 C 
ATOM     32  C   UNL     1      31.395  -8.169 -22.909  0.00  0.00    -0.001 C 
ATOM     33  C   UNL     1      32.352  -9.223 -20.957  0.00  0.00    -0.001 C 
ATOM     34  C   UNL     1      31.145  -7.016 -22.165  0.00  0.00    -0.000 C 
ATOM     35  C   UNL     1      32.103  -8.070 -20.212  0.00  0.00    -0.000 C 
ATOM     36  C   UNL     1      31.499  -6.967 -20.816  0.00  0.00    -0.000 C 
ENDBRANCH  30  31
BRANCH  30  37
ATOM     37  O   UNL     1      33.405 -10.344 -23.931  0.00  0.00    -0.340 OA
ATOM     38  C   UNL     1      34.357  -9.463 -23.343  0.00  0.00    +0.175 C 
ENDBRANCH  30  37
ENDBRANCH  12  30
TORSDOF 5
ENDMDL
MODEL 2
REMARK VINA RESULT:     -10.9      1.077      1.538
REMARK  Name = 11442891
REMARK  5 active torsions:
REMARK  status: ('A' for Active; 'I' for Inactive)
REMARK    1  A    between atoms: C_12  and  C_30
REMARK    2  A    between atoms: C_13  and  C_19
REMARK    3  A    between atoms: C_16  and  N_22
REMARK    4  A    between atoms: C_30  and  C_31
REMARK    5  A    between atoms: C_30  and  O_37
REMARK                            x       y       z     vdW  Elec       q    Type
REMARK                         _______ _______ _______ _____ _____    ______ ____
ROOT
ATOM      1  O   UNL     1      32.414 -12.156 -20.071  0.00  0.00    -0.271 OA
ATOM      2  O   UNL     1      35.907 -19.280 -22.904  0.00  0.00    -0.270 OA
ATOM      3  N   UNL     1      33.220 -13.275 -21.928  0.00  0.00    -0.231 N 
ATOM      4  N   UNL     1      34.599 -15.517 -24.377  0.00  0.00    -0.273 N 
ATOM      5  N   UNL     1      34.977 -16.706 -23.845  0.00  0.00    -0.157 NA
ATOM      6  N   UNL     1      34.905 -17.587 -21.614  0.00  0.00    -0.264 N 
ATOM      7  C   UNL     1      33.578 -14.520 -21.171  0.00  0.00    +0.077 C 
ATOM      8  C   UNL     1      34.119 -15.346 -22.250  0.00  0.00    +0.067 A 
ATOM      9  C   UNL     1      33.531 -13.344 -23.395  0.00  0.00    +0.091 C 
ATOM     10  C   UNL     1      34.085 -14.694 -23.443  0.00  0.00    +0.093 A 
ATOM     11  C   UNL     1      34.678 -16.588 -22.538  0.00  0.00    +0.157 A 
ATOM     12  C   UNL     1      32.657 -12.187 -21.278  0.00  0.00    +0.265 C 
ATOM     13  C   UNL     1      35.489 -18.841 -21.838  0.00  0.00    +0.251 C 
ATOM     14  H   UNL     1      34.689 -15.284 -25.329  0.00  0.00    +0.189 HD
ATOM     15  H   UNL     1      34.623 -17.398 -20.690  0.00  0.00    +0.157 HD
ENDROOT
BRANCH  13  19
ATOM     16  C   UNL     1      35.891 -21.316 -18.374  0.00  0.00    +0.048 C 
ATOM     17  C   UNL     1      34.685 -21.287 -19.075  0.00  0.00    +0.015 C 
ATOM     18  C   UNL     1      36.966 -20.538 -18.804  0.00  0.00    +0.015 C 
ATOM     19  C   UNL     1      35.629 -19.701 -20.634  0.00  0.00    +0.054 C 
ATOM     20  C   UNL     1      34.554 -20.479 -20.205  0.00  0.00    +0.006 C 
ATOM     21  C   UNL     1      36.835 -19.731 -19.934  0.00  0.00    +0.006 C 
BRANCH  16  22
ATOM     22  N   UNL     1      36.023 -22.125 -17.240  0.00  0.00    -0.312 N 
ATOM     23  N   UNL     1      36.242 -23.563 -14.782  0.00  0.00    +0.388 N 
ATOM     24  C   UNL     1      34.828 -22.709 -16.623  0.00  0.00    +0.068 C 
ATOM     25  C   UNL     1      37.143 -21.860 -16.330  0.00  0.00    +0.068 C 
ATOM     26  C   UNL     1      35.205 -23.917 -15.760  0.00  0.00    -0.056 C 
ATOM     27  C   UNL     1      37.446 -23.096 -15.479  0.00  0.00    -0.056 C 
ATOM     28  C   UNL     1      36.555 -24.709 -13.930  0.00  0.00    -0.101 C 
ATOM     29  H   UNL     1      35.892 -22.812 -14.188  0.00  0.00    -0.080 HD
ENDBRANCH  16  22
ENDBRANCH  13  19
BRANCH  12  30
ATOM     30  C   UNL     1      32.346 -10.999 -22.153  0.00  0.00    +0.214 C 
BRANCH  30  31
ATOM     31  C   UNL     1      32.297  -9.733 -21.345  0.00  0.00    +0.013 C 
ATOM     32  C   UNL     1      31.559  -9.688 -20.163  0.00  0.00    -0.001 C 
ATOM     33  C   UNL     1      32.991  -8.603 -21.777  0.00  0.00    -0.001 C 
ATOM     34  C   UNL     1      31.513  -8.514 -19.412  0.00  0.00    -0.000 C 
ATOM     35  C   UNL     1      32.946  -7.428 -21.027  0.00  0.00    -0.000 C 
ATOM     36  C   UNL     1      32.207  -7.383 -19.845  0.00  0.00    -0.000 C 
ENDBRANCH  30  31
BRANCH  30  37
ATOM     37  O   UNL     1      33.358 -10.929 -23.139  0.00  0.00    -0.340 OA
ATOM     38  C   UNL     1      32.890 -10.307 -24.332  0.00  0.00    +0.175 C 
ENDBRANCH  30  37
ENDBRANCH  12  30
TORSDOF 5
ENDMDL
MODEL 3
REMARK VINA RESULT:     -10.5      5.141      8.708
REMARK  Name = 11442891
REMARK  5 active torsions:
REMARK  status: ('A' for Active; 'I' for Inactive)
REMARK    1  A    between atoms: C_12  and  C_30
REMARK    2  A    between atoms: C_13  and  C_19
REMARK    3  A    between atoms: C_16  and  N_22
REMARK    4  A    between atoms: C_30  and  C_31
REMARK    5  A    between atoms: C_30  and  O_37
REMARK                            x       y       z     vdW  Elec       q    Type
REMARK                         _______ _______ _______ _____ _____    ______ ____
ROOT
ATOM      1  O   UNL     1      34.333  -5.951 -27.864  0.00  0.00    -0.271 OA
ATOM      2  O   UNL     1      31.106  -9.949 -21.187  0.00  0.00    -0.270 OA
ATOM      3  N   UNL     1      32.901  -5.789 -26.055  0.00  0.00    -0.231 N 
ATOM      4  N   UNL     1      30.869  -6.171 -23.114  0.00  0.00    -0.273 N 
ATOM      5  N   UNL     1      31.007  -7.392 -22.537  0.00  0.00    -0.157 NA
ATOM      6  N   UNL     1      32.327  -9.316 -23.095  0.00  0.00    -0.264 N 
ATOM      7  C   UNL     1      33.178  -7.177 -25.559  0.00  0.00    +0.077 C 
ATOM      8  C   UNL     1      32.313  -7.220 -24.380  0.00  0.00    +0.067 A 
ATOM      9  C   UNL     1      31.915  -5.027 -25.217  0.00  0.00    +0.091 C 
ATOM     10  C   UNL     1      31.639  -6.050 -24.212  0.00  0.00    +0.093 A 
ATOM     11  C   UNL     1      31.896  -8.025 -23.324  0.00  0.00    +0.157 A 
ATOM     12  C   UNL     1      33.528  -5.305 -27.194  0.00  0.00    +0.265 C 
ATOM     13  C   UNL     1      31.922 -10.182 -22.072  0.00  0.00    +0.251 C 
ATOM     14  H   UNL     1      30.280  -5.462 -22.772  0.00  0.00    +0.189 HD
ATOM     15  H   UNL     1      32.998  -9.669 -23.724  0.00  0.00    +0.157 HD
ENDROOT
BRANCH  13  19
ATOM     16  C   UNL     1      33.714 -14.065 -22.148  0.00  0.00    +0.048 C 
ATOM     17  C   UNL     1      32.832 -13.723 -21.122  0.00  0.00    +0.015 C 
ATOM     18  C   UNL     1      34.011 -13.140 -23.149  0.00  0.00    +0.015 C 
ATOM     19  C   UNL     1      32.545 -11.532 -22.098  0.00  0.00    +0.054 C 
ATOM     20  C   UNL     1      32.248 -12.457 -21.097  0.00  0.00    +0.006 C 
ATOM     21  C   UNL     1      33.427 -11.874 -23.124  0.00  0.00    +0.006 C 
BRANCH  16  22
ATOM     22  N   UNL     1      34.301 -15.334 -22.172  0.00  0.00    -0.312 N 
ATOM     23  N   UNL     1      35.727 -17.807 -22.271  0.00  0.00    +0.388 N 
ATOM     24  C   UNL     1      34.941 -15.862 -20.962  0.00  0.00    +0.068 C 
ATOM     25  C   UNL     1      34.855 -15.815 -23.444  0.00  0.00    +0.068 C 
ATOM     26  C   UNL     1      35.053 -17.387 -21.036  0.00  0.00    -0.056 C 
ATOM     27  C   UNL     1      34.968 -17.341 -23.437  0.00  0.00    -0.056 C 
ATOM     28  C   UNL     1      35.877 -19.262 -22.304  0.00  0.00    -0.101 C 
ATOM     29  H   UNL     1      36.658 -17.392 -22.296  0.00  0.00    -0.080 HD
ENDBRANCH  16  22
ENDBRANCH  13  19
BRANCH  12  30
ATOM     30  C   UNL     1      33.162  -3.895 -27.586  0.00  0.00    +0.214 C 
BRANCH  30  31
ATOM     31  C   UNL     1      34.358  -3.156 -28.116  0.00  0.00    +0.013 C 
ATOM     32  C   UNL     1      34.518  -2.983 -29.491  0.00  0.00    -0.001 C 
ATOM     33  C   UNL     1      35.309  -2.644 -27.233  0.00  0.00    -0.001 C 
ATOM     34  C   UNL     1      35.628  -2.298 -29.983  0.00  0.00    -0.000 C 
ATOM     35  C   UNL     1      36.420  -1.959 -27.725  0.00  0.00    -0.000 C 
ATOM     36  C   UNL     1      36.580  -1.786 -29.100  0.00  0.00    -0.000 C 
ENDBRANCH  30  31
BRANCH  30  37
ATOM     37  O   UNL     1      32.149  -3.984 -28.568  0.00  0.00    -0.340 OA
ATOM     38  C   UNL     1      31.132  -3.006 -28.368  0.00  0.00    +0.175 C 
ENDBRANCH  30  37
ENDBRANCH  12  30
TORSDOF 5
ENDMDL
MODEL 4
REMARK VINA RESULT:     -10.5      3.132     12.094
REMARK  Name = 11442891
REMARK  5 active torsions:
REMARK  status: ('A' for Active; 'I' for Inactive)
REMARK    1  A    between atoms: C_12  and  C_30
REMARK    2  A    between atoms: C_13  and  C_19
REMARK    3  A    between atoms: C_16  and  N_22
REMARK    4  A    between atoms: C_30  and  C_31
REMARK    5  A    between atoms: C_30  and  O_37
REMARK                            x       y       z     vdW  Elec       q    Type
REMARK                         _______ _______ _______ _____ _____    ______ ____
ROOT
ATOM      1  O   UNL     1      30.699 -21.889 -16.705  0.00  0.00    -0.271 OA
ATOM      2  O   UNL     1      36.643 -18.808 -21.819  0.00  0.00    -0.270 OA
ATOM      3  N   UNL     1      32.729 -22.302 -17.732  0.00  0.00    -0.231 N 
ATOM      4  N   UNL     1      35.811 -22.323 -19.584  0.00  0.00    -0.273 N 
ATOM      5  N   UNL     1      36.026 -21.165 -20.258  0.00  0.00    -0.157 NA
ATOM      6  N   UNL     1      34.760 -19.136 -20.449  0.00  0.00    -0.264 N 
ATOM      7  C   UNL     1      32.798 -20.963 -18.404  0.00  0.00    +0.077 C 
ATOM      8  C   UNL     1      34.071 -21.083 -19.116  0.00  0.00    +0.067 A 
ATOM      9  C   UNL     1      33.904 -23.191 -18.024  0.00  0.00    +0.091 C 
ATOM     10  C   UNL     1      34.653 -22.293 -18.897  0.00  0.00    +0.093 A 
ATOM     11  C   UNL     1      34.949 -20.412 -19.962  0.00  0.00    +0.157 A 
ATOM     12  C   UNL     1      31.652 -22.637 -16.927  0.00  0.00    +0.265 C 
ATOM     13  C   UNL     1      35.590 -18.423 -21.324  0.00  0.00    +0.251 C 
ATOM     14  H   UNL     1      36.427 -23.090 -19.595  0.00  0.00    +0.189 HD
ATOM     15  H   UNL     1      33.946 -18.670 -20.146  0.00  0.00    +0.157 HD
ENDROOT
BRANCH  13  19
ATOM     16  C   UNL     1      34.198 -14.524 -22.397  0.00  0.00    +0.048 C 
ATOM     17  C   UNL     1      34.354 -14.864 -21.053  0.00  0.00    +0.015 C 
ATOM     18  C   UNL     1      34.497 -15.456 -23.391  0.00  0.00    +0.015 C 
ATOM     19  C   UNL     1      35.106 -17.068 -21.697  0.00  0.00    +0.054 C 
ATOM     20  C   UNL     1      34.808 -16.136 -20.703  0.00  0.00    +0.006 C 
ATOM     21  C   UNL     1      34.951 -16.728 -23.041  0.00  0.00    +0.006 C 
BRANCH  16  22
ATOM     22  N   UNL     1      33.742 -13.249 -22.748  0.00  0.00    -0.312 N 
ATOM     23  N   UNL     1      32.688 -10.758 -23.667  0.00  0.00    +0.388 N 
ATOM     24  C   UNL     1      32.415 -12.806 -22.308  0.00  0.00    +0.068 C 
ATOM     25  C   UNL     1      34.220 -12.667 -24.008  0.00  0.00    +0.068 C 
ATOM     26  C   UNL     1      32.319 -11.279 -22.344  0.00  0.00    -0.056 C 
ATOM     27  C   UNL     1      34.068 -11.145 -23.988  0.00  0.00    -0.056 C 
ATOM     28  C   UNL     1      32.541  -9.304 -23.705  0.00  0.00    -0.101 C 
ATOM     29  H   UNL     1      32.063 -11.159 -24.365  0.00  0.00    -0.080 HD
ENDBRANCH  16  22
ENDBRANCH  13  19
BRANCH  12  30
ATOM     30  C   UNL     1      31.704 -24.013 -16.311  0.00  0.00    +0.214 C 
BRANCH  30  31
ATOM     31  C   UNL     1      32.575 -24.022 -15.087  0.00  0.00    +0.013 C 
ATOM     32  C   UNL     1      32.107 -23.469 -13.895  0.00  0.00    -0.001 C 
ATOM     33  C   UNL     1      33.850 -24.583 -15.142  0.00  0.00    -0.001 C 
ATOM     34  C   UNL     1      32.914 -23.477 -12.758  0.00  0.00    -0.000 C 
ATOM     35  C   UNL     1      34.659 -24.591 -14.006  0.00  0.00    -0.000 C 
ATOM     36  C   UNL     1      34.191 -24.038 -12.813  0.00  0.00    -0.000 C 
ENDBRANCH  30  31
BRANCH  30  37
ATOM     37  O   UNL     1      30.376 -24.378 -15.988  0.00  0.00    -0.340 OA
ATOM     38  C   UNL     1      30.319 -25.646 -15.343  0.00  0.00    +0.175 C 
ENDBRANCH  30  37
ENDBRANCH  12  30
TORSDOF 5
ENDMDL
MODEL 5
REMARK VINA RESULT:     -10.3      5.248      9.236
REMARK  Name = 11442891
REMARK  5 active torsions:
REMARK  status: ('A' for Active; 'I' for Inactive)
REMARK    1  A    between atoms: C_12  and  C_30
REMARK    2  A    between atoms: C_13  and  C_19
REMARK    3  A    between atoms: C_16  and  N_22
REMARK    4  A    between atoms: C_30  and  C_31
REMARK    5  A    between atoms: C_30  and  O_37
REMARK                            x       y       z     vdW  Elec       q    Type
REMARK                         _______ _______ _______ _____ _____    ______ ____
ROOT
ATOM      1  O   UNL     1      34.940  -5.133 -28.135  0.00  0.00    -0.271 OA
ATOM      2  O   UNL     1      30.886  -9.274 -22.020  0.00  0.00    -0.270 OA
ATOM      3  N   UNL     1      33.301  -5.002 -26.509  0.00  0.00    -0.231 N 
ATOM      4  N   UNL     1      30.923  -5.440 -23.848  0.00  0.00    -0.273 N 
ATOM      5  N   UNL     1      30.977  -6.678 -23.295  0.00  0.00    -0.157 NA
ATOM      6  N   UNL     1      32.336  -8.603 -23.746  0.00  0.00    -0.264 N 
ATOM      7  C   UNL     1      33.501  -6.407 -26.024  0.00  0.00    +0.077 C 
ATOM      8  C   UNL     1      32.499  -6.472 -24.960  0.00  0.00    +0.067 A 
ATOM      9  C   UNL     1      32.228  -4.251 -25.774  0.00  0.00    +0.091 C 
ATOM     10  C   UNL     1      31.822  -5.298 -24.841  0.00  0.00    +0.093 A 
ATOM     11  C   UNL     1      31.949  -7.301 -23.988  0.00  0.00    +0.157 A 
ATOM     12  C   UNL     1      34.066  -4.495 -27.548  0.00  0.00    +0.265 C 
ATOM     13  C   UNL     1      31.801  -9.493 -22.805  0.00  0.00    +0.251 C 
ATOM     14  H   UNL     1      30.303  -4.732 -23.559  0.00  0.00    +0.189 HD
ATOM     15  H   UNL     1      33.074  -8.947 -24.299  0.00  0.00    +0.157 HD
ENDROOT
BRANCH  13  19
ATOM     16  C   UNL     1      33.550 -13.396 -22.780  0.00  0.00    +0.048 C 
ATOM     17  C   UNL     1      34.097 -12.391 -23.578  0.00  0.00    +0.015 C 
ATOM     18  C   UNL     1      32.433 -13.127 -21.989  0.00  0.00    +0.015 C 
ATOM     19  C   UNL     1      32.409 -10.849 -22.796  0.00  0.00    +0.054 C 
ATOM     20  C   UNL     1      33.527 -11.118 -23.587  0.00  0.00    +0.006 C 
ATOM     21  C   UNL     1      31.862 -11.854 -21.997  0.00  0.00    +0.006 C 
BRANCH  16  22
ATOM     22  N   UNL     1      34.121 -14.673 -22.772  0.00  0.00    -0.312 N 
ATOM     23  N   UNL     1      35.505 -17.171 -22.844  0.00  0.00    +0.388 N 
ATOM     24  C   UNL     1      34.907 -15.110 -21.614  0.00  0.00    +0.068 C 
ATOM     25  C   UNL     1      34.501 -15.267 -24.059  0.00  0.00    +0.068 C 
ATOM     26  C   UNL     1      34.999 -16.637 -21.572  0.00  0.00    -0.056 C 
ATOM     27  C   UNL     1      34.604 -16.789 -23.938  0.00  0.00    -0.056 C 
ATOM     28  C   UNL     1      35.638 -18.625 -22.773  0.00  0.00    -0.101 C 
ATOM     29  H   UNL     1      36.427 -16.776 -23.023  0.00  0.00    -0.080 HD
ENDBRANCH  16  22
ENDBRANCH  13  19
BRANCH  12  30
ATOM     30  C   UNL     1      33.764  -3.070 -27.940  0.00  0.00    +0.214 C 
BRANCH  30  31
ATOM     31  C   UNL     1      32.375  -2.947 -28.498  0.00  0.00    +0.013 C 
ATOM     32  C   UNL     1      31.522  -1.946 -28.033  0.00  0.00    -0.001 C 
ATOM     33  C   UNL     1      31.938  -3.835 -29.482  0.00  0.00    -0.001 C 
ATOM     34  C   UNL     1      30.233  -1.832 -28.551  0.00  0.00    -0.000 C 
ATOM     35  C   UNL     1      30.648  -3.722 -30.000  0.00  0.00    -0.000 C 
ATOM     36  C   UNL     1      29.795  -2.721 -29.535  0.00  0.00    -0.000 C 
ENDBRANCH  30  31
BRANCH  30  37
ATOM     37  O   UNL     1      33.912  -2.276 -26.777  0.00  0.00    -0.340 OA
ATOM     38  C   UNL     1      35.252  -1.823 -26.614  0.00  0.00    +0.175 C 
ENDBRANCH  30  37
ENDBRANCH  12  30
TORSDOF 5
ENDMDL
MODEL 6
REMARK VINA RESULT:     -10.0      1.610      2.525
REMARK  Name = 11442891
REMARK  5 active torsions:
REMARK  status: ('A' for Active; 'I' for Inactive)
REMARK    1  A    between atoms: C_12  and  C_30
REMARK    2  A    between atoms: C_13  and  C_19
REMARK    3  A    between atoms: C_16  and  N_22
REMARK    4  A    between atoms: C_30  and  C_31
REMARK    5  A    between atoms: C_30  and  O_37
REMARK                            x       y       z     vdW  Elec       q    Type
REMARK                         _______ _______ _______ _____ _____    ______ ____
ROOT
ATOM      1  O   UNL     1      32.751 -13.261 -19.859  0.00  0.00    -0.271 OA
ATOM      2  O   UNL     1      36.446 -20.655 -21.485  0.00  0.00    -0.270 OA
ATOM      3  N   UNL     1      33.760 -14.572 -21.476  0.00  0.00    -0.231 N 
ATOM      4  N   UNL     1      35.391 -17.063 -23.491  0.00  0.00    -0.273 N 
ATOM      5  N   UNL     1      35.681 -18.192 -22.795  0.00  0.00    -0.157 NA
ATOM      6  N   UNL     1      35.323 -18.833 -20.511  0.00  0.00    -0.264 N 
ATOM      7  C   UNL     1      34.002 -15.731 -20.556  0.00  0.00    +0.077 C 
ATOM      8  C   UNL     1      34.657 -16.668 -21.468  0.00  0.00    +0.067 A 
ATOM      9  C   UNL     1      34.246 -14.796 -22.879  0.00  0.00    +0.091 C 
ATOM     10  C   UNL     1      34.780 -16.145 -22.718  0.00  0.00    +0.093 A 
ATOM     11  C   UNL     1      35.227 -17.935 -21.555  0.00  0.00    +0.157 A 
ATOM     12  C   UNL     1      33.140 -13.419 -21.017  0.00  0.00    +0.265 C 
ATOM     13  C   UNL     1      35.909 -20.105 -20.530  0.00  0.00    +0.251 C 
ATOM     14  H   UNL     1      35.599 -16.932 -24.444  0.00  0.00    +0.189 HD
ATOM     15  H   UNL     1      34.933 -18.546 -19.653  0.00  0.00    +0.157 HD
ENDROOT
BRANCH  13  19
ATOM     16  C   UNL     1      35.845 -22.204 -16.805  0.00  0.00    +0.048 C 
ATOM     17  C   UNL     1      34.791 -22.351 -17.707  0.00  0.00    +0.015 C 
ATOM     18  C   UNL     1      36.920 -21.372 -17.118  0.00  0.00    +0.015 C 
ATOM     19  C   UNL     1      35.887 -20.835 -19.235  0.00  0.00    +0.054 C 
ATOM     20  C   UNL     1      34.812 -21.666 -18.922  0.00  0.00    +0.006 C 
ATOM     21  C   UNL     1      36.941 -20.688 -18.334  0.00  0.00    +0.006 C 
BRANCH  16  22
ATOM     22  N   UNL     1      35.824 -22.889 -15.585  0.00  0.00    -0.312 N 
ATOM     23  N   UNL     1      35.765 -24.508 -13.233  0.00  0.00    +0.388 N 
ATOM     24  C   UNL     1      37.072 -23.423 -15.031  0.00  0.00    +0.068 C 
ATOM     25  C   UNL     1      34.604 -23.623 -15.227  0.00  0.00    +0.068 C 
ATOM     26  C   UNL     1      36.931 -23.664 -13.525  0.00  0.00    -0.056 C 
ATOM     27  C   UNL     1      34.543 -23.855 -13.715  0.00  0.00    -0.056 C 
ATOM     28  C   UNL     1      35.673 -24.775 -11.798  0.00  0.00    -0.101 C 
ATOM     29  H   UNL     1      35.875 -25.400 -13.715  0.00  0.00    -0.080 HD
ENDBRANCH  16  22
ENDBRANCH  13  19
BRANCH  12  30
ATOM     30  C   UNL     1      32.957 -12.329 -22.043  0.00  0.00    +0.214 C 
BRANCH  30  31
ATOM     31  C   UNL     1      32.433 -11.073 -21.406  0.00  0.00    +0.013 C 
ATOM     32  C   UNL     1      32.598  -9.845 -22.047  0.00  0.00    -0.001 C 
ATOM     33  C   UNL     1      31.783 -11.135 -20.173  0.00  0.00    -0.001 C 
ATOM     34  C   UNL     1      32.112  -8.679 -21.456  0.00  0.00    -0.000 C 
ATOM     35  C   UNL     1      31.298  -9.969 -19.581  0.00  0.00    -0.000 C 
ATOM     36  C   UNL     1      31.462  -8.741 -20.222  0.00  0.00    -0.000 C 
ENDBRANCH  30  31
BRANCH  30  37
ATOM     37  O   UNL     1      34.218 -12.102 -22.642  0.00  0.00    -0.340 OA
ATOM     38  C   UNL     1      34.092 -11.699 -24.002  0.00  0.00    +0.175 C 
ENDBRANCH  30  37
ENDBRANCH  12  30
TORSDOF 5
ENDMDL
MODEL 7
REMARK VINA RESULT:      -9.1      4.626     13.437
REMARK  Name = 11442891
REMARK  5 active torsions:
REMARK  status: ('A' for Active; 'I' for Inactive)
REMARK    1  A    between atoms: C_12  and  C_30
REMARK    2  A    between atoms: C_13  and  C_19
REMARK    3  A    between atoms: C_16  and  N_22
REMARK    4  A    between atoms: C_30  and  C_31
REMARK    5  A    between atoms: C_30  and  O_37
REMARK                            x       y       z     vdW  Elec       q    Type
REMARK                         _______ _______ _______ _____ _____    ______ ____
ROOT
ATOM      1  O   UNL     1      35.688 -14.907 -23.167  0.00  0.00    -0.271 OA
ATOM      2  O   UNL     1      31.268  -7.737 -23.003  0.00  0.00    -0.270 OA
ATOM      3  N   UNL     1      33.789 -13.858 -22.365  0.00  0.00    -0.231 N 
ATOM      4  N   UNL     1      31.068 -11.689 -21.460  0.00  0.00    -0.273 N 
ATOM      5  N   UNL     1      31.183 -10.450 -22.002  0.00  0.00    -0.157 NA
ATOM      6  N   UNL     1      32.830  -9.443 -23.426  0.00  0.00    -0.264 N 
ATOM      7  C   UNL     1      34.079 -12.552 -23.043  0.00  0.00    +0.077 C 
ATOM      8  C   UNL     1      32.926 -11.761 -22.612  0.00  0.00    +0.067 A 
ATOM      9  C   UNL     1      32.520 -13.858 -21.561  0.00  0.00    +0.091 C 
ATOM     10  C   UNL     1      32.096 -12.484 -21.812  0.00  0.00    +0.093 A 
ATOM     11  C   UNL     1      32.328 -10.508 -22.706  0.00  0.00    +0.157 A 
ATOM     12  C   UNL     1      34.651 -14.935 -22.501  0.00  0.00    +0.265 C 
ATOM     13  C   UNL     1      32.291  -8.155 -23.533  0.00  0.00    +0.251 C 
ATOM     14  H   UNL     1      30.324 -11.972 -20.881  0.00  0.00    +0.189 HD
ATOM     15  H   UNL     1      33.664  -9.608 -23.923  0.00  0.00    +0.157 HD
ENDROOT
BRANCH  13  19
ATOM     16  C   UNL     1      34.551  -5.421 -25.922  0.00  0.00    +0.048 C 
ATOM     17  C   UNL     1      33.232  -5.722 -26.265  0.00  0.00    +0.015 C 
ATOM     18  C   UNL     1      35.132  -6.011 -24.800  0.00  0.00    +0.015 C 
ATOM     19  C   UNL     1      33.077  -7.204 -24.364  0.00  0.00    +0.054 C 
ATOM     20  C   UNL     1      32.495  -6.614 -25.486  0.00  0.00    +0.006 C 
ATOM     21  C   UNL     1      34.395  -6.903 -24.021  0.00  0.00    +0.006 C 
BRANCH  16  22
ATOM     22  N   UNL     1      35.291  -4.527 -26.704  0.00  0.00    -0.312 N 
ATOM     23  N   UNL     1      36.653  -2.776 -28.502  0.00  0.00    +0.388 N 
ATOM     24  C   UNL     1      34.786  -3.169 -26.930  0.00  0.00    +0.068 C 
ATOM     25  C   UNL     1      36.130  -5.079 -27.775  0.00  0.00    +0.068 C 
ATOM     26  C   UNL     1      35.925  -2.235 -27.347  0.00  0.00    -0.056 C 
ATOM     27  C   UNL     1      37.226  -4.084 -28.163  0.00  0.00    -0.056 C 
ATOM     28  C   UNL     1      37.703  -1.850 -28.925  0.00  0.00    -0.101 C 
ATOM     29  H   UNL     1      36.002  -2.892 -29.278  0.00  0.00    -0.080 HD
ENDBRANCH  16  22
ENDBRANCH  13  19
BRANCH  12  30
ATOM     30  C   UNL     1      34.244 -16.189 -21.769  0.00  0.00    +0.214 C 
BRANCH  30  31
ATOM     31  C   UNL     1      34.471 -17.406 -22.619  0.00  0.00    +0.013 C 
ATOM     32  C   UNL     1      35.015 -18.560 -22.054  0.00  0.00    -0.001 C 
ATOM     33  C   UNL     1      34.139 -17.384 -23.974  0.00  0.00    -0.001 C 
ATOM     34  C   UNL     1      35.225 -19.691 -22.843  0.00  0.00    -0.000 C 
ATOM     35  C   UNL     1      34.350 -18.513 -24.763  0.00  0.00    -0.000 C 
ATOM     36  C   UNL     1      34.894 -19.667 -24.198  0.00  0.00    -0.000 C 
ENDBRANCH  30  31
BRANCH  30  37
ATOM     37  O   UNL     1      35.016 -16.251 -20.585  0.00  0.00    -0.340 OA
ATOM     38  C   UNL     1      34.762 -15.140 -19.731  0.00  0.00    +0.175 C 
ENDBRANCH  30  37
ENDBRANCH  12  30
TORSDOF 5
ENDMDL
MODEL 8
REMARK VINA RESULT:      -8.6      1.753      2.809
REMARK  Name = 11442891
REMARK  5 active torsions:
REMARK  status: ('A' for Active; 'I' for Inactive)
REMARK    1  A    between atoms: C_12  and  C_30
REMARK    2  A    between atoms: C_13  and  C_19
REMARK    3  A    between atoms: C_16  and  N_22
REMARK    4  A    between atoms: C_30  and  C_31
REMARK    5  A    between atoms: C_30  and  O_37
REMARK                            x       y       z     vdW  Elec       q    Type
REMARK                         _______ _______ _______ _____ _____    ______ ____
ROOT
ATOM      1  O   UNL     1      32.173  -9.806 -20.629  0.00  0.00    -0.271 OA
ATOM      2  O   UNL     1      34.762 -16.615 -24.860  0.00  0.00    -0.270 OA
ATOM      3  N   UNL     1      32.648 -10.686 -22.714  0.00  0.00    -0.231 N 
ATOM      4  N   UNL     1      33.533 -12.620 -25.613  0.00  0.00    -0.273 N 
ATOM      5  N   UNL     1      33.896 -13.891 -25.304  0.00  0.00    -0.157 NA
ATOM      6  N   UNL     1      34.059 -15.077 -23.225  0.00  0.00    -0.264 N 
ATOM      7  C   UNL     1      33.016 -12.043 -22.190  0.00  0.00    +0.077 C 
ATOM      8  C   UNL     1      33.352 -12.732 -23.436  0.00  0.00    +0.067 A 
ATOM      9  C   UNL     1      32.756 -10.560 -24.206  0.00  0.00    +0.091 C 
ATOM     10  C   UNL     1      33.205 -11.915 -24.513  0.00  0.00    +0.093 A 
ATOM     11  C   UNL     1      33.781 -13.946 -23.964  0.00  0.00    +0.157 A 
ATOM     12  C   UNL     1      32.251  -9.676 -21.851  0.00  0.00    +0.265 C 
ATOM     13  C   UNL     1      34.520 -16.313 -23.696  0.00  0.00    +0.251 C 
ATOM     14  H   UNL     1      33.511 -12.258 -26.528  0.00  0.00    +0.189 HD
ATOM     15  H   UNL     1      33.916 -15.008 -22.253  0.00  0.00    +0.157 HD
ENDROOT
BRANCH  13  19
ATOM     16  C   UNL     1      35.207 -19.275 -20.689  0.00  0.00    +0.048 C 
ATOM     17  C   UNL     1      35.542 -17.943 -20.446  0.00  0.00    +0.015 C 
ATOM     18  C   UNL     1      34.648 -19.641 -21.914  0.00  0.00    +0.015 C 
ATOM     19  C   UNL     1      34.759 -17.343 -22.651  0.00  0.00    +0.054 C 
ATOM     20  C   UNL     1      35.318 -16.977 -21.427  0.00  0.00    +0.006 C 
ATOM     21  C   UNL     1      34.424 -18.675 -22.895  0.00  0.00    +0.006 C 
BRANCH  16  22
ATOM     22  N   UNL     1      35.433 -20.245 -19.707  0.00  0.00    -0.312 N 
ATOM     23  N   UNL     1      35.941 -22.393 -17.893  0.00  0.00    +0.388 N 
ATOM     24  C   UNL     1      36.803 -20.520 -19.259  0.00  0.00    +0.068 C 
ATOM     25  C   UNL     1      34.499 -21.374 -19.622  0.00  0.00    +0.068 C 
ATOM     26  C   UNL     1      36.793 -21.197 -17.886  0.00  0.00    -0.056 C 
ATOM     27  C   UNL     1      34.563 -22.021 -18.237  0.00  0.00    -0.056 C 
ATOM     28  C   UNL     1      35.983 -23.060 -16.593  0.00  0.00    -0.101 C 
ATOM     29  H   UNL     1      36.292 -23.043 -18.595  0.00  0.00    -0.080 HD
ENDBRANCH  16  22
ENDBRANCH  13  19
BRANCH  12  30
ATOM     30  C   UNL     1      31.909  -8.361 -22.505  0.00  0.00    +0.214 C 
BRANCH  30  31
ATOM     31  C   UNL     1      33.143  -7.685 -23.032  0.00  0.00    +0.013 C 
ATOM     32  C   UNL     1      33.107  -7.029 -24.262  0.00  0.00    -0.001 C 
ATOM     33  C   UNL     1      34.324  -7.712 -22.290  0.00  0.00    -0.001 C 
ATOM     34  C   UNL     1      34.252  -6.401 -24.752  0.00  0.00    -0.000 C 
ATOM     35  C   UNL     1      35.470  -7.085 -22.779  0.00  0.00    -0.000 C 
ATOM     36  C   UNL     1      35.434  -6.429 -24.010  0.00  0.00    -0.000 C 
ENDBRANCH  30  31
BRANCH  30  37
ATOM     37  O   UNL     1      31.001  -8.639 -23.554  0.00  0.00    -0.340 OA
ATOM     38  C   UNL     1      30.181  -7.514 -23.855  0.00  0.00    +0.175 C 
ENDBRANCH  30  37
ENDBRANCH  12  30
TORSDOF 5
ENDMDL
MODEL 9
REMARK VINA RESULT:      -8.3      2.354      4.289
REMARK  Name = 11442891
REMARK  5 active torsions:
REMARK  status: ('A' for Active; 'I' for Inactive)
REMARK    1  A    between atoms: C_12  and  C_30
REMARK    2  A    between atoms: C_13  and  C_19
REMARK    3  A    between atoms: C_16  and  N_22
REMARK    4  A    between atoms: C_30  and  C_31
REMARK    5  A    between atoms: C_30  and  O_37
REMARK                            x       y       z     vdW  Elec       q    Type
REMARK                         _______ _______ _______ _____ _____    ______ ____
ROOT
ATOM      1  O   UNL     1      32.960  -8.310 -19.997  0.00  0.00    -0.271 OA
ATOM      2  O   UNL     1      33.833 -14.867 -25.214  0.00  0.00    -0.270 OA
ATOM      3  N   UNL     1      32.795  -9.037 -22.186  0.00  0.00    -0.231 N 
ATOM      4  N   UNL     1      32.733 -10.767 -25.338  0.00  0.00    -0.273 N 
ATOM      5  N   UNL     1      33.074 -12.075 -25.224  0.00  0.00    -0.157 NA
ATOM      6  N   UNL     1      33.704 -13.436 -23.352  0.00  0.00    -0.264 N 
ATOM      7  C   UNL     1      33.194 -10.449 -21.873  0.00  0.00    +0.077 C 
ATOM      8  C   UNL     1      33.134 -11.049 -23.206  0.00  0.00    +0.067 A 
ATOM      9  C   UNL     1      32.508  -8.794 -23.640  0.00  0.00    +0.091 C 
ATOM     10  C   UNL     1      32.762 -10.139 -24.146  0.00  0.00    +0.093 A 
ATOM     11  C   UNL     1      33.319 -12.235 -23.910  0.00  0.00    +0.157 A 
ATOM     12  C   UNL     1      32.718  -8.083 -21.183  0.00  0.00    +0.265 C 
ATOM     13  C   UNL     1      33.934 -14.650 -24.011  0.00  0.00    +0.251 C 
ATOM     14  H   UNL     1      32.492 -10.330 -26.186  0.00  0.00    +0.189 HD
ATOM     15  H   UNL     1      33.832 -13.441 -22.375  0.00  0.00    +0.157 HD
ENDROOT
BRANCH  13  19
ATOM     16  C   UNL     1      35.192 -17.881 -21.508  0.00  0.00    +0.048 C 
ATOM     17  C   UNL     1      34.982 -16.616 -20.960  0.00  0.00    +0.015 C 
ATOM     18  C   UNL     1      34.991 -18.093 -22.872  0.00  0.00    +0.015 C 
ATOM     19  C   UNL     1      34.371 -15.773 -23.141  0.00  0.00    +0.054 C 
ATOM     20  C   UNL     1      34.572 -15.562 -21.777  0.00  0.00    +0.006 C 
ATOM     21  C   UNL     1      34.581 -17.039 -23.689  0.00  0.00    +0.006 C 
BRANCH  16  22
ATOM     22  N   UNL     1      35.604 -18.938 -20.690  0.00  0.00    -0.312 N 
ATOM     23  N   UNL     1      36.480 -21.236 -19.236  0.00  0.00    +0.388 N 
ATOM     24  C   UNL     1      37.034 -19.150 -20.443  0.00  0.00    +0.068 C 
ATOM     25  C   UNL     1      34.767 -20.143 -20.642  0.00  0.00    +0.068 C 
ATOM     26  C   UNL     1      37.243 -19.983 -19.175  0.00  0.00    -0.056 C 
ATOM     27  C   UNL     1      35.048 -20.942 -19.368  0.00  0.00    -0.056 C 
ATOM     28  C   UNL     1      36.730 -22.047 -18.045  0.00  0.00    -0.101 C 
ATOM     29  H   UNL     1      36.784 -21.768 -20.051  0.00  0.00    -0.080 HD
ENDBRANCH  16  22
ENDBRANCH  13  19
BRANCH  12  30
ATOM     30  C   UNL     1      32.306  -6.703 -21.631  0.00  0.00    +0.214 C 
BRANCH  30  31
ATOM     31  C   UNL     1      33.132  -6.248 -22.800  0.00  0.00    +0.013 C 
ATOM     32  C   UNL     1      34.453  -6.677 -22.929  0.00  0.00    -0.001 C 
ATOM     33  C   UNL     1      32.579  -5.397 -23.756  0.00  0.00    -0.001 C 
ATOM     34  C   UNL     1      35.221  -6.255 -24.014  0.00  0.00    -0.000 C 
ATOM     35  C   UNL     1      33.347  -4.974 -24.841  0.00  0.00    -0.000 C 
ATOM     36  C   UNL     1      34.668  -5.403 -24.970  0.00  0.00    -0.000 C 
ENDBRANCH  30  31
BRANCH  30  37
ATOM     37  O   UNL     1      30.936  -6.767 -21.977  0.00  0.00    -0.340 OA
ATOM     38  C   UNL     1      30.207  -5.660 -21.456  0.00  0.00    +0.175 C 
ENDBRANCH  30  37
ENDBRANCH  12  30
TORSDOF 5
ENDMDL
