MODEL 1
REMARK VINA RESULT:     -12.6      0.000      0.000
REMARK  Name = 16750097
REMARK  3 active torsions:
REMARK  status: ('A' for Active; 'I' for Inactive)
REMARK    1  A    between atoms: N_3  and  C_10
REMARK    2  A    between atoms: N_3  and  C_23
REMARK    3  A    between atoms: C_23  and  C_24
REMARK                            x       y       z     vdW  Elec       q    Type
REMARK                         _______ _______ _______ _____ _____    ______ ____
ROOT
ATOM      1  O   UNL     1      33.451 -15.374 -25.941  0.00  0.00    -0.209 OA
ATOM      2  N   UNL     1      35.250 -18.956 -22.544  0.00  0.00    -0.305 N 
ATOM      3  N   UNL     1      35.692 -17.912 -20.634  0.00  0.00    -0.305 N 
ATOM      4  N   UNL     1      34.265 -13.545 -22.473  0.00  0.00    -0.275 N 
ATOM      5  N   UNL     1      33.497 -13.436 -24.723  0.00  0.00    -0.302 NA
ATOM      6  N   UNL     1      33.599 -11.536 -23.356  0.00  0.00    -0.320 N 
ATOM      7  C   UNL     1      34.932 -17.641 -22.764  0.00  0.00    +0.061 C 
ATOM      8  C   UNL     1      35.216 -17.010 -21.557  0.00  0.00    +0.061 C 
ATOM      9  C   UNL     1      35.699 -19.069 -21.258  0.00  0.00    +0.208 C 
ATOM     10  C   UNL     1      34.499 -14.921 -22.543  0.00  0.00    +0.064 C 
ATOM     11  C   UNL     1      34.223 -15.593 -23.743  0.00  0.00    +0.110 C 
ATOM     12  C   UNL     1      34.434 -16.973 -23.885  0.00  0.00    +0.030 C 
ATOM     13  C   UNL     1      34.998 -15.627 -21.436  0.00  0.00    +0.031 C 
ATOM     14  C   UNL     1      33.695 -14.795 -24.887  0.00  0.00    +0.208 C 
ATOM     15  C   UNL     1      33.776 -12.879 -23.573  0.00  0.00    +0.248 C 
ATOM     16  H   UNL     1      35.169 -19.690 -23.195  0.00  0.00    +0.150 HD
ATOM     17  H   UNL     1      35.967 -17.731 -19.706  0.00  0.00    +0.150 HD
ATOM     18  H   UNL     1      34.451 -13.053 -21.641  0.00  0.00    +0.156 HD
ATOM     19  H   UNL     1      33.818 -11.146 -22.479  0.00  0.00    +0.146 HD
ATOM     20  H   UNL     1      33.253 -10.962 -24.078  0.00  0.00    +0.146 HD
ENDROOT
BRANCH   9  21
ATOM     21  N   UNL     1      36.075 -20.288 -20.815  0.00  0.00    -0.263 NA
ATOM     22  H   UNL     1      36.020 -21.042 -21.445  0.00  0.00    +0.127 HD
BRANCH  21  23
ATOM     23  C   UNL     1      36.556 -20.564 -19.472  0.00  0.00    +0.098 C 
BRANCH  23  24
ATOM     24  C   UNL     1      35.552 -21.383 -18.711  0.00  0.00    -0.006 C 
ATOM     25  C   UNL     1      35.853 -21.964 -17.469  0.00  0.00    -0.003 C 
ATOM     26  C   UNL     1      34.864 -22.726 -16.801  0.00  0.00    -0.000 C 
ATOM     27  C   UNL     1      34.292 -21.551 -19.287  0.00  0.00    -0.003 C 
ATOM     28  C   UNL     1      37.115 -21.807 -16.873  0.00  0.00    -0.000 C 
ATOM     29  C   UNL     1      33.601 -22.883 -17.397  0.00  0.00    -0.000 C 
ATOM     30  C   UNL     1      33.319 -22.298 -18.632  0.00  0.00    -0.000 C 
ATOM     31  C   UNL     1      35.165 -23.307 -15.560  0.00  0.00    -0.000 C 
ATOM     32  C   UNL     1      37.398 -22.393 -15.638  0.00  0.00    -0.000 C 
ATOM     33  C   UNL     1      36.424 -23.140 -14.982  0.00  0.00    -0.000 C 
ENDBRANCH  23  24
ENDBRANCH  21  23
ENDBRANCH   9  21
TORSDOF 3
ENDMDL
MODEL 2
REMARK VINA RESULT:     -12.4      3.374      9.129
REMARK  Name = 16750097
REMARK  3 active torsions:
REMARK  status: ('A' for Active; 'I' for Inactive)
REMARK    1  A    between atoms: N_3  and  C_10
REMARK    2  A    between atoms: N_3  and  C_23
REMARK    3  A    between atoms: C_23  and  C_24
REMARK                            x       y       z     vdW  Elec       q    Type
REMARK                         _______ _______ _______ _____ _____    ______ ____
ROOT
ATOM      1  O   UNL     1      32.670 -23.613 -16.670  0.00  0.00    -0.209 OA
ATOM      2  N   UNL     1      33.942 -20.410 -20.637  0.00  0.00    -0.305 N 
ATOM      3  N   UNL     1      36.096 -19.907 -20.433  0.00  0.00    -0.305 N 
ATOM      4  N   UNL     1      36.550 -22.671 -16.353  0.00  0.00    -0.275 N 
ATOM      5  N   UNL     1      34.643 -23.830 -15.527  0.00  0.00    -0.302 NA
ATOM      6  N   UNL     1      36.726 -23.959 -14.463  0.00  0.00    -0.320 N 
ATOM      7  C   UNL     1      34.370 -21.077 -19.517  0.00  0.00    +0.061 C 
ATOM      8  C   UNL     1      35.717 -20.747 -19.412  0.00  0.00    +0.061 C 
ATOM      9  C   UNL     1      35.009 -19.725 -21.148  0.00  0.00    +0.208 C 
ATOM     10  C   UNL     1      35.842 -22.121 -17.425  0.00  0.00    +0.064 C 
ATOM     11  C   UNL     1      34.481 -22.432 -17.566  0.00  0.00    +0.110 C 
ATOM     12  C   UNL     1      33.709 -21.916 -18.618  0.00  0.00    +0.030 C 
ATOM     13  C   UNL     1      36.473 -21.274 -18.351  0.00  0.00    +0.031 C 
ATOM     14  C   UNL     1      33.860 -23.335 -16.555  0.00  0.00    +0.208 C 
ATOM     15  C   UNL     1      35.905 -23.498 -15.462  0.00  0.00    +0.248 C 
ATOM     16  H   UNL     1      33.030 -20.422 -21.007  0.00  0.00    +0.150 HD
ATOM     17  H   UNL     1      36.989 -19.524 -20.593  0.00  0.00    +0.150 HD
ATOM     18  H   UNL     1      37.505 -22.467 -16.235  0.00  0.00    +0.156 HD
ATOM     19  H   UNL     1      37.673 -23.690 -14.441  0.00  0.00    +0.146 HD
ATOM     20  H   UNL     1      36.368 -24.558 -13.769  0.00  0.00    +0.146 HD
ENDROOT
BRANCH   9  21
ATOM     21  N   UNL     1      34.822 -18.987 -22.264  0.00  0.00    -0.263 NA
ATOM     22  H   UNL     1      34.019 -19.170 -22.805  0.00  0.00    +0.127 HD
BRANCH  21  23
ATOM     23  C   UNL     1      35.721 -17.943 -22.721  0.00  0.00    +0.098 C 
BRANCH  23  24
ATOM     24  C   UNL     1      34.943 -16.738 -23.173  0.00  0.00    -0.006 C 
ATOM     25  C   UNL     1      34.557 -15.724 -22.281  0.00  0.00    -0.003 C 
ATOM     26  C   UNL     1      33.826 -14.615 -22.769  0.00  0.00    -0.000 C 
ATOM     27  C   UNL     1      34.613 -16.659 -24.526  0.00  0.00    -0.003 C 
ATOM     28  C   UNL     1      34.880 -15.787 -20.916  0.00  0.00    -0.000 C 
ATOM     29  C   UNL     1      33.502 -14.553 -24.135  0.00  0.00    -0.000 C 
ATOM     30  C   UNL     1      33.895 -15.569 -25.006  0.00  0.00    -0.000 C 
ATOM     31  C   UNL     1      33.439 -13.601 -21.878  0.00  0.00    -0.000 C 
ATOM     32  C   UNL     1      34.487 -14.770 -20.044  0.00  0.00    -0.000 C 
ATOM     33  C   UNL     1      33.768 -13.679 -20.525  0.00  0.00    -0.000 C 
ENDBRANCH  23  24
ENDBRANCH  21  23
ENDBRANCH   9  21
TORSDOF 3
ENDMDL
MODEL 3
REMARK VINA RESULT:     -12.4      3.358      9.395
REMARK  Name = 16750097
REMARK  3 active torsions:
REMARK  status: ('A' for Active; 'I' for Inactive)
REMARK    1  A    between atoms: N_3  and  C_10
REMARK    2  A    between atoms: N_3  and  C_23
REMARK    3  A    between atoms: C_23  and  C_24
REMARK                            x       y       z     vdW  Elec       q    Type
REMARK                         _______ _______ _______ _____ _____    ______ ____
ROOT
ATOM      1  O   UNL     1      32.918 -23.677 -16.599  0.00  0.00    -0.209 OA
ATOM      2  N   UNL     1      33.983 -20.459 -20.614  0.00  0.00    -0.305 N 
ATOM      3  N   UNL     1      36.110 -19.841 -20.438  0.00  0.00    -0.305 N 
ATOM      4  N   UNL     1      36.746 -22.530 -16.332  0.00  0.00    -0.275 N 
ATOM      5  N   UNL     1      34.910 -23.778 -15.474  0.00  0.00    -0.302 NA
ATOM      6  N   UNL     1      37.007 -23.785 -14.430  0.00  0.00    -0.320 N 
ATOM      7  C   UNL     1      34.456 -21.089 -19.491  0.00  0.00    +0.061 C 
ATOM      8  C   UNL     1      35.785 -20.689 -19.404  0.00  0.00    +0.061 C 
ATOM      9  C   UNL     1      35.007 -19.725 -21.144  0.00  0.00    +0.208 C 
ATOM     10  C   UNL     1      36.000 -22.031 -17.403  0.00  0.00    +0.064 C 
ATOM     11  C   UNL     1      34.656 -22.413 -17.526  0.00  0.00    +0.110 C 
ATOM     12  C   UNL     1      33.848 -21.950 -18.576  0.00  0.00    +0.030 C 
ATOM     13  C   UNL     1      36.578 -21.163 -18.345  0.00  0.00    +0.031 C 
ATOM     14  C   UNL     1      34.093 -23.336 -16.499  0.00  0.00    +0.208 C 
ATOM     15  C   UNL     1      36.154 -23.379 -15.425  0.00  0.00    +0.248 C 
ATOM     16  H   UNL     1      33.069 -20.522 -20.974  0.00  0.00    +0.150 HD
ATOM     17  H   UNL     1      36.980 -19.414 -20.611  0.00  0.00    +0.150 HD
ATOM     18  H   UNL     1      37.691 -22.276 -16.226  0.00  0.00    +0.156 HD
ATOM     19  H   UNL     1      37.939 -23.467 -14.420  0.00  0.00    +0.146 HD
ATOM     20  H   UNL     1      36.688 -24.394 -13.726  0.00  0.00    +0.146 HD
ENDROOT
BRANCH   9  21
ATOM     21  N   UNL     1      34.771 -19.011 -22.266  0.00  0.00    -0.263 NA
ATOM     22  H   UNL     1      33.991 -19.261 -22.813  0.00  0.00    +0.127 HD
BRANCH  21  23
ATOM     23  C   UNL     1      35.586 -17.899 -22.721  0.00  0.00    +0.098 C 
BRANCH  23  24
ATOM     24  C   UNL     1      35.027 -16.596 -22.220  0.00  0.00    -0.006 C 
ATOM     25  C   UNL     1      34.395 -15.679 -23.075  0.00  0.00    -0.003 C 
ATOM     26  C   UNL     1      33.890 -14.469 -22.542  0.00  0.00    -0.000 C 
ATOM     27  C   UNL     1      35.161 -16.323 -20.858  0.00  0.00    -0.003 C 
ATOM     28  C   UNL     1      34.252 -15.936 -24.449  0.00  0.00    -0.000 C 
ATOM     29  C   UNL     1      34.033 -14.211 -21.168  0.00  0.00    -0.000 C 
ATOM     30  C   UNL     1      34.664 -15.134 -20.333  0.00  0.00    -0.000 C 
ATOM     31  C   UNL     1      33.258 -13.552 -23.397  0.00  0.00    -0.000 C 
ATOM     32  C   UNL     1      33.622 -15.013 -25.284  0.00  0.00    -0.000 C 
ATOM     33  C   UNL     1      33.125 -13.824 -24.758  0.00  0.00    -0.000 C 
ENDBRANCH  23  24
ENDBRANCH  21  23
ENDBRANCH   9  21
TORSDOF 3
ENDMDL
MODEL 4
REMARK VINA RESULT:     -12.3      3.383      9.053
REMARK  Name = 16750097
REMARK  3 active torsions:
REMARK  status: ('A' for Active; 'I' for Inactive)
REMARK    1  A    between atoms: N_3  and  C_10
REMARK    2  A    between atoms: N_3  and  C_23
REMARK    3  A    between atoms: C_23  and  C_24
REMARK                            x       y       z     vdW  Elec       q    Type
REMARK                         _______ _______ _______ _____ _____    ______ ____
ROOT
ATOM      1  O   UNL     1      36.469 -22.775 -16.527  0.00  0.00    -0.209 OA
ATOM      2  N   UNL     1      35.951 -19.762 -20.800  0.00  0.00    -0.305 N 
ATOM      3  N   UNL     1      33.796 -19.724 -21.341  0.00  0.00    -0.305 N 
ATOM      4  N   UNL     1      32.598 -22.670 -17.549  0.00  0.00    -0.275 N 
ATOM      5  N   UNL     1      34.320 -23.440 -16.098  0.00  0.00    -0.302 NA
ATOM      6  N   UNL     1      32.077 -24.038 -15.784  0.00  0.00    -0.320 N 
ATOM      7  C   UNL     1      35.324 -20.544 -19.864  0.00  0.00    +0.061 C 
ATOM      8  C   UNL     1      33.980 -20.504 -20.223  0.00  0.00    +0.061 C 
ATOM      9  C   UNL     1      34.997 -19.295 -21.661  0.00  0.00    +0.208 C 
ATOM     10  C   UNL     1      33.492 -21.947 -18.344  0.00  0.00    +0.064 C 
ATOM     11  C   UNL     1      34.855 -21.962 -18.013  0.00  0.00    +0.110 C 
ATOM     12  C   UNL     1      35.808 -21.260 -18.767  0.00  0.00    +0.030 C 
ATOM     13  C   UNL     1      33.042 -21.214 -19.455  0.00  0.00    +0.031 C 
ATOM     14  C   UNL     1      35.278 -22.756 -16.824  0.00  0.00    +0.208 C 
ATOM     15  C   UNL     1      33.067 -23.378 -16.467  0.00  0.00    +0.248 C 
ATOM     16  H   UNL     1      36.915 -19.571 -20.845  0.00  0.00    +0.150 HD
ATOM     17  H   UNL     1      32.949 -19.529 -21.803  0.00  0.00    +0.150 HD
ATOM     18  H   UNL     1      31.637 -22.673 -17.763  0.00  0.00    +0.156 HD
ATOM     19  H   UNL     1      31.142 -23.972 -16.086  0.00  0.00    +0.146 HD
ATOM     20  H   UNL     1      32.301 -24.577 -14.991  0.00  0.00    +0.146 HD
ENDROOT
BRANCH   9  21
ATOM     21  N   UNL     1      35.387 -18.496 -22.677  0.00  0.00    -0.263 NA
ATOM     22  H   UNL     1      35.330 -18.856 -23.592  0.00  0.00    +0.127 HD
BRANCH  21  23
ATOM     23  C   UNL     1      35.883 -17.141 -22.515  0.00  0.00    +0.098 C 
BRANCH  23  24
ATOM     24  C   UNL     1      34.924 -16.152 -23.118  0.00  0.00    -0.006 C 
ATOM     25  C   UNL     1      34.297 -15.159 -22.349  0.00  0.00    -0.003 C 
ATOM     26  C   UNL     1      33.403 -14.258 -22.977  0.00  0.00    -0.000 C 
ATOM     27  C   UNL     1      34.673 -16.256 -24.487  0.00  0.00    -0.003 C 
ATOM     28  C   UNL     1      34.536 -15.039 -20.971  0.00  0.00    -0.000 C 
ATOM     29  C   UNL     1      33.163 -14.378 -24.356  0.00  0.00    -0.000 C 
ATOM     30  C   UNL     1      33.796 -15.371 -25.105  0.00  0.00    -0.000 C 
ATOM     31  C   UNL     1      32.776 -13.265 -22.208  0.00  0.00    -0.000 C 
ATOM     32  C   UNL     1      33.903 -14.046 -20.222  0.00  0.00    -0.000 C 
ATOM     33  C   UNL     1      33.026 -13.160 -20.840  0.00  0.00    -0.000 C 
ENDBRANCH  23  24
ENDBRANCH  21  23
ENDBRANCH   9  21
TORSDOF 3
ENDMDL
MODEL 5
REMARK VINA RESULT:     -12.1      3.855      9.986
REMARK  Name = 16750097
REMARK  3 active torsions:
REMARK  status: ('A' for Active; 'I' for Inactive)
REMARK    1  A    between atoms: N_3  and  C_10
REMARK    2  A    between atoms: N_3  and  C_23
REMARK    3  A    between atoms: C_23  and  C_24
REMARK                            x       y       z     vdW  Elec       q    Type
REMARK                         _______ _______ _______ _____ _____    ______ ____
ROOT
ATOM      1  O   UNL     1      34.353 -18.392 -24.708  0.00  0.00    -0.209 OA
ATOM      2  N   UNL     1      33.769 -13.178 -24.419  0.00  0.00    -0.305 N 
ATOM      3  N   UNL     1      34.326 -12.550 -22.362  0.00  0.00    -0.305 N 
ATOM      4  N   UNL     1      35.344 -17.202 -21.014  0.00  0.00    -0.275 N 
ATOM      5  N   UNL     1      35.075 -18.949 -22.607  0.00  0.00    -0.302 NA
ATOM      6  N   UNL     1      35.806 -19.369 -20.421  0.00  0.00    -0.320 N 
ATOM      7  C   UNL     1      34.120 -14.332 -23.766  0.00  0.00    +0.061 C 
ATOM      8  C   UNL     1      34.464 -13.913 -22.484  0.00  0.00    +0.061 C 
ATOM      9  C   UNL     1      33.908 -12.141 -23.539  0.00  0.00    +0.208 C 
ATOM     10  C   UNL     1      34.937 -16.216 -21.918  0.00  0.00    +0.064 C 
ATOM     11  C   UNL     1      34.583 -16.600 -23.221  0.00  0.00    +0.110 C 
ATOM     12  C   UNL     1      34.164 -15.665 -24.179  0.00  0.00    +0.030 C 
ATOM     13  C   UNL     1      34.881 -14.865 -21.539  0.00  0.00    +0.031 C 
ATOM     14  C   UNL     1      34.660 -18.047 -23.570  0.00  0.00    +0.208 C 
ATOM     15  C   UNL     1      35.390 -18.518 -21.414  0.00  0.00    +0.248 C 
ATOM     16  H   UNL     1      33.471 -13.108 -25.354  0.00  0.00    +0.150 HD
ATOM     17  H   UNL     1      34.501 -12.000 -21.564  0.00  0.00    +0.150 HD
ATOM     18  H   UNL     1      35.597 -16.956 -20.096  0.00  0.00    +0.156 HD
ATOM     19  H   UNL     1      36.036 -19.013 -19.532  0.00  0.00    +0.146 HD
ATOM     20  H   UNL     1      35.875 -20.335 -20.598  0.00  0.00    +0.146 HD
ENDROOT
BRANCH   9  21
ATOM     21  N   UNL     1      33.613 -10.894 -23.966  0.00  0.00    -0.263 NA
ATOM     22  H   UNL     1      34.270 -10.440 -24.541  0.00  0.00    +0.127 HD
BRANCH  21  23
ATOM     23  C   UNL     1      32.394 -10.177 -23.637  0.00  0.00    +0.098 C 
BRANCH  23  24
ATOM     24  C   UNL     1      32.640  -9.206 -22.516  0.00  0.00    -0.006 C 
ATOM     25  C   UNL     1      32.120  -9.407 -21.228  0.00  0.00    -0.003 C 
ATOM     26  C   UNL     1      32.387  -8.455 -20.215  0.00  0.00    -0.000 C 
ATOM     27  C   UNL     1      33.413  -8.080 -22.802  0.00  0.00    -0.003 C 
ATOM     28  C   UNL     1      31.339 -10.534 -20.921  0.00  0.00    -0.000 C 
ATOM     29  C   UNL     1      33.167  -7.328 -20.522  0.00  0.00    -0.000 C 
ATOM     30  C   UNL     1      33.677  -7.144 -21.808  0.00  0.00    -0.000 C 
ATOM     31  C   UNL     1      31.867  -8.657 -18.927  0.00  0.00    -0.000 C 
ATOM     32  C   UNL     1      30.829 -10.718 -19.635  0.00  0.00    -0.000 C 
ATOM     33  C   UNL     1      31.093  -9.781 -18.640  0.00  0.00    -0.000 C 
ENDBRANCH  23  24
ENDBRANCH  21  23
ENDBRANCH   9  21
TORSDOF 3
ENDMDL
MODEL 6
REMARK VINA RESULT:     -12.0      1.927      2.666
REMARK  Name = 16750097
REMARK  3 active torsions:
REMARK  status: ('A' for Active; 'I' for Inactive)
REMARK    1  A    between atoms: N_3  and  C_10
REMARK    2  A    between atoms: N_3  and  C_23
REMARK    3  A    between atoms: C_23  and  C_24
REMARK                            x       y       z     vdW  Elec       q    Type
REMARK                         _______ _______ _______ _____ _____    ______ ____
ROOT
ATOM      1  O   UNL     1      33.251 -11.807 -24.093  0.00  0.00    -0.209 OA
ATOM      2  N   UNL     1      35.549 -16.331 -22.728  0.00  0.00    -0.305 N 
ATOM      3  N   UNL     1      35.096 -16.697 -20.584  0.00  0.00    -0.305 N 
ATOM      4  N   UNL     1      32.466 -12.520 -20.231  0.00  0.00    -0.275 N 
ATOM      5  N   UNL     1      32.237 -11.135 -22.152  0.00  0.00    -0.302 NA
ATOM      6  N   UNL     1      31.255 -10.576 -20.100  0.00  0.00    -0.320 N 
ATOM      7  C   UNL     1      34.782 -15.266 -22.328  0.00  0.00    +0.061 C 
ATOM      8  C   UNL     1      34.511 -15.519 -20.987  0.00  0.00    +0.061 C 
ATOM      9  C   UNL     1      35.709 -17.158 -21.651  0.00  0.00    +0.208 C 
ATOM     10  C   UNL     1      33.246 -13.459 -20.911  0.00  0.00    +0.064 C 
ATOM     11  C   UNL     1      33.540 -13.240 -22.265  0.00  0.00    +0.110 C 
ATOM     12  C   UNL     1      34.317 -14.140 -23.009  0.00  0.00    +0.030 C 
ATOM     13  C   UNL     1      33.731 -14.605 -20.259  0.00  0.00    +0.031 C 
ATOM     14  C   UNL     1      33.000 -12.007 -22.908  0.00  0.00    +0.208 C 
ATOM     15  C   UNL     1      32.004 -11.407 -20.895  0.00  0.00    +0.248 C 
ATOM     16  H   UNL     1      35.919 -16.474 -23.628  0.00  0.00    +0.150 HD
ATOM     17  H   UNL     1      35.062 -17.107 -19.689  0.00  0.00    +0.150 HD
ATOM     18  H   UNL     1      32.248 -12.654 -19.280  0.00  0.00    +0.156 HD
ATOM     19  H   UNL     1      31.098 -10.808 -19.156  0.00  0.00    +0.146 HD
ATOM     20  H   UNL     1      30.875  -9.748 -20.473  0.00  0.00    +0.146 HD
ENDROOT
BRANCH   9  21
ATOM     21  N   UNL     1      36.439 -18.283 -21.810  0.00  0.00    -0.263 NA
ATOM     22  H   UNL     1      36.767 -18.492 -22.715  0.00  0.00    +0.127 HD
BRANCH  21  23
ATOM     23  C   UNL     1      36.774 -19.205 -20.740  0.00  0.00    +0.098 C 
BRANCH  23  24
ATOM     24  C   UNL     1      35.556 -19.970 -20.301  0.00  0.00    -0.006 C 
ATOM     25  C   UNL     1      35.578 -20.835 -19.196  0.00  0.00    -0.003 C 
ATOM     26  C   UNL     1      34.397 -21.526 -18.834  0.00  0.00    -0.000 C 
ATOM     27  C   UNL     1      34.386 -19.788 -21.040  0.00  0.00    -0.003 C 
ATOM     28  C   UNL     1      36.746 -21.031 -18.442  0.00  0.00    -0.000 C 
ATOM     29  C   UNL     1      33.229 -21.331 -19.589  0.00  0.00    -0.000 C 
ATOM     30  C   UNL     1      33.225 -20.467 -20.684  0.00  0.00    -0.000 C 
ATOM     31  C   UNL     1      34.419 -22.392 -17.729  0.00  0.00    -0.000 C 
ATOM     32  C   UNL     1      36.750 -21.896 -17.346  0.00  0.00    -0.000 C 
ATOM     33  C   UNL     1      35.588 -22.574 -16.990  0.00  0.00    -0.000 C 
ENDBRANCH  23  24
ENDBRANCH  21  23
ENDBRANCH   9  21
TORSDOF 3
ENDMDL
MODEL 7
REMARK VINA RESULT:     -11.9      2.626      4.652
REMARK  Name = 16750097
REMARK  3 active torsions:
REMARK  status: ('A' for Active; 'I' for Inactive)
REMARK    1  A    between atoms: N_3  and  C_10
REMARK    2  A    between atoms: N_3  and  C_23
REMARK    3  A    between atoms: C_23  and  C_24
REMARK                            x       y       z     vdW  Elec       q    Type
REMARK                         _______ _______ _______ _____ _____    ______ ____
ROOT
ATOM      1  O   UNL     1      31.151 -11.170 -19.860  0.00  0.00    -0.209 OA
ATOM      2  N   UNL     1      34.169 -15.171 -21.438  0.00  0.00    -0.305 N 
ATOM      3  N   UNL     1      34.882 -14.710 -23.491  0.00  0.00    -0.305 N 
ATOM      4  N   UNL     1      32.466 -10.391 -23.562  0.00  0.00    -0.275 N 
ATOM      5  N   UNL     1      31.196  -9.748 -21.655  0.00  0.00    -0.302 NA
ATOM      6  N   UNL     1      31.334  -8.397 -23.564  0.00  0.00    -0.320 N 
ATOM      7  C   UNL     1      33.624 -13.952 -21.749  0.00  0.00    +0.061 C 
ATOM      8  C   UNL     1      34.085 -13.685 -23.035  0.00  0.00    +0.061 C 
ATOM      9  C   UNL     1      34.911 -15.584 -22.509  0.00  0.00    +0.208 C 
ATOM     10  C   UNL     1      32.871 -11.595 -22.977  0.00  0.00    +0.064 C 
ATOM     11  C   UNL     1      32.428 -11.898 -21.681  0.00  0.00    +0.110 C 
ATOM     12  C   UNL     1      32.794 -13.087 -21.033  0.00  0.00    +0.030 C 
ATOM     13  C   UNL     1      33.706 -12.489 -23.666  0.00  0.00    +0.031 C 
ATOM     14  C   UNL     1      31.543 -10.913 -20.995  0.00  0.00    +0.208 C 
ATOM     15  C   UNL     1      31.648  -9.534 -22.863  0.00  0.00    +0.248 C 
ATOM     16  H   UNL     1      34.047 -15.663 -20.594  0.00  0.00    +0.150 HD
ATOM     17  H   UNL     1      35.332 -14.775 -24.363  0.00  0.00    +0.150 HD
ATOM     18  H   UNL     1      32.765 -10.158 -24.470  0.00  0.00    +0.156 HD
ATOM     19  H   UNL     1      31.690  -8.264 -24.472  0.00  0.00    +0.146 HD
ATOM     20  H   UNL     1      30.752  -7.714 -23.158  0.00  0.00    +0.146 HD
ENDROOT
BRANCH   9  21
ATOM     21  N   UNL     1      35.546 -16.773 -22.429  0.00  0.00    -0.263 NA
ATOM     22  H   UNL     1      36.530 -16.766 -22.401  0.00  0.00    +0.127 HD
BRANCH  21  23
ATOM     23  C   UNL     1      34.879 -18.062 -22.381  0.00  0.00    +0.098 C 
BRANCH  23  24
ATOM     24  C   UNL     1      35.517 -18.948 -21.347  0.00  0.00    -0.006 C 
ATOM     25  C   UNL     1      34.769 -19.855 -20.580  0.00  0.00    -0.003 C 
ATOM     26  C   UNL     1      35.429 -20.661 -19.622  0.00  0.00    -0.000 C 
ATOM     27  C   UNL     1      36.897 -18.837 -21.173  0.00  0.00    -0.003 C 
ATOM     28  C   UNL     1      33.379 -19.980 -20.741  0.00  0.00    -0.000 C 
ATOM     29  C   UNL     1      36.819 -20.536 -19.461  0.00  0.00    -0.000 C 
ATOM     30  C   UNL     1      37.546 -19.630 -20.232  0.00  0.00    -0.000 C 
ATOM     31  C   UNL     1      34.681 -21.568 -18.855  0.00  0.00    -0.000 C 
ATOM     32  C   UNL     1      32.651 -20.886 -19.969  0.00  0.00    -0.000 C 
ATOM     33  C   UNL     1      33.301 -21.679 -19.028  0.00  0.00    -0.000 C 
ENDBRANCH  23  24
ENDBRANCH  21  23
ENDBRANCH   9  21
TORSDOF 3
ENDMDL
MODEL 8
REMARK VINA RESULT:     -11.8      3.811      9.686
REMARK  Name = 16750097
REMARK  3 active torsions:
REMARK  status: ('A' for Active; 'I' for Inactive)
REMARK    1  A    between atoms: N_3  and  C_10
REMARK    2  A    between atoms: N_3  and  C_23
REMARK    3  A    between atoms: C_23  and  C_24
REMARK                            x       y       z     vdW  Elec       q    Type
REMARK                         _______ _______ _______ _____ _____    ______ ____
ROOT
ATOM      1  O   UNL     1      37.949 -22.779 -15.009  0.00  0.00    -0.209 OA
ATOM      2  N   UNL     1      36.453 -20.334 -19.412  0.00  0.00    -0.305 N 
ATOM      3  N   UNL     1      34.352 -20.921 -19.829  0.00  0.00    -0.305 N 
ATOM      4  N   UNL     1      34.162 -23.804 -15.810  0.00  0.00    -0.275 N 
ATOM      5  N   UNL     1      36.085 -23.971 -14.419  0.00  0.00    -0.302 NA
ATOM      6  N   UNL     1      34.107 -25.132 -13.942  0.00  0.00    -0.320 N 
ATOM      7  C   UNL     1      36.103 -21.188 -18.398  0.00  0.00    +0.061 C 
ATOM      8  C   UNL     1      34.787 -21.540 -18.680  0.00  0.00    +0.061 C 
ATOM      9  C   UNL     1      35.374 -20.206 -20.242  0.00  0.00    +0.208 C 
ATOM     10  C   UNL     1      34.790 -22.923 -16.696  0.00  0.00    +0.064 C 
ATOM     11  C   UNL     1      36.117 -22.544 -16.444  0.00  0.00    +0.110 C 
ATOM     12  C   UNL     1      36.809 -21.665 -17.291  0.00  0.00    +0.030 C 
ATOM     13  C   UNL     1      34.112 -22.422 -17.820  0.00  0.00    +0.031 C 
ATOM     14  C   UNL     1      36.789 -23.106 -15.238  0.00  0.00    +0.208 C 
ATOM     15  C   UNL     1      34.850 -24.279 -14.718  0.00  0.00    +0.248 C 
ATOM     16  H   UNL     1      37.325 -19.891 -19.524  0.00  0.00    +0.150 HD
ATOM     17  H   UNL     1      33.466 -20.998 -20.251  0.00  0.00    +0.150 HD
ATOM     18  H   UNL     1      33.231 -24.083 -15.967  0.00  0.00    +0.156 HD
ATOM     19  H   UNL     1      33.179 -25.344 -14.193  0.00  0.00    +0.146 HD
ATOM     20  H   UNL     1      34.502 -25.532 -13.133  0.00  0.00    +0.146 HD
ENDROOT
BRANCH   9  21
ATOM     21  N   UNL     1      35.489 -19.406 -21.323  0.00  0.00    -0.263 NA
ATOM     22  H   UNL     1      35.372 -19.815 -22.211  0.00  0.00    +0.127 HD
BRANCH  21  23
ATOM     23  C   UNL     1      35.771 -17.982 -21.268  0.00  0.00    +0.098 C 
BRANCH  23  24
ATOM     24  C   UNL     1      35.151 -17.276 -22.442  0.00  0.00    -0.006 C 
ATOM     25  C   UNL     1      34.747 -15.933 -22.374  0.00  0.00    -0.003 C 
ATOM     26  C   UNL     1      34.170 -15.325 -23.515  0.00  0.00    -0.000 C 
ATOM     27  C   UNL     1      34.989 -18.009 -23.618  0.00  0.00    -0.003 C 
ATOM     28  C   UNL     1      34.902 -15.179 -21.199  0.00  0.00    -0.000 C 
ATOM     29  C   UNL     1      34.014 -16.079 -24.690  0.00  0.00    -0.000 C 
ATOM     30  C   UNL     1      34.422 -17.413 -24.739  0.00  0.00    -0.000 C 
ATOM     31  C   UNL     1      33.765 -13.983 -23.447  0.00  0.00    -0.000 C 
ATOM     32  C   UNL     1      34.493 -13.846 -21.150  0.00  0.00    -0.000 C 
ATOM     33  C   UNL     1      33.927 -13.249 -22.272  0.00  0.00    -0.000 C 
ENDBRANCH  23  24
ENDBRANCH  21  23
ENDBRANCH   9  21
TORSDOF 3
ENDMDL
MODEL 9
REMARK VINA RESULT:     -11.8      4.411     11.359
REMARK  Name = 16750097
REMARK  3 active torsions:
REMARK  status: ('A' for Active; 'I' for Inactive)
REMARK    1  A    between atoms: N_3  and  C_10
REMARK    2  A    between atoms: N_3  and  C_23
REMARK    3  A    between atoms: C_23  and  C_24
REMARK                            x       y       z     vdW  Elec       q    Type
REMARK                         _______ _______ _______ _____ _____    ______ ____
ROOT
ATOM      1  O   UNL     1      34.944 -16.213 -24.627  0.00  0.00    -0.209 OA
ATOM      2  N   UNL     1      32.449 -12.023 -22.674  0.00  0.00    -0.305 N 
ATOM      3  N   UNL     1      32.496 -12.181 -20.458  0.00  0.00    -0.305 N 
ATOM      4  N   UNL     1      35.000 -16.447 -20.630  0.00  0.00    -0.275 N 
ATOM      5  N   UNL     1      35.578 -17.361 -22.750  0.00  0.00    -0.302 NA
ATOM      6  N   UNL     1      36.158 -18.423 -20.744  0.00  0.00    -0.320 N 
ATOM      7  C   UNL     1      33.124 -13.185 -22.404  0.00  0.00    +0.061 C 
ATOM      8  C   UNL     1      33.141 -13.261 -21.015  0.00  0.00    +0.061 C 
ATOM      9  C   UNL     1      32.094 -11.459 -21.480  0.00  0.00    +0.208 C 
ATOM     10  C   UNL     1      34.363 -15.340 -21.199  0.00  0.00    +0.064 C 
ATOM     11  C   UNL     1      34.326 -15.228 -22.597  0.00  0.00    +0.110 C 
ATOM     12  C   UNL     1      33.704 -14.145 -23.236  0.00  0.00    +0.030 C 
ATOM     13  C   UNL     1      33.770 -14.354 -20.394  0.00  0.00    +0.031 C 
ATOM     14  C   UNL     1      34.971 -16.303 -23.404  0.00  0.00    +0.208 C 
ATOM     15  C   UNL     1      35.573 -17.398 -21.443  0.00  0.00    +0.248 C 
ATOM     16  H   UNL     1      32.253 -11.658 -23.567  0.00  0.00    +0.150 HD
ATOM     17  H   UNL     1      32.365 -11.991 -19.501  0.00  0.00    +0.150 HD
ATOM     18  H   UNL     1      35.038 -16.546 -19.651  0.00  0.00    +0.156 HD
ATOM     19  H   UNL     1      36.138 -18.422 -19.760  0.00  0.00    +0.146 HD
ATOM     20  H   UNL     1      36.598 -19.160 -21.227  0.00  0.00    +0.146 HD
ENDROOT
BRANCH   9  21
ATOM     21  N   UNL     1      31.410 -10.294 -21.499  0.00  0.00    -0.263 NA
ATOM     22  H   UNL     1      30.443 -10.333 -21.681  0.00  0.00    +0.127 HD
BRANCH  21  23
ATOM     23  C   UNL     1      32.002  -8.988 -21.269  0.00  0.00    +0.098 C 
BRANCH  23  24
ATOM     24  C   UNL     1      31.962  -8.162 -22.524  0.00  0.00    -0.006 C 
ATOM     25  C   UNL     1      33.109  -7.541 -23.044  0.00  0.00    -0.003 C 
ATOM     26  C   UNL     1      33.005  -6.776 -24.231  0.00  0.00    -0.000 C 
ATOM     27  C   UNL     1      30.729  -8.030 -23.165  0.00  0.00    -0.003 C 
ATOM     28  C   UNL     1      34.358  -7.662 -22.413  0.00  0.00    -0.000 C 
ATOM     29  C   UNL     1      31.755  -6.655 -24.862  0.00  0.00    -0.000 C 
ATOM     30  C   UNL     1      30.626  -7.279 -24.331  0.00  0.00    -0.000 C 
ATOM     31  C   UNL     1      34.151  -6.156 -24.751  0.00  0.00    -0.000 C 
ATOM     32  C   UNL     1      35.487  -7.038 -22.944  0.00  0.00    -0.000 C 
ATOM     33  C   UNL     1      35.384  -6.286 -24.111  0.00  0.00    -0.000 C 
ENDBRANCH  23  24
ENDBRANCH  21  23
ENDBRANCH   9  21
TORSDOF 3
ENDMDL
