MODEL 1
REMARK VINA RESULT:     -11.8      0.000      0.000
REMARK  Name = 7297549
REMARK  3 active torsions:
REMARK  status: ('A' for Active; 'I' for Inactive)
REMARK    1  A    between atoms: N_3  and  S_16
REMARK    2  A    between atoms: C_7  and  C_11
REMARK    3  A    between atoms: S_16  and  C_19
REMARK                            x       y       z     vdW  Elec       q    Type
REMARK                         _______ _______ _______ _____ _____    ______ ____
ROOT
ATOM      1  S   UNL     1      34.385 -14.924 -21.871  0.00  0.00    -0.025 S 
ATOM      2  O   UNL     1      33.966 -16.016 -25.499  0.00  0.00    -0.209 OA
ATOM      3  N   UNL     1      35.709 -17.193 -21.311  0.00  0.00    -0.183 N 
ATOM      4  N   UNL     1      34.918 -16.838 -23.549  0.00  0.00    -0.309 NA
ATOM      5  C   UNL     1      35.056 -16.459 -22.322  0.00  0.00    +0.243 C 
ATOM      6  C   UNL     1      33.843 -14.724 -23.489  0.00  0.00    +0.131 C 
ATOM      7  C   UNL     1      33.173 -13.675 -23.966  0.00  0.00    +0.057 C 
ATOM      8  C   UNL     1      34.231 -15.906 -24.310  0.00  0.00    +0.213 C 
ATOM      9  H   UNL     1      35.721 -16.814 -20.403  0.00  0.00    +0.177 HD
ENDROOT
BRANCH   7  11
ATOM     10  O   UNL     1      31.843 -12.610 -22.238  0.00  0.00    -0.458 OA
ATOM     11  C   UNL     1      32.791 -12.528 -23.194  0.00  0.00    +0.146 C 
ATOM     12  C   UNL     1      31.734 -11.360 -21.717  0.00  0.00    +0.123 C 
ATOM     13  C   UNL     1      33.297 -11.268 -23.306  0.00  0.00    +0.040 C 
ATOM     14  C   UNL     1      32.607 -10.498 -22.340  0.00  0.00    +0.036 C 
ATOM     15  C   UNL     1      30.749 -11.189 -20.640  0.00  0.00    +0.072 C 
ENDBRANCH   7  11
BRANCH   3  16
ATOM     16  S   UNL     1      36.483 -18.701 -21.557  0.00  0.00    +0.076 S 
ATOM     17  O   UNL     1      37.825 -18.639 -20.992  0.00  0.00    -0.150 OA
ATOM     18  O   UNL     1      36.309 -19.094 -22.950  0.00  0.00    -0.150 OA
BRANCH  16  19
ATOM     19  C   UNL     1      35.507 -19.763 -20.575  0.00  0.00    +0.125 C 
ATOM     20  C   UNL     1      34.116 -19.690 -20.638  0.00  0.00    +0.020 C 
ATOM     21  C   UNL     1      36.119 -20.687 -19.727  0.00  0.00    +0.020 C 
ATOM     22  C   UNL     1      33.947 -21.464 -19.007  0.00  0.00    -0.022 C 
ATOM     23  C   UNL     1      33.336 -20.541 -19.854  0.00  0.00    -0.003 C 
ATOM     24  C   UNL     1      35.340 -21.537 -18.943  0.00  0.00    -0.003 C 
ATOM     25  C   UNL     1      33.114 -22.373 -18.168  0.00  0.00    +0.031 C 
ENDBRANCH  16  19
ENDBRANCH   3  16
TORSDOF 3
ENDMDL
MODEL 2
REMARK VINA RESULT:     -10.0      1.862      8.319
REMARK  Name = 7297549
REMARK  3 active torsions:
REMARK  status: ('A' for Active; 'I' for Inactive)
REMARK    1  A    between atoms: N_3  and  S_16
REMARK    2  A    between atoms: C_7  and  C_11
REMARK    3  A    between atoms: S_16  and  C_19
REMARK                            x       y       z     vdW  Elec       q    Type
REMARK                         _______ _______ _______ _____ _____    ______ ____
ROOT
ATOM      1  S   UNL     1      34.871 -16.240 -21.489  0.00  0.00    -0.025 S 
ATOM      2  O   UNL     1      34.635 -17.256 -25.156  0.00  0.00    -0.209 OA
ATOM      3  N   UNL     1      33.876 -13.814 -22.069  0.00  0.00    -0.183 N 
ATOM      4  N   UNL     1      34.167 -15.398 -23.847  0.00  0.00    -0.309 NA
ATOM      5  C   UNL     1      34.249 -15.064 -22.602  0.00  0.00    +0.243 C 
ATOM      6  C   UNL     1      35.057 -17.333 -22.802  0.00  0.00    +0.131 C 
ATOM      7  C   UNL     1      35.529 -18.577 -22.725  0.00  0.00    +0.057 C 
ATOM      8  C   UNL     1      34.608 -16.692 -24.071  0.00  0.00    +0.213 C 
ATOM      9  H   UNL     1      34.017 -13.665 -21.105  0.00  0.00    +0.177 HD
ENDROOT
BRANCH   7  11
ATOM     10  O   UNL     1      35.224 -20.169 -20.918  0.00  0.00    -0.458 OA
ATOM     11  C   UNL     1      35.965 -19.213 -21.514  0.00  0.00    +0.146 C 
ATOM     12  C   UNL     1      35.922 -20.544 -19.815  0.00  0.00    +0.123 C 
ATOM     13  C   UNL     1      37.117 -18.959 -20.832  0.00  0.00    +0.040 C 
ATOM     14  C   UNL     1      37.093 -19.829 -19.717  0.00  0.00    +0.036 C 
ATOM     15  C   UNL     1      35.311 -21.592 -18.985  0.00  0.00    +0.072 C 
ENDBRANCH   7  11
BRANCH   3  16
ATOM     16  S   UNL     1      33.193 -12.536 -22.982  0.00  0.00    +0.076 S 
ATOM     17  O   UNL     1      32.058 -13.052 -23.737  0.00  0.00    -0.150 OA
ATOM     18  O   UNL     1      34.263 -11.840 -23.684  0.00  0.00    -0.150 OA
BRANCH  16  19
ATOM     19  C   UNL     1      32.601 -11.480 -21.725  0.00  0.00    +0.125 C 
ATOM     20  C   UNL     1      32.341 -11.988 -20.452  0.00  0.00    +0.020 C 
ATOM     21  C   UNL     1      32.388 -10.128 -21.993  0.00  0.00    +0.020 C 
ATOM     22  C   UNL     1      31.656  -9.792 -19.715  0.00  0.00    -0.022 C 
ATOM     23  C   UNL     1      31.869 -11.143 -19.447  0.00  0.00    -0.003 C 
ATOM     24  C   UNL     1      31.916  -9.284 -20.988  0.00  0.00    -0.003 C 
ATOM     25  C   UNL     1      31.152  -8.889 -18.641  0.00  0.00    +0.031 C 
ENDBRANCH  16  19
ENDBRANCH   3  16
TORSDOF 3
ENDMDL
MODEL 3
REMARK VINA RESULT:      -9.7      6.220     11.534
REMARK  Name = 7297549
REMARK  3 active torsions:
REMARK  status: ('A' for Active; 'I' for Inactive)
REMARK    1  A    between atoms: N_3  and  S_16
REMARK    2  A    between atoms: C_7  and  C_11
REMARK    3  A    between atoms: S_16  and  C_19
REMARK                            x       y       z     vdW  Elec       q    Type
REMARK                         _______ _______ _______ _____ _____    ______ ____
ROOT
ATOM      1  S   UNL     1      35.149 -23.348 -15.049  0.00  0.00    -0.025 S 
ATOM      2  O   UNL     1      31.496 -24.200 -14.368  0.00  0.00    -0.209 OA
ATOM      3  N   UNL     1      34.521 -22.507 -17.521  0.00  0.00    -0.183 N 
ATOM      4  N   UNL     1      32.771 -23.333 -16.102  0.00  0.00    -0.309 NA
ATOM      5  C   UNL     1      34.011 -23.046 -16.323  0.00  0.00    +0.243 C 
ATOM      6  C   UNL     1      33.855 -23.928 -14.078  0.00  0.00    +0.131 C 
ATOM      7  C   UNL     1      33.957 -24.386 -12.830  0.00  0.00    +0.057 C 
ATOM      8  C   UNL     1      32.572 -23.849 -14.832  0.00  0.00    +0.213 C 
ATOM      9  H   UNL     1      35.493 -22.362 -17.582  0.00  0.00    +0.177 HD
ENDROOT
BRANCH   7  11
ATOM     10  O   UNL     1      36.220 -25.210 -12.526  0.00  0.00    -0.458 OA
ATOM     11  C   UNL     1      35.181 -24.470 -12.087  0.00  0.00    +0.146 C 
ATOM     12  C   UNL     1      37.197 -25.066 -11.594  0.00  0.00    +0.123 C 
ATOM     13  C   UNL     1      35.457 -23.854 -10.903  0.00  0.00    +0.040 C 
ATOM     14  C   UNL     1      36.777 -24.243 -10.575  0.00  0.00    +0.036 C 
ATOM     15  C   UNL     1      38.451 -25.788 -11.851  0.00  0.00    +0.072 C 
ENDBRANCH   7  11
BRANCH   3  16
ATOM     16  S   UNL     1      33.565 -22.086 -18.878  0.00  0.00    +0.076 S 
ATOM     17  O   UNL     1      32.373 -21.386 -18.416  0.00  0.00    -0.150 OA
ATOM     18  O   UNL     1      33.421 -23.260 -19.729  0.00  0.00    -0.150 OA
BRANCH  16  19
ATOM     19  C   UNL     1      34.602 -20.951 -19.703  0.00  0.00    +0.125 C 
ATOM     20  C   UNL     1      35.968 -20.922 -19.424  0.00  0.00    +0.020 C 
ATOM     21  C   UNL     1      34.064 -20.070 -20.643  0.00  0.00    +0.020 C 
ATOM     22  C   UNL     1      36.260 -19.136 -21.024  0.00  0.00    -0.022 C 
ATOM     23  C   UNL     1      36.797 -20.016 -20.085  0.00  0.00    -0.003 C 
ATOM     24  C   UNL     1      34.893 -19.164 -21.303  0.00  0.00    -0.003 C 
ATOM     25  C   UNL     1      37.145 -18.167 -21.730  0.00  0.00    +0.031 C 
ENDBRANCH  16  19
ENDBRANCH   3  16
TORSDOF 3
ENDMDL
MODEL 4
REMARK VINA RESULT:      -9.7      5.262     10.081
REMARK  Name = 7297549
REMARK  3 active torsions:
REMARK  status: ('A' for Active; 'I' for Inactive)
REMARK    1  A    between atoms: N_3  and  S_16
REMARK    2  A    between atoms: C_7  and  C_11
REMARK    3  A    between atoms: S_16  and  C_19
REMARK                            x       y       z     vdW  Elec       q    Type
REMARK                         _______ _______ _______ _____ _____    ______ ____
ROOT
ATOM      1  S   UNL     1      32.768 -22.817 -16.917  0.00  0.00    -0.025 S 
ATOM      2  O   UNL     1      35.355 -23.850 -14.315  0.00  0.00    -0.209 OA
ATOM      3  N   UNL     1      34.691 -21.711 -18.431  0.00  0.00    -0.183 N 
ATOM      4  N   UNL     1      35.306 -22.747 -16.356  0.00  0.00    -0.309 NA
ATOM      5  C   UNL     1      34.423 -22.402 -17.233  0.00  0.00    +0.243 C 
ATOM      6  C   UNL     1      33.267 -23.544 -15.443  0.00  0.00    +0.131 C 
ATOM      7  C   UNL     1      32.472 -24.144 -14.556  0.00  0.00    +0.057 C 
ATOM      8  C   UNL     1      34.743 -23.415 -15.281  0.00  0.00    +0.213 C 
ATOM      9  H   UNL     1      33.927 -21.473 -19.005  0.00  0.00    +0.177 HD
ENDROOT
BRANCH   7  11
ATOM     10  O   UNL     1      30.270 -23.221 -14.991  0.00  0.00    -0.458 OA
ATOM     11  C   UNL     1      31.050 -24.280 -14.694  0.00  0.00    +0.146 C 
ATOM     12  C   UNL     1      29.000 -23.700 -15.042  0.00  0.00    +0.123 C 
ATOM     13  C   UNL     1      30.326 -25.425 -14.552  0.00  0.00    +0.040 C 
ATOM     14  C   UNL     1      28.981 -25.050 -14.779  0.00  0.00    +0.036 C 
ATOM     15  C   UNL     1      27.949 -22.721 -15.355  0.00  0.00    +0.072 C 
ENDBRANCH   7  11
BRANCH   3  16
ATOM     16  S   UNL     1      36.256 -21.257 -18.957  0.00  0.00    +0.076 S 
ATOM     17  O   UNL     1      36.927 -22.429 -19.506  0.00  0.00    -0.150 OA
ATOM     18  O   UNL     1      36.901 -20.493 -17.897  0.00  0.00    -0.150 OA
BRANCH  16  19
ATOM     19  C   UNL     1      35.886 -20.157 -20.260  0.00  0.00    +0.125 C 
ATOM     20  C   UNL     1      36.820 -19.198 -20.652  0.00  0.00    +0.020 C 
ATOM     21  C   UNL     1      34.655 -20.237 -20.912  0.00  0.00    +0.020 C 
ATOM     22  C   UNL     1      35.294 -18.400 -22.346  0.00  0.00    -0.022 C 
ATOM     23  C   UNL     1      36.524 -18.321 -21.695  0.00  0.00    -0.003 C 
ATOM     24  C   UNL     1      34.359 -19.359 -21.954  0.00  0.00    -0.003 C 
ATOM     25  C   UNL     1      34.977 -17.462 -23.460  0.00  0.00    +0.031 C 
ENDBRANCH  16  19
ENDBRANCH   3  16
TORSDOF 3
ENDMDL
MODEL 5
REMARK VINA RESULT:      -9.2      5.248     11.376
REMARK  Name = 7297549
REMARK  3 active torsions:
REMARK  status: ('A' for Active; 'I' for Inactive)
REMARK    1  A    between atoms: N_3  and  S_16
REMARK    2  A    between atoms: C_7  and  C_11
REMARK    3  A    between atoms: S_16  and  C_19
REMARK                            x       y       z     vdW  Elec       q    Type
REMARK                         _______ _______ _______ _____ _____    ______ ____
ROOT
ATOM      1  S   UNL     1      33.256 -11.073 -23.189  0.00  0.00    -0.025 S 
ATOM      2  O   UNL     1      30.273 -11.132 -20.816  0.00  0.00    -0.209 OA
ATOM      3  N   UNL     1      32.762  -8.502 -23.791  0.00  0.00    -0.183 N 
ATOM      4  N   UNL     1      31.324  -9.620 -22.228  0.00  0.00    -0.309 NA
ATOM      5  C   UNL     1      32.338  -9.610 -23.029  0.00  0.00    +0.243 C 
ATOM      6  C   UNL     1      32.195 -11.821 -22.064  0.00  0.00    +0.131 C 
ATOM      7  C   UNL     1      32.269 -13.081 -21.636  0.00  0.00    +0.057 C 
ATOM      8  C   UNL     1      31.153 -10.852 -21.618  0.00  0.00    +0.213 C 
ATOM      9  H   UNL     1      33.531  -8.627 -24.393  0.00  0.00    +0.177 HD
ENDROOT
BRANCH   7  11
ATOM     10  O   UNL     1      33.254 -14.555 -23.294  0.00  0.00    -0.458 OA
ATOM     11  C   UNL     1      33.263 -14.029 -22.052  0.00  0.00    +0.146 C 
ATOM     12  C   UNL     1      34.316 -15.401 -23.345  0.00  0.00    +0.123 C 
ATOM     13  C   UNL     1      34.294 -14.508 -21.301  0.00  0.00    +0.040 C 
ATOM     14  C   UNL     1      34.987 -15.408 -22.145  0.00  0.00    +0.036 C 
ATOM     15  C   UNL     1      34.523 -16.107 -24.617  0.00  0.00    +0.072 C 
ENDBRANCH   7  11
BRANCH   3  16
ATOM     16  S   UNL     1      32.030  -6.955 -23.740  0.00  0.00    +0.076 S 
ATOM     17  O   UNL     1      32.050  -6.470 -22.366  0.00  0.00    -0.150 OA
ATOM     18  O   UNL     1      30.765  -7.012 -24.461  0.00  0.00    -0.150 OA
BRANCH  16  19
ATOM     19  C   UNL     1      33.145  -6.005 -24.689  0.00  0.00    +0.125 C 
ATOM     20  C   UNL     1      34.512  -6.285 -24.648  0.00  0.00    +0.020 C 
ATOM     21  C   UNL     1      32.671  -4.966 -25.490  0.00  0.00    +0.020 C 
ATOM     22  C   UNL     1      34.928  -4.489 -26.208  0.00  0.00    -0.022 C 
ATOM     23  C   UNL     1      35.402  -5.527 -25.408  0.00  0.00    -0.003 C 
ATOM     24  C   UNL     1      33.561  -4.209 -26.250  0.00  0.00    -0.003 C 
ATOM     25  C   UNL     1      35.880  -3.678 -27.020  0.00  0.00    +0.031 C 
ENDBRANCH  16  19
ENDBRANCH   3  16
TORSDOF 3
ENDMDL
MODEL 6
REMARK VINA RESULT:      -9.2      3.020      4.909
REMARK  Name = 7297549
REMARK  3 active torsions:
REMARK  status: ('A' for Active; 'I' for Inactive)
REMARK    1  A    between atoms: N_3  and  S_16
REMARK    2  A    between atoms: C_7  and  C_11
REMARK    3  A    between atoms: S_16  and  C_19
REMARK                            x       y       z     vdW  Elec       q    Type
REMARK                         _______ _______ _______ _____ _____    ______ ____
ROOT
ATOM      1  S   UNL     1      34.242 -18.926 -20.835  0.00  0.00    -0.025 S 
ATOM      2  O   UNL     1      38.050 -19.096 -20.728  0.00  0.00    -0.209 OA
ATOM      3  N   UNL     1      34.073 -21.253 -19.505  0.00  0.00    -0.183 N 
ATOM      4  N   UNL     1      36.245 -20.365 -20.008  0.00  0.00    -0.309 NA
ATOM      5  C   UNL     1      34.955 -20.298 -20.048  0.00  0.00    +0.243 C 
ATOM      6  C   UNL     1      35.822 -18.339 -21.167  0.00  0.00    +0.131 C 
ATOM      7  C   UNL     1      36.120 -17.210 -21.811  0.00  0.00    +0.057 C 
ATOM      8  C   UNL     1      36.844 -19.280 -20.626  0.00  0.00    +0.213 C 
ATOM      9  H   UNL     1      33.107 -21.109 -19.629  0.00  0.00    +0.177 HD
ENDROOT
BRANCH   7  11
ATOM     10  O   UNL     1      34.581 -15.350 -21.557  0.00  0.00    -0.458 OA
ATOM     11  C   UNL     1      35.152 -16.290 -22.337  0.00  0.00    +0.146 C 
ATOM     12  C   UNL     1      33.729 -14.667 -22.365  0.00  0.00    +0.123 C 
ATOM     13  C   UNL     1      34.697 -16.236 -23.621  0.00  0.00    +0.040 C 
ATOM     14  C   UNL     1      33.763 -15.173 -23.644  0.00  0.00    +0.036 C 
ATOM     15  C   UNL     1      32.975 -13.573 -21.737  0.00  0.00    +0.072 C 
ENDBRANCH   7  11
BRANCH   3  16
ATOM     16  S   UNL     1      34.567 -22.649 -18.644  0.00  0.00    +0.076 S 
ATOM     17  O   UNL     1      35.873 -22.396 -18.049  0.00  0.00    -0.150 OA
ATOM     18  O   UNL     1      34.383 -23.814 -19.499  0.00  0.00    -0.150 OA
BRANCH  16  19
ATOM     19  C   UNL     1      33.373 -22.722 -17.374  0.00  0.00    +0.125 C 
ATOM     20  C   UNL     1      32.059 -22.328 -17.628  0.00  0.00    +0.020 C 
ATOM     21  C   UNL     1      33.732 -23.175 -16.104  0.00  0.00    +0.020 C 
ATOM     22  C   UNL     1      31.463 -22.841 -15.344  0.00  0.00    -0.022 C 
ATOM     23  C   UNL     1      31.104 -22.389 -16.613  0.00  0.00    -0.003 C 
ATOM     24  C   UNL     1      32.777 -23.235 -15.089  0.00  0.00    -0.003 C 
ATOM     25  C   UNL     1      30.443 -22.905 -14.258  0.00  0.00    +0.031 C 
ENDBRANCH  16  19
ENDBRANCH   3  16
TORSDOF 3
ENDMDL
MODEL 7
REMARK VINA RESULT:      -8.9      3.164      8.991
REMARK  Name = 7297549
REMARK  3 active torsions:
REMARK  status: ('A' for Active; 'I' for Inactive)
REMARK    1  A    between atoms: N_3  and  S_16
REMARK    2  A    between atoms: C_7  and  C_11
REMARK    3  A    between atoms: S_16  and  C_19
REMARK                            x       y       z     vdW  Elec       q    Type
REMARK                         _______ _______ _______ _____ _____    ______ ____
ROOT
ATOM      1  S   UNL     1      33.379 -21.219 -19.012  0.00  0.00    -0.025 S 
ATOM      2  O   UNL     1      36.880 -22.259 -17.919  0.00  0.00    -0.209 OA
ATOM      3  N   UNL     1      34.407 -19.774 -21.028  0.00  0.00    -0.183 N 
ATOM      4  N   UNL     1      35.905 -20.957 -19.573  0.00  0.00    -0.309 NA
ATOM      5  C   UNL     1      34.715 -20.611 -19.937  0.00  0.00    +0.243 C 
ATOM      6  C   UNL     1      34.498 -22.045 -18.003  0.00  0.00    +0.131 C 
ATOM      7  C   UNL     1      34.192 -22.811 -16.956  0.00  0.00    +0.057 C 
ATOM      8  C   UNL     1      35.892 -21.787 -18.465  0.00  0.00    +0.213 C 
ATOM      9  H   UNL     1      33.461 -19.554 -21.186  0.00  0.00    +0.177 HD
ENDROOT
BRANCH   7  11
ATOM     10  O   UNL     1      32.615 -23.980 -15.529  0.00  0.00    -0.458 OA
ATOM     11  C   UNL     1      32.858 -23.072 -16.496  0.00  0.00    +0.146 C 
ATOM     12  C   UNL     1      31.269 -23.973 -15.345  0.00  0.00    +0.123 C 
ATOM     13  C   UNL     1      31.714 -22.480 -16.941  0.00  0.00    +0.040 C 
ATOM     14  C   UNL     1      30.670 -23.068 -16.190  0.00  0.00    +0.036 C 
ATOM     15  C   UNL     1      30.748 -24.894 -14.325  0.00  0.00    +0.072 C 
ENDBRANCH   7  11
BRANCH   3  16
ATOM     16  S   UNL     1      35.570 -19.113 -22.099  0.00  0.00    +0.076 S 
ATOM     17  O   UNL     1      35.344 -19.656 -23.432  0.00  0.00    -0.150 OA
ATOM     18  O   UNL     1      36.888 -19.235 -21.489  0.00  0.00    -0.150 OA
BRANCH  16  19
ATOM     19  C   UNL     1      35.132 -17.424 -22.096  0.00  0.00    +0.125 C 
ATOM     20  C   UNL     1      35.036 -16.729 -20.890  0.00  0.00    +0.020 C 
ATOM     21  C   UNL     1      34.879 -16.767 -23.301  0.00  0.00    +0.020 C 
ATOM     22  C   UNL     1      34.435 -14.722 -22.093  0.00  0.00    -0.022 C 
ATOM     23  C   UNL     1      34.688 -15.378 -20.889  0.00  0.00    -0.003 C 
ATOM     24  C   UNL     1      34.531 -15.417 -23.299  0.00  0.00    -0.003 C 
ATOM     25  C   UNL     1      34.062 -13.278 -22.092  0.00  0.00    +0.031 C 
ENDBRANCH  16  19
ENDBRANCH   3  16
TORSDOF 3
ENDMDL
