MODEL 1
REMARK VINA RESULT:     -10.8      0.000      0.000
REMARK  Name = 216454
REMARK  6 active torsions:
REMARK  status: ('A' for Active; 'I' for Inactive)
REMARK    1  A    between atoms: N_2  and  C_16
REMARK    2  A    between atoms: N_3  and  C_10
REMARK    3  A    between atoms: C_16  and  C_19
REMARK    4  A    between atoms: N_17  and  C_22
REMARK    5  A    between atoms: C_22  and  C_23
REMARK    6  A    between atoms: C_28  and  C_30
REMARK                            x       y       z     vdW  Elec       q    Type
REMARK                         _______ _______ _______ _____ _____    ______ ____
ROOT
ATOM      1  O   UNL     1      32.840 -14.717 -19.444  0.00  0.00    -0.277 OA
ATOM      2  N   UNL     1      34.419 -15.225 -22.552  0.00  0.00    +0.398 N 
ATOM      3  N   UNL     1      33.023 -13.182 -21.209  0.00  0.00    -0.262 N 
ATOM      4  C   UNL     1      34.571 -13.863 -23.054  0.00  0.00    -0.054 C 
ATOM      5  C   UNL     1      33.348 -13.064 -22.635  0.00  0.00    +0.075 C 
ATOM      6  C   UNL     1      34.464 -15.203 -21.091  0.00  0.00    +0.011 C 
ATOM      7  C   UNL     1      33.345 -14.357 -20.511  0.00  0.00    +0.208 C 
ATOM      8  H   UNL     1      33.521 -15.600 -22.858  0.00  0.00    -0.078 HD
ENDROOT
BRANCH   3  10
ATOM      9 CL   UNL     1      31.841 -10.311 -17.094  0.00  0.00    -0.082 Cl
ATOM     10  C   UNL     1      32.190 -12.158 -20.619  0.00  0.00    +0.054 C 
ATOM     11  C   UNL     1      32.396 -11.777 -19.297  0.00  0.00    +0.026 C 
ATOM     12  C   UNL     1      31.191 -11.560 -21.380  0.00  0.00    +0.015 C 
ATOM     13  C   UNL     1      31.593 -10.788 -18.730  0.00  0.00    +0.059 C 
ATOM     14  C   UNL     1      30.388 -10.571 -20.813  0.00  0.00    +0.002 C 
ATOM     15  C   UNL     1      30.588 -10.185 -19.487  0.00  0.00    +0.011 C 
ENDBRANCH   3  10
BRANCH   2  16
ATOM     16  C   UNL     1      35.478 -16.085 -23.077  0.00  0.00    -0.032 C 
BRANCH  16  19
ATOM     17  N   UNL     1      35.186 -18.537 -22.670  0.00  0.00    -0.270 N 
ATOM     18  N   UNL     1      33.995 -19.214 -24.419  0.00  0.00    -0.225 NA
ATOM     19  C   UNL     1      34.963 -17.452 -23.440  0.00  0.00    +0.029 C 
ATOM     20  C   UNL     1      34.238 -17.866 -24.507  0.00  0.00    +0.109 C 
ATOM     21  C   UNL     1      34.580 -19.588 -23.302  0.00  0.00    +0.168 C 
BRANCH  17  22
ATOM     22  C   UNL     1      35.913 -18.610 -21.425  0.00  0.00    +0.123 C 
BRANCH  22  23
ATOM     23  C   UNL     1      35.397 -19.722 -20.553  0.00  0.00    -0.002 C 
ATOM     24  C   UNL     1      34.028 -19.902 -20.409  0.00  0.00    -0.002 C 
ATOM     25  C   UNL     1      36.298 -20.556 -19.904  0.00  0.00    -0.002 C 
ATOM     26  C   UNL     1      33.550 -20.933 -19.601  0.00  0.00    +0.010 C 
ATOM     27  C   UNL     1      35.821 -21.588 -19.096  0.00  0.00    +0.010 C 
ATOM     28  C   UNL     1      34.447 -21.777 -18.944  0.00  0.00    +0.068 C 
BRANCH  28  30
ATOM     29  N   UNL     1      33.559 -23.694 -17.446  0.00  0.00    -0.191 NA
ATOM     30  C   UNL     1      33.957 -22.834 -18.117  0.00  0.00    +0.100 C 
ENDBRANCH  28  30
ENDBRANCH  22  23
ENDBRANCH  17  22
ENDBRANCH  16  19
ENDBRANCH   2  16
TORSDOF 6
ENDMDL
MODEL 2
REMARK VINA RESULT:     -10.7      1.849      2.099
REMARK  Name = 216454
REMARK  6 active torsions:
REMARK  status: ('A' for Active; 'I' for Inactive)
REMARK    1  A    between atoms: N_2  and  C_16
REMARK    2  A    between atoms: N_3  and  C_10
REMARK    3  A    between atoms: C_16  and  C_19
REMARK    4  A    between atoms: N_17  and  C_22
REMARK    5  A    between atoms: C_22  and  C_23
REMARK    6  A    between atoms: C_28  and  C_30
REMARK                            x       y       z     vdW  Elec       q    Type
REMARK                         _______ _______ _______ _____ _____    ______ ____
ROOT
ATOM      1  O   UNL     1      32.680 -13.074 -20.031  0.00  0.00    -0.277 OA
ATOM      2  N   UNL     1      34.402 -15.293 -22.157  0.00  0.00    +0.398 N 
ATOM      3  N   UNL     1      33.227 -12.738 -22.288  0.00  0.00    -0.262 N 
ATOM      4  C   UNL     1      34.794 -14.428 -23.265  0.00  0.00    -0.054 C 
ATOM      5  C   UNL     1      33.676 -13.427 -23.504  0.00  0.00    +0.075 C 
ATOM      6  C   UNL     1      34.336 -14.500 -20.931  0.00  0.00    +0.011 C 
ATOM      7  C   UNL     1      33.315 -13.383 -21.044  0.00  0.00    +0.208 C 
ATOM      8  H   UNL     1      33.485 -15.696 -22.350  0.00  0.00    -0.078 HD
ENDROOT
BRANCH   3  10
ATOM      9 CL   UNL     1      33.202  -7.873 -23.990  0.00  0.00    -0.082 Cl
ATOM     10  C   UNL     1      32.513 -11.491 -22.443  0.00  0.00    +0.054 C 
ATOM     11  C   UNL     1      33.133 -10.414 -23.068  0.00  0.00    +0.026 C 
ATOM     12  C   UNL     1      31.210 -11.379 -21.967  0.00  0.00    +0.015 C 
ATOM     13  C   UNL     1      32.442  -9.211 -23.218  0.00  0.00    +0.059 C 
ATOM     14  C   UNL     1      30.520 -10.176 -22.118  0.00  0.00    +0.002 C 
ATOM     15  C   UNL     1      31.136  -9.092 -22.743  0.00  0.00    +0.011 C 
ENDBRANCH   3  10
BRANCH   2  16
ATOM     16  C   UNL     1      35.359 -16.388 -22.000  0.00  0.00    -0.032 C 
BRANCH  16  19
ATOM     17  N   UNL     1      35.366 -18.838 -22.509  0.00  0.00    -0.270 N 
ATOM     18  N   UNL     1      34.172 -18.983 -24.376  0.00  0.00    -0.225 NA
ATOM     19  C   UNL     1      34.983 -17.586 -22.831  0.00  0.00    +0.029 C 
ATOM     20  C   UNL     1      34.255 -17.674 -23.970  0.00  0.00    +0.109 C 
ATOM     21  C   UNL     1      34.851 -19.657 -23.476  0.00  0.00    +0.168 C 
BRANCH  17  22
ATOM     22  C   UNL     1      36.160 -19.263 -21.381  0.00  0.00    +0.123 C 
BRANCH  22  23
ATOM     23  C   UNL     1      35.365 -20.138 -20.449  0.00  0.00    -0.002 C 
ATOM     24  C   UNL     1      33.981 -20.029 -20.420  0.00  0.00    -0.002 C 
ATOM     25  C   UNL     1      36.026 -21.045 -19.632  0.00  0.00    -0.002 C 
ATOM     26  C   UNL     1      33.244 -20.840 -19.558  0.00  0.00    +0.010 C 
ATOM     27  C   UNL     1      35.290 -21.856 -18.769  0.00  0.00    +0.010 C 
ATOM     28  C   UNL     1      33.899 -21.754 -18.732  0.00  0.00    +0.068 C 
BRANCH  28  30
ATOM     29  N   UNL     1      32.530 -23.263 -17.131  0.00  0.00    -0.191 NA
ATOM     30  C   UNL     1      33.144 -22.586 -17.849  0.00  0.00    +0.100 C 
ENDBRANCH  28  30
ENDBRANCH  22  23
ENDBRANCH  17  22
ENDBRANCH  16  19
ENDBRANCH   2  16
TORSDOF 6
ENDMDL
MODEL 3
REMARK VINA RESULT:     -10.4      2.172      3.117
REMARK  Name = 216454
REMARK  6 active torsions:
REMARK  status: ('A' for Active; 'I' for Inactive)
REMARK    1  A    between atoms: N_2  and  C_16
REMARK    2  A    between atoms: N_3  and  C_10
REMARK    3  A    between atoms: C_16  and  C_19
REMARK    4  A    between atoms: N_17  and  C_22
REMARK    5  A    between atoms: C_22  and  C_23
REMARK    6  A    between atoms: C_28  and  C_30
REMARK                            x       y       z     vdW  Elec       q    Type
REMARK                         _______ _______ _______ _____ _____    ______ ____
ROOT
ATOM      1  O   UNL     1      33.488 -14.535 -25.506  0.00  0.00    -0.277 OA
ATOM      2  N   UNL     1      35.208 -16.769 -23.395  0.00  0.00    +0.398 N 
ATOM      3  N   UNL     1      33.903 -14.281 -23.211  0.00  0.00    -0.262 N 
ATOM      4  C   UNL     1      34.818 -16.311 -22.066  0.00  0.00    -0.054 C 
ATOM      5  C   UNL     1      34.712 -14.795 -22.098  0.00  0.00    +0.075 C 
ATOM      6  C   UNL     1      34.126 -16.487 -24.335  0.00  0.00    +0.011 C 
ATOM      7  C   UNL     1      33.831 -15.000 -24.415  0.00  0.00    +0.208 C 
ATOM      8  H   UNL     1      36.051 -16.275 -23.689  0.00  0.00    -0.078 HD
ENDROOT
BRANCH   3  10
ATOM      9 CL   UNL     1      30.510 -11.066 -21.039  0.00  0.00    -0.082 Cl
ATOM     10  C   UNL     1      33.374 -12.941 -23.098  0.00  0.00    +0.054 C 
ATOM     11  C   UNL     1      32.322 -12.685 -22.225  0.00  0.00    +0.026 C 
ATOM     12  C   UNL     1      33.924 -11.916 -23.863  0.00  0.00    +0.015 C 
ATOM     13  C   UNL     1      31.813 -11.391 -22.116  0.00  0.00    +0.059 C 
ATOM     14  C   UNL     1      33.415 -10.622 -23.754  0.00  0.00    +0.002 C 
ATOM     15  C   UNL     1      32.359 -10.360 -22.881  0.00  0.00    +0.011 C 
ENDBRANCH   3  10
BRANCH   2  16
ATOM     16  C   UNL     1      35.500 -18.202 -23.376  0.00  0.00    -0.032 C 
BRANCH  16  19
ATOM     17  N   UNL     1      35.632 -19.350 -21.156  0.00  0.00    -0.270 N 
ATOM     18  N   UNL     1      37.709 -18.940 -20.484  0.00  0.00    -0.225 NA
ATOM     19  C   UNL     1      36.221 -18.612 -22.119  0.00  0.00    +0.029 C 
ATOM     20  C   UNL     1      37.487 -18.362 -21.709  0.00  0.00    +0.109 C 
ATOM     21  C   UNL     1      36.573 -19.527 -20.179  0.00  0.00    +0.168 C 
BRANCH  17  22
ATOM     22  C   UNL     1      34.284 -19.865 -21.129  0.00  0.00    +0.123 C 
BRANCH  22  23
ATOM     23  C   UNL     1      34.068 -20.776 -19.951  0.00  0.00    -0.002 C 
ATOM     24  C   UNL     1      32.807 -20.867 -19.377  0.00  0.00    -0.002 C 
ATOM     25  C   UNL     1      35.133 -21.516 -19.454  0.00  0.00    -0.002 C 
ATOM     26  C   UNL     1      32.606 -21.712 -18.286  0.00  0.00    +0.010 C 
ATOM     27  C   UNL     1      34.933 -22.361 -18.362  0.00  0.00    +0.010 C 
ATOM     28  C   UNL     1      33.669 -22.459 -17.778  0.00  0.00    +0.068 C 
BRANCH  28  30
ATOM     29  N   UNL     1      33.297 -24.030 -15.753  0.00  0.00    -0.191 NA
ATOM     30  C   UNL     1      33.464 -23.325 -16.661  0.00  0.00    +0.100 C 
ENDBRANCH  28  30
ENDBRANCH  22  23
ENDBRANCH  17  22
ENDBRANCH  16  19
ENDBRANCH   2  16
TORSDOF 6
ENDMDL
MODEL 4
REMARK VINA RESULT:     -10.3      3.943      7.346
REMARK  Name = 216454
REMARK  6 active torsions:
REMARK  status: ('A' for Active; 'I' for Inactive)
REMARK    1  A    between atoms: N_2  and  C_16
REMARK    2  A    between atoms: N_3  and  C_10
REMARK    3  A    between atoms: C_16  and  C_19
REMARK    4  A    between atoms: N_17  and  C_22
REMARK    5  A    between atoms: C_22  and  C_23
REMARK    6  A    between atoms: C_28  and  C_30
REMARK                            x       y       z     vdW  Elec       q    Type
REMARK                         _______ _______ _______ _____ _____    ______ ____
ROOT
ATOM      1  O   UNL     1      37.481 -19.030 -20.375  0.00  0.00    -0.277 OA
ATOM      2  N   UNL     1      35.250 -21.220 -18.752  0.00  0.00    +0.398 N 
ATOM      3  N   UNL     1      35.183 -19.268 -20.779  0.00  0.00    -0.262 N 
ATOM      4  C   UNL     1      34.102 -21.225 -19.652  0.00  0.00    -0.054 C 
ATOM      5  C   UNL     1      33.943 -19.826 -20.225  0.00  0.00    +0.075 C 
ATOM      6  C   UNL     1      36.467 -20.990 -19.529  0.00  0.00    +0.011 C 
ATOM      7  C   UNL     1      36.424 -19.654 -20.248  0.00  0.00    +0.208 C 
ATOM      8  H   UNL     1      35.139 -20.474 -18.066  0.00  0.00    -0.078 HD
ENDROOT
BRANCH   3  10
ATOM      9 CL   UNL     1      34.842 -14.190 -21.597  0.00  0.00    -0.082 Cl
ATOM     10  C   UNL     1      35.070 -18.176 -21.720  0.00  0.00    +0.054 C 
ATOM     11  C   UNL     1      35.017 -16.867 -21.255  0.00  0.00    +0.026 C 
ATOM     12  C   UNL     1      35.019 -18.445 -23.084  0.00  0.00    +0.015 C 
ATOM     13  C   UNL     1      34.910 -15.814 -22.164  0.00  0.00    +0.059 C 
ATOM     14  C   UNL     1      34.913 -17.393 -23.993  0.00  0.00    +0.002 C 
ATOM     15  C   UNL     1      34.857 -16.077 -23.533  0.00  0.00    +0.011 C 
ENDBRANCH   3  10
BRANCH   2  16
ATOM     16  C   UNL     1      35.342 -22.491 -18.034  0.00  0.00    -0.032 C 
BRANCH  16  19
ATOM     17  N   UNL     1      35.872 -23.162 -15.682  0.00  0.00    -0.270 N 
ATOM     18  N   UNL     1      37.454 -21.725 -15.077  0.00  0.00    -0.225 NA
ATOM     19  C   UNL     1      36.093 -22.351 -16.737  0.00  0.00    +0.029 C 
ATOM     20  C   UNL     1      37.057 -21.474 -16.367  0.00  0.00    +0.109 C 
ATOM     21  C   UNL     1      36.721 -22.746 -14.694  0.00  0.00    +0.168 C 
BRANCH  17  22
ATOM     22  C   UNL     1      34.936 -24.256 -15.583  0.00  0.00    +0.123 C 
BRANCH  22  23
ATOM     23  C   UNL     1      33.533 -23.760 -15.358  0.00  0.00    -0.002 C 
ATOM     24  C   UNL     1      32.719 -23.491 -16.451  0.00  0.00    -0.002 C 
ATOM     25  C   UNL     1      33.070 -23.579 -14.062  0.00  0.00    -0.002 C 
ATOM     26  C   UNL     1      31.418 -23.032 -16.243  0.00  0.00    +0.010 C 
ATOM     27  C   UNL     1      31.770 -23.121 -13.854  0.00  0.00    +0.010 C 
ATOM     28  C   UNL     1      30.943 -22.847 -14.944  0.00  0.00    +0.068 C 
BRANCH  28  30
ATOM     29  N   UNL     1      28.528 -21.996 -14.557  0.00  0.00    -0.191 NA
ATOM     30  C   UNL     1      29.611 -22.378 -14.731  0.00  0.00    +0.100 C 
ENDBRANCH  28  30
ENDBRANCH  22  23
ENDBRANCH  17  22
ENDBRANCH  16  19
ENDBRANCH   2  16
TORSDOF 6
ENDMDL
MODEL 5
REMARK VINA RESULT:     -10.3      3.913      7.541
REMARK  Name = 216454
REMARK  6 active torsions:
REMARK  status: ('A' for Active; 'I' for Inactive)
REMARK    1  A    between atoms: N_2  and  C_16
REMARK    2  A    between atoms: N_3  and  C_10
REMARK    3  A    between atoms: C_16  and  C_19
REMARK    4  A    between atoms: N_17  and  C_22
REMARK    5  A    between atoms: C_22  and  C_23
REMARK    6  A    between atoms: C_28  and  C_30
REMARK                            x       y       z     vdW  Elec       q    Type
REMARK                         _______ _______ _______ _____ _____    ______ ____
ROOT
ATOM      1  O   UNL     1      37.386 -19.058 -19.987  0.00  0.00    -0.277 OA
ATOM      2  N   UNL     1      35.157 -21.464 -18.700  0.00  0.00    +0.398 N 
ATOM      3  N   UNL     1      35.155 -19.407 -20.623  0.00  0.00    -0.262 N 
ATOM      4  C   UNL     1      34.101 -21.485 -19.706  0.00  0.00    -0.054 C 
ATOM      5  C   UNL     1      33.907 -20.068 -20.220  0.00  0.00    +0.075 C 
ATOM      6  C   UNL     1      36.424 -21.119 -19.343  0.00  0.00    +0.011 C 
ATOM      7  C   UNL     1      36.363 -19.749 -19.995  0.00  0.00    +0.208 C 
ATOM      8  H   UNL     1      34.935 -20.765 -17.991  0.00  0.00    -0.078 HD
ENDROOT
BRANCH   3  10
ATOM      9 CL   UNL     1      34.821 -14.297 -21.208  0.00  0.00    -0.082 Cl
ATOM     10  C   UNL     1      35.061 -18.273 -21.514  0.00  0.00    +0.054 C 
ATOM     11  C   UNL     1      34.994 -16.986 -20.989  0.00  0.00    +0.026 C 
ATOM     12  C   UNL     1      35.042 -18.477 -22.890  0.00  0.00    +0.015 C 
ATOM     13  C   UNL     1      34.906 -15.892 -21.850  0.00  0.00    +0.059 C 
ATOM     14  C   UNL     1      34.953 -17.383 -23.751  0.00  0.00    +0.002 C 
ATOM     15  C   UNL     1      34.885 -16.091 -23.231  0.00  0.00    +0.011 C 
ENDBRANCH   3  10
BRANCH   2  16
ATOM     16  C   UNL     1      35.263 -22.766 -18.043  0.00  0.00    -0.032 C 
BRANCH  16  19
ATOM     17  N   UNL     1      34.365 -22.629 -15.710  0.00  0.00    -0.270 N 
ATOM     18  N   UNL     1      32.308 -23.444 -15.899  0.00  0.00    -0.225 NA
ATOM     19  C   UNL     1      34.188 -22.960 -17.006  0.00  0.00    +0.029 C 
ATOM     20  C   UNL     1      32.934 -23.457 -17.120  0.00  0.00    +0.109 C 
ATOM     21  C   UNL     1      33.197 -22.941 -15.072  0.00  0.00    +0.168 C 
BRANCH  17  22
ATOM     22  C   UNL     1      35.538 -22.061 -15.090  0.00  0.00    +0.123 C 
BRANCH  22  23
ATOM     23  C   UNL     1      36.596 -23.106 -14.855  0.00  0.00    -0.002 C 
ATOM     24  C   UNL     1      36.284 -24.244 -14.123  0.00  0.00    -0.002 C 
ATOM     25  C   UNL     1      37.870 -22.918 -15.375  0.00  0.00    -0.002 C 
ATOM     26  C   UNL     1      37.265 -25.212 -13.907  0.00  0.00    +0.010 C 
ATOM     27  C   UNL     1      38.850 -23.886 -15.158  0.00  0.00    +0.010 C 
ATOM     28  C   UNL     1      38.548 -25.033 -14.424  0.00  0.00    +0.068 C 
BRANCH  28  30
ATOM     29  N   UNL     1      40.367 -26.833 -14.023  0.00  0.00    -0.191 NA
ATOM     30  C   UNL     1      39.551 -26.026 -14.203  0.00  0.00    +0.100 C 
ENDBRANCH  28  30
ENDBRANCH  22  23
ENDBRANCH  17  22
ENDBRANCH  16  19
ENDBRANCH   2  16
TORSDOF 6
ENDMDL
MODEL 6
REMARK VINA RESULT:     -10.2      5.220     11.447
REMARK  Name = 216454
REMARK  6 active torsions:
REMARK  status: ('A' for Active; 'I' for Inactive)
REMARK    1  A    between atoms: N_2  and  C_16
REMARK    2  A    between atoms: N_3  and  C_10
REMARK    3  A    between atoms: C_16  and  C_19
REMARK    4  A    between atoms: N_17  and  C_22
REMARK    5  A    between atoms: C_22  and  C_23
REMARK    6  A    between atoms: C_28  and  C_30
REMARK                            x       y       z     vdW  Elec       q    Type
REMARK                         _______ _______ _______ _____ _____    ______ ____
ROOT
ATOM      1  O   UNL     1      31.945 -13.635 -21.047  0.00  0.00    -0.277 OA
ATOM      2  N   UNL     1      32.299 -10.359 -22.293  0.00  0.00    +0.398 N 
ATOM      3  N   UNL     1      33.144 -12.963 -22.948  0.00  0.00    -0.262 N 
ATOM      4  C   UNL     1      32.779 -10.589 -23.652  0.00  0.00    -0.054 C 
ATOM      5  C   UNL     1      33.708 -11.791 -23.630  0.00  0.00    +0.075 C 
ATOM      6  C   UNL     1      31.454 -11.481 -21.888  0.00  0.00    +0.011 C 
ATOM      7  C   UNL     1      32.222 -12.790 -21.904  0.00  0.00    +0.208 C 
ATOM      8  H   UNL     1      33.096 -10.288 -21.660  0.00  0.00    -0.078 HD
ENDROOT
BRANCH   3  10
ATOM      9 CL   UNL     1      35.802 -17.062 -21.306  0.00  0.00    -0.082 Cl
ATOM     10  C   UNL     1      33.720 -14.256 -23.241  0.00  0.00    +0.054 C 
ATOM     11  C   UNL     1      34.402 -14.950 -22.247  0.00  0.00    +0.026 C 
ATOM     12  C   UNL     1      33.585 -14.798 -24.516  0.00  0.00    +0.015 C 
ATOM     13  C   UNL     1      34.956 -16.198 -22.530  0.00  0.00    +0.059 C 
ATOM     14  C   UNL     1      34.139 -16.046 -24.799  0.00  0.00    +0.002 C 
ATOM     15  C   UNL     1      34.825 -16.746 -23.807  0.00  0.00    +0.011 C 
ENDBRANCH   3  10
BRANCH   2  16
ATOM     16  C   UNL     1      31.545  -9.108 -22.222  0.00  0.00    -0.032 C 
BRANCH  16  19
ATOM     17  N   UNL     1      32.207  -6.811 -21.480  0.00  0.00    -0.270 N 
ATOM     18  N   UNL     1      33.155  -7.159 -19.502  0.00  0.00    -0.225 NA
ATOM     19  C   UNL     1      32.157  -8.138 -21.246  0.00  0.00    +0.029 C 
ATOM     20  C   UNL     1      32.736  -8.350 -20.040  0.00  0.00    +0.109 C 
ATOM     21  C   UNL     1      32.822  -6.253 -20.394  0.00  0.00    +0.168 C 
BRANCH  17  22
ATOM     22  C   UNL     1      31.720  -6.092 -22.633  0.00  0.00    +0.123 C 
BRANCH  22  23
ATOM     23  C   UNL     1      32.828  -5.806 -23.610  0.00  0.00    -0.002 C 
ATOM     24  C   UNL     1      34.030  -6.494 -23.505  0.00  0.00    -0.002 C 
ATOM     25  C   UNL     1      32.635  -4.857 -24.605  0.00  0.00    -0.002 C 
ATOM     26  C   UNL     1      35.056  -6.229 -24.410  0.00  0.00    +0.010 C 
ATOM     27  C   UNL     1      33.662  -4.592 -25.511  0.00  0.00    +0.010 C 
ATOM     28  C   UNL     1      34.873  -5.278 -25.414  0.00  0.00    +0.068 C 
BRANCH  28  30
ATOM     29  N   UNL     1      36.779  -4.786 -27.097  0.00  0.00    -0.191 NA
ATOM     30  C   UNL     1      35.924  -5.007 -26.342  0.00  0.00    +0.100 C 
ENDBRANCH  28  30
ENDBRANCH  22  23
ENDBRANCH  17  22
ENDBRANCH  16  19
ENDBRANCH   2  16
TORSDOF 6
ENDMDL
MODEL 7
REMARK VINA RESULT:     -10.2      4.056     10.403
REMARK  Name = 216454
REMARK  6 active torsions:
REMARK  status: ('A' for Active; 'I' for Inactive)
REMARK    1  A    between atoms: N_2  and  C_16
REMARK    2  A    between atoms: N_3  and  C_10
REMARK    3  A    between atoms: C_16  and  C_19
REMARK    4  A    between atoms: N_17  and  C_22
REMARK    5  A    between atoms: C_22  and  C_23
REMARK    6  A    between atoms: C_28  and  C_30
REMARK                            x       y       z     vdW  Elec       q    Type
REMARK                         _______ _______ _______ _____ _____    ______ ____
ROOT
ATOM      1  O   UNL     1      34.895 -17.831 -23.765  0.00  0.00    -0.277 OA
ATOM      2  N   UNL     1      34.153 -14.615 -22.534  0.00  0.00    +0.398 N 
ATOM      3  N   UNL     1      35.074 -17.085 -21.548  0.00  0.00    -0.262 N 
ATOM      4  C   UNL     1      34.812 -14.616 -21.232  0.00  0.00    -0.054 C 
ATOM      5  C   UNL     1      34.678 -16.007 -20.634  0.00  0.00    +0.075 C 
ATOM      6  C   UNL     1      34.891 -15.489 -23.444  0.00  0.00    +0.011 C 
ATOM      7  C   UNL     1      34.929 -16.918 -22.935  0.00  0.00    +0.208 C 
ATOM      8  H   UNL     1      33.199 -14.959 -22.431  0.00  0.00    -0.078 HD
ENDROOT
BRANCH   3  10
ATOM      9 CL   UNL     1      33.469 -21.565 -19.567  0.00  0.00    -0.082 Cl
ATOM     10  C   UNL     1      35.409 -18.369 -20.973  0.00  0.00    +0.054 C 
ATOM     11  C   UNL     1      34.395 -19.241 -20.593  0.00  0.00    +0.026 C 
ATOM     12  C   UNL     1      36.745 -18.722 -20.806  0.00  0.00    +0.015 C 
ATOM     13  C   UNL     1      34.719 -20.480 -20.040  0.00  0.00    +0.059 C 
ATOM     14  C   UNL     1      37.069 -19.960 -20.253  0.00  0.00    +0.002 C 
ATOM     15  C   UNL     1      36.056 -20.839 -19.869  0.00  0.00    +0.011 C 
ENDBRANCH   3  10
BRANCH   2  16
ATOM     16  C   UNL     1      34.094 -13.257 -23.076  0.00  0.00    -0.032 C 
BRANCH  16  19
ATOM     17  N   UNL     1      32.733 -11.175 -22.804  0.00  0.00    -0.270 N 
ATOM     18  N   UNL     1      31.193 -11.754 -21.312  0.00  0.00    -0.225 NA
ATOM     19  C   UNL     1      32.966 -12.462 -22.475  0.00  0.00    +0.029 C 
ATOM     20  C   UNL     1      32.027 -12.814 -21.565  0.00  0.00    +0.109 C 
ATOM     21  C   UNL     1      31.646 -10.782 -22.073  0.00  0.00    +0.168 C 
BRANCH  17  22
ATOM     22  C   UNL     1      33.465 -10.349 -23.734  0.00  0.00    +0.123 C 
BRANCH  22  23
ATOM     23  C   UNL     1      33.117  -8.894 -23.567  0.00  0.00    -0.002 C 
ATOM     24  C   UNL     1      32.078  -8.348 -24.309  0.00  0.00    -0.002 C 
ATOM     25  C   UNL     1      33.840  -8.116 -22.673  0.00  0.00    -0.002 C 
ATOM     26  C   UNL     1      31.755  -7.001 -24.154  0.00  0.00    +0.010 C 
ATOM     27  C   UNL     1      33.517  -6.768 -22.517  0.00  0.00    +0.010 C 
ATOM     28  C   UNL     1      32.475  -6.210 -23.258  0.00  0.00    +0.068 C 
BRANCH  28  30
ATOM     29  N   UNL     1      31.873  -3.707 -22.969  0.00  0.00    -0.191 NA
ATOM     30  C   UNL     1      32.144  -4.829 -23.098  0.00  0.00    +0.100 C 
ENDBRANCH  28  30
ENDBRANCH  22  23
ENDBRANCH  17  22
ENDBRANCH  16  19
ENDBRANCH   2  16
TORSDOF 6
ENDMDL
MODEL 8
REMARK VINA RESULT:     -10.1      4.563     11.107
REMARK  Name = 216454
REMARK  6 active torsions:
REMARK  status: ('A' for Active; 'I' for Inactive)
REMARK    1  A    between atoms: N_2  and  C_16
REMARK    2  A    between atoms: N_3  and  C_10
REMARK    3  A    between atoms: C_16  and  C_19
REMARK    4  A    between atoms: N_17  and  C_22
REMARK    5  A    between atoms: C_22  and  C_23
REMARK    6  A    between atoms: C_28  and  C_30
REMARK                            x       y       z     vdW  Elec       q    Type
REMARK                         _______ _______ _______ _____ _____    ______ ____
ROOT
ATOM      1  O   UNL     1      33.361 -15.896 -25.528  0.00  0.00    -0.277 OA
ATOM      2  N   UNL     1      33.280 -12.995 -23.532  0.00  0.00    +0.398 N 
ATOM      3  N   UNL     1      34.298 -15.616 -23.396  0.00  0.00    -0.262 N 
ATOM      4  C   UNL     1      34.323 -13.262 -22.546  0.00  0.00    -0.054 C 
ATOM      5  C   UNL     1      34.294 -14.745 -22.214  0.00  0.00    +0.075 C 
ATOM      6  C   UNL     1      33.622 -13.668 -24.783  0.00  0.00    +0.011 C 
ATOM      7  C   UNL     1      33.724 -15.171 -24.598  0.00  0.00    +0.208 C 
ATOM      8  H   UNL     1      32.389 -13.352 -23.187  0.00  0.00    -0.078 HD
ENDROOT
BRANCH   3  10
ATOM      9 CL   UNL     1      36.942 -19.093 -20.657  0.00  0.00    -0.082 Cl
ATOM     10  C   UNL     1      34.712 -16.991 -23.219  0.00  0.00    +0.054 C 
ATOM     11  C   UNL     1      35.531 -17.334 -22.149  0.00  0.00    +0.026 C 
ATOM     12  C   UNL     1      34.284 -17.960 -24.122  0.00  0.00    +0.015 C 
ATOM     13  C   UNL     1      35.927 -18.660 -21.979  0.00  0.00    +0.059 C 
ATOM     14  C   UNL     1      34.681 -19.286 -23.952  0.00  0.00    +0.002 C 
ATOM     15  C   UNL     1      35.503 -19.636 -22.881  0.00  0.00    +0.011 C 
ENDBRANCH   3  10
BRANCH   2  16
ATOM     16  C   UNL     1      33.143 -11.556 -23.753  0.00  0.00    -0.032 C 
BRANCH  16  19
ATOM     17  N   UNL     1      32.596  -9.571 -22.331  0.00  0.00    -0.270 N 
ATOM     18  N   UNL     1      31.148 -10.377 -20.852  0.00  0.00    -0.225 NA
ATOM     19  C   UNL     1      32.427 -10.879 -22.616  0.00  0.00    +0.029 C 
ATOM     20  C   UNL     1      31.545 -11.370 -21.713  0.00  0.00    +0.109 C 
ATOM     21  C   UNL     1      31.800  -9.307 -21.251  0.00  0.00    +0.168 C 
BRANCH  17  22
ATOM     22  C   UNL     1      33.439  -8.615 -23.009  0.00  0.00    +0.123 C 
BRANCH  22  23
ATOM     23  C   UNL     1      32.680  -7.363 -23.356  0.00  0.00    -0.002 C 
ATOM     24  C   UNL     1      33.048  -6.156 -22.776  0.00  0.00    -0.002 C 
ATOM     25  C   UNL     1      31.621  -7.431 -24.252  0.00  0.00    -0.002 C 
ATOM     26  C   UNL     1      32.345  -4.995 -23.099  0.00  0.00    +0.010 C 
ATOM     27  C   UNL     1      30.918  -6.270 -24.574  0.00  0.00    +0.010 C 
ATOM     28  C   UNL     1      31.280  -5.052 -23.998  0.00  0.00    +0.068 C 
BRANCH  28  30
ATOM     29  N   UNL     1      29.974  -2.896 -24.598  0.00  0.00    -0.191 NA
ATOM     30  C   UNL     1      30.560  -3.863 -24.329  0.00  0.00    +0.100 C 
ENDBRANCH  28  30
ENDBRANCH  22  23
ENDBRANCH  17  22
ENDBRANCH  16  19
ENDBRANCH   2  16
TORSDOF 6
ENDMDL
MODEL 9
REMARK VINA RESULT:     -10.0      2.382      2.768
REMARK  Name = 216454
REMARK  6 active torsions:
REMARK  status: ('A' for Active; 'I' for Inactive)
REMARK    1  A    between atoms: N_2  and  C_16
REMARK    2  A    between atoms: N_3  and  C_10
REMARK    3  A    between atoms: C_16  and  C_19
REMARK    4  A    between atoms: N_17  and  C_22
REMARK    5  A    between atoms: C_22  and  C_23
REMARK    6  A    between atoms: C_28  and  C_30
REMARK                            x       y       z     vdW  Elec       q    Type
REMARK                         _______ _______ _______ _____ _____    ______ ____
ROOT
ATOM      1  O   UNL     1      31.064 -11.604 -21.124  0.00  0.00    -0.277 OA
ATOM      2  N   UNL     1      33.658 -13.689 -22.277  0.00  0.00    +0.398 N 
ATOM      3  N   UNL     1      32.771 -11.041 -22.632  0.00  0.00    -0.262 N 
ATOM      4  C   UNL     1      34.604 -12.733 -22.842  0.00  0.00    -0.054 C 
ATOM      5  C   UNL     1      33.813 -11.611 -23.495  0.00  0.00    +0.075 C 
ATOM      6  C   UNL     1      32.931 -13.053 -21.181  0.00  0.00    +0.011 C 
ATOM      7  C   UNL     1      32.151 -11.841 -21.659  0.00  0.00    +0.208 C 
ATOM      8  H   UNL     1      32.998 -13.979 -23.000  0.00  0.00    -0.078 HD
ENDROOT
BRANCH   3  10
ATOM      9 CL   UNL     1      31.228  -6.402 -20.999  0.00  0.00    -0.082 Cl
ATOM     10  C   UNL     1      32.272  -9.724 -22.956  0.00  0.00    +0.054 C 
ATOM     11  C   UNL     1      32.022  -8.810 -21.938  0.00  0.00    +0.026 C 
ATOM     12  C   UNL     1      32.049  -9.380 -24.286  0.00  0.00    +0.015 C 
ATOM     13  C   UNL     1      31.542  -7.539 -22.253  0.00  0.00    +0.059 C 
ATOM     14  C   UNL     1      31.570  -8.109 -24.601  0.00  0.00    +0.002 C 
ATOM     15  C   UNL     1      31.315  -7.188 -23.584  0.00  0.00    +0.011 C 
ENDBRANCH   3  10
BRANCH   2  16
ATOM     16  C   UNL     1      34.360 -14.878 -21.795  0.00  0.00    -0.032 C 
BRANCH  16  19
ATOM     17  N   UNL     1      35.210 -17.050 -22.702  0.00  0.00    -0.270 N 
ATOM     18  N   UNL     1      34.252 -17.187 -24.701  0.00  0.00    -0.225 NA
ATOM     19  C   UNL     1      34.456 -15.943 -22.855  0.00  0.00    +0.029 C 
ATOM     20  C   UNL     1      33.873 -16.027 -24.074  0.00  0.00    +0.109 C 
ATOM     21  C   UNL     1      35.058 -17.780 -23.848  0.00  0.00    +0.168 C 
BRANCH  17  22
ATOM     22  C   UNL     1      36.026 -17.421 -21.570  0.00  0.00    +0.123 C 
BRANCH  22  23
ATOM     23  C   UNL     1      35.544 -18.700 -20.941  0.00  0.00    -0.002 C 
ATOM     24  C   UNL     1      34.187 -18.998 -20.947  0.00  0.00    -0.002 C 
ATOM     25  C   UNL     1      36.462 -19.567 -20.364  0.00  0.00    -0.002 C 
ATOM     26  C   UNL     1      33.741 -20.184 -20.365  0.00  0.00    +0.010 C 
ATOM     27  C   UNL     1      36.016 -20.753 -19.782  0.00  0.00    +0.010 C 
ATOM     28  C   UNL     1      34.655 -21.062 -19.783  0.00  0.00    +0.068 C 
BRANCH  28  30
ATOM     29  N   UNL     1      33.826 -23.265 -18.702  0.00  0.00    -0.191 NA
ATOM     30  C   UNL     1      34.197 -22.277 -19.187  0.00  0.00    +0.100 C 
ENDBRANCH  28  30
ENDBRANCH  22  23
ENDBRANCH  17  22
ENDBRANCH  16  19
ENDBRANCH   2  16
TORSDOF 6
ENDMDL
