MODEL 1
REMARK VINA RESULT:      -9.9      0.000      0.000
REMARK  Name = 24905152
REMARK  2 active torsions:
REMARK  status: ('A' for Active; 'I' for Inactive)
REMARK    1  A    between atoms: N_1  and  C_23
REMARK    2  A    between atoms: C_7  and  C_11
REMARK                            x       y       z     vdW  Elec       q    Type
REMARK                         _______ _______ _______ _____ _____    ______ ____
ROOT
ATOM      1  N   UNL     1      33.285  -9.540 -22.891  0.00  0.00    -0.200 N 
ATOM      2  N   UNL     1      33.712 -10.588 -23.619  0.00  0.00    -0.181 NA
ATOM      3  N   UNL     1      31.976  -9.075 -20.907  0.00  0.00    -0.232 NA
ATOM      4  N   UNL     1      31.154 -11.124 -19.868  0.00  0.00    -0.234 NA
ATOM      5  C   UNL     1      32.466 -11.280 -21.832  0.00  0.00    +0.150 C 
ATOM      6  C   UNL     1      32.534  -9.897 -21.809  0.00  0.00    +0.137 C 
ATOM      7  C   UNL     1      33.211 -11.644 -22.969  0.00  0.00    +0.086 C 
ATOM      8  C   UNL     1      31.744 -11.894 -20.814  0.00  0.00    +0.112 C 
ATOM      9  C   UNL     1      31.304  -9.782 -19.972  0.00  0.00    +0.252 C 
ATOM     10  N   UNL     1      31.619 -13.293 -20.750  0.00  0.00    -0.346 N 
ATOM     11  H   UNL     1      31.102 -13.708 -20.021  0.00  0.00    +0.143 HD
ATOM     12  H   UNL     1      32.046 -13.858 -21.433  0.00  0.00    +0.143 HD
ENDROOT
BRANCH   7  14
ATOM     13  N   UNL     1      34.177 -16.807 -24.923  0.00  0.00    -0.248 NA
ATOM     14  C   UNL     1      33.462 -12.969 -23.461  0.00  0.00    -0.006 C 
ATOM     15  C   UNL     1      34.163 -13.885 -22.681  0.00  0.00    +0.055 C 
ATOM     16  C   UNL     1      33.009 -13.346 -24.719  0.00  0.00    -0.022 C 
ATOM     17  C   UNL     1      34.413 -15.182 -23.159  0.00  0.00    -0.004 C 
ATOM     18  C   UNL     1      33.955 -15.572 -24.434  0.00  0.00    +0.060 C 
ATOM     19  C   UNL     1      33.257 -14.636 -25.193  0.00  0.00    +0.071 C 
ATOM     20  C   UNL     1      35.116 -16.123 -22.394  0.00  0.00    -0.001 C 
ATOM     21  C   UNL     1      35.346 -17.396 -22.894  0.00  0.00    +0.020 C 
ATOM     22  C   UNL     1      34.860 -17.685 -24.153  0.00  0.00    +0.098 C 
ENDBRANCH   7  14
BRANCH   1  23
ATOM     23  C   UNL     1      33.638  -8.200 -23.295  0.00  0.00    +0.098 C 
ATOM     24  C   UNL     1      32.752  -7.706 -24.441  0.00  0.00    +0.024 C 
ATOM     25  C   UNL     1      35.118  -8.096 -23.667  0.00  0.00    +0.024 C 
ENDBRANCH   1  23
TORSDOF 2
ENDMDL
MODEL 2
REMARK VINA RESULT:      -9.9      8.892     12.758
REMARK  Name = 24905152
REMARK  2 active torsions:
REMARK  status: ('A' for Active; 'I' for Inactive)
REMARK    1  A    between atoms: N_1  and  C_23
REMARK    2  A    between atoms: C_7  and  C_11
REMARK                            x       y       z     vdW  Elec       q    Type
REMARK                         _______ _______ _______ _____ _____    ______ ____
ROOT
ATOM      1  N   UNL     1      35.550 -23.968 -15.164  0.00  0.00    -0.200 N 
ATOM      2  N   UNL     1      35.862 -23.266 -16.269  0.00  0.00    -0.181 NA
ATOM      3  N   UNL     1      33.605 -24.635 -13.883  0.00  0.00    -0.232 NA
ATOM      4  N   UNL     1      31.541 -23.793 -14.874  0.00  0.00    -0.234 NA
ATOM      5  C   UNL     1      33.604 -23.290 -15.920  0.00  0.00    +0.150 C 
ATOM      6  C   UNL     1      34.211 -24.014 -14.908  0.00  0.00    +0.137 C 
ATOM      7  C   UNL     1      34.674 -22.857 -16.726  0.00  0.00    +0.086 C 
ATOM      8  C   UNL     1      32.217 -23.189 -15.881  0.00  0.00    +0.112 C 
ATOM      9  C   UNL     1      32.266 -24.468 -13.951  0.00  0.00    +0.252 C 
ATOM     10  N   UNL     1      31.509 -22.477 -16.865  0.00  0.00    -0.346 N 
ATOM     11  H   UNL     1      30.527 -22.417 -16.819  0.00  0.00    +0.143 HD
ATOM     12  H   UNL     1      31.994 -22.037 -17.600  0.00  0.00    +0.143 HD
ENDROOT
BRANCH   7  14
ATOM     13  N   UNL     1      34.359 -19.758 -21.384  0.00  0.00    -0.248 NA
ATOM     14  C   UNL     1      34.603 -22.062 -17.918  0.00  0.00    -0.006 C 
ATOM     15  C   UNL     1      35.727 -21.377 -18.372  0.00  0.00    +0.055 C 
ATOM     16  C   UNL     1      33.411 -21.969 -18.627  0.00  0.00    -0.022 C 
ATOM     17  C   UNL     1      35.662 -20.596 -19.537  0.00  0.00    -0.004 C 
ATOM     18  C   UNL     1      34.456 -20.497 -20.263  0.00  0.00    +0.060 C 
ATOM     19  C   UNL     1      33.348 -21.193 -19.787  0.00  0.00    +0.071 C 
ATOM     20  C   UNL     1      36.778 -19.896 -20.016  0.00  0.00    -0.001 C 
ATOM     21  C   UNL     1      36.681 -19.134 -21.171  0.00  0.00    +0.020 C 
ATOM     22  C   UNL     1      35.460 -19.098 -21.812  0.00  0.00    +0.098 C 
ENDBRANCH   7  14
BRANCH   1  23
ATOM     23  C   UNL     1      36.601 -24.578 -14.386  0.00  0.00    +0.098 C 
ATOM     24  C   UNL     1      37.949 -23.894 -14.628  0.00  0.00    +0.024 C 
ATOM     25  C   UNL     1      36.697 -26.082 -14.651  0.00  0.00    +0.024 C 
ENDBRANCH   1  23
TORSDOF 2
ENDMDL
MODEL 3
REMARK VINA RESULT:      -9.8     12.910     15.279
REMARK  Name = 24905152
REMARK  2 active torsions:
REMARK  status: ('A' for Active; 'I' for Inactive)
REMARK    1  A    between atoms: N_1  and  C_23
REMARK    2  A    between atoms: C_7  and  C_11
REMARK                            x       y       z     vdW  Elec       q    Type
REMARK                         _______ _______ _______ _____ _____    ______ ____
ROOT
ATOM      1  N   UNL     1      36.007 -23.751 -12.623  0.00  0.00    -0.200 N 
ATOM      2  N   UNL     1      34.702 -24.059 -12.513  0.00  0.00    -0.181 NA
ATOM      3  N   UNL     1      37.587 -22.942 -14.271  0.00  0.00    -0.232 NA
ATOM      4  N   UNL     1      36.516 -22.548 -16.427  0.00  0.00    -0.234 NA
ATOM      5  C   UNL     1      35.206 -23.344 -14.625  0.00  0.00    +0.150 C 
ATOM      6  C   UNL     1      36.363 -23.318 -13.866  0.00  0.00    +0.137 C 
ATOM      7  C   UNL     1      34.219 -23.809 -13.735  0.00  0.00    +0.086 C 
ATOM      8  C   UNL     1      35.310 -22.940 -15.952  0.00  0.00    +0.112 C 
ATOM      9  C   UNL     1      37.565 -22.573 -15.570  0.00  0.00    +0.252 C 
ATOM     10  N   UNL     1      34.190 -22.931 -16.802  0.00  0.00    -0.346 N 
ATOM     11  H   UNL     1      34.287 -22.641 -17.739  0.00  0.00    +0.143 HD
ATOM     12  H   UNL     1      33.311 -23.213 -16.463  0.00  0.00    +0.143 HD
ENDROOT
BRANCH   7  14
ATOM     13  N   UNL     1      28.783 -24.679 -14.784  0.00  0.00    -0.248 NA
ATOM     14  C   UNL     1      32.827 -24.025 -14.010  0.00  0.00    -0.006 C 
ATOM     15  C   UNL     1      32.136 -23.155 -14.850  0.00  0.00    +0.055 C 
ATOM     16  C   UNL     1      32.159 -25.101 -13.439  0.00  0.00    -0.022 C 
ATOM     17  C   UNL     1      30.773 -23.361 -15.121  0.00  0.00    -0.004 C 
ATOM     18  C   UNL     1      30.089 -24.452 -14.545  0.00  0.00    +0.060 C 
ATOM     19  C   UNL     1      30.804 -25.305 -13.709  0.00  0.00    +0.071 C 
ATOM     20  C   UNL     1      30.054 -22.502 -15.963  0.00  0.00    -0.001 C 
ATOM     21  C   UNL     1      28.708 -22.733 -16.211  0.00  0.00    +0.020 C 
ATOM     22  C   UNL     1      28.125 -23.825 -15.602  0.00  0.00    +0.098 C 
ENDBRANCH   7  14
BRANCH   1  23
ATOM     23  C   UNL     1      36.872 -23.897 -11.476  0.00  0.00    +0.098 C 
ATOM     24  C   UNL     1      37.852 -25.060 -11.656  0.00  0.00    +0.024 C 
ATOM     25  C   UNL     1      36.070 -24.054 -10.183  0.00  0.00    +0.024 C 
ENDBRANCH   1  23
TORSDOF 2
ENDMDL
MODEL 4
REMARK VINA RESULT:      -9.3      9.830     13.142
REMARK  Name = 24905152
REMARK  2 active torsions:
REMARK  status: ('A' for Active; 'I' for Inactive)
REMARK    1  A    between atoms: N_1  and  C_23
REMARK    2  A    between atoms: C_7  and  C_11
REMARK                            x       y       z     vdW  Elec       q    Type
REMARK                         _______ _______ _______ _____ _____    ______ ____
ROOT
ATOM      1  N   UNL     1      29.786 -23.495 -15.672  0.00  0.00    -0.200 N 
ATOM      2  N   UNL     1      30.467 -22.925 -16.682  0.00  0.00    -0.181 NA
ATOM      3  N   UNL     1      30.195 -24.612 -13.562  0.00  0.00    -0.232 NA
ATOM      4  N   UNL     1      32.580 -24.775 -13.075  0.00  0.00    -0.234 NA
ATOM      5  C   UNL     1      31.887 -23.726 -15.081  0.00  0.00    +0.150 C 
ATOM      6  C   UNL     1      30.587 -23.992 -14.686  0.00  0.00    +0.137 C 
ATOM      7  C   UNL     1      31.746 -23.068 -16.317  0.00  0.00    +0.086 C 
ATOM      8  C   UNL     1      32.905 -24.142 -14.229  0.00  0.00    +0.112 C 
ATOM      9  C   UNL     1      31.265 -24.968 -12.817  0.00  0.00    +0.252 C 
ATOM     10  N   UNL     1      34.257 -23.917 -14.541  0.00  0.00    -0.346 N 
ATOM     11  H   UNL     1      34.962 -24.220 -13.924  0.00  0.00    +0.143 HD
ATOM     12  H   UNL     1      34.499 -23.457 -15.377  0.00  0.00    +0.143 HD
ENDROOT
BRANCH   7  14
ATOM     13  N   UNL     1      35.849 -21.145 -19.613  0.00  0.00    -0.248 NA
ATOM     14  C   UNL     1      32.790 -22.570 -17.165  0.00  0.00    -0.006 C 
ATOM     15  C   UNL     1      32.485 -21.731 -18.234  0.00  0.00    +0.055 C 
ATOM     16  C   UNL     1      34.113 -22.923 -16.928  0.00  0.00    -0.022 C 
ATOM     17  C   UNL     1      33.503 -21.242 -19.069  0.00  0.00    -0.004 C 
ATOM     18  C   UNL     1      34.848 -21.595 -18.833  0.00  0.00    +0.060 C 
ATOM     19  C   UNL     1      35.126 -22.436 -17.758  0.00  0.00    +0.071 C 
ATOM     20  C   UNL     1      33.223 -20.396 -20.151  0.00  0.00    -0.001 C 
ATOM     21  C   UNL     1      34.253 -19.930 -20.956  0.00  0.00    +0.020 C 
ATOM     22  C   UNL     1      35.536 -20.331 -20.648  0.00  0.00    +0.098 C 
ENDBRANCH   7  14
BRANCH   1  23
ATOM     23  C   UNL     1      28.343 -23.531 -15.715  0.00  0.00    +0.098 C 
ATOM     24  C   UNL     1      27.824 -23.513 -17.154  0.00  0.00    +0.024 C 
ATOM     25  C   UNL     1      27.728 -22.393 -14.898  0.00  0.00    +0.024 C 
ENDBRANCH   1  23
TORSDOF 2
ENDMDL
MODEL 5
REMARK VINA RESULT:      -9.3     10.975     14.682
REMARK  Name = 24905152
REMARK  2 active torsions:
REMARK  status: ('A' for Active; 'I' for Inactive)
REMARK    1  A    between atoms: N_1  and  C_23
REMARK    2  A    between atoms: C_7  and  C_11
REMARK                            x       y       z     vdW  Elec       q    Type
REMARK                         _______ _______ _______ _____ _____    ______ ____
ROOT
ATOM      1  N   UNL     1      37.640 -24.838 -13.912  0.00  0.00    -0.200 N 
ATOM      2  N   UNL     1      37.180 -24.416 -15.104  0.00  0.00    -0.181 NA
ATOM      3  N   UNL     1      36.928 -24.993 -11.602  0.00  0.00    -0.232 NA
ATOM      4  N   UNL     1      34.669 -24.122 -11.295  0.00  0.00    -0.234 NA
ATOM      5  C   UNL     1      35.624 -24.095 -13.460  0.00  0.00    +0.150 C 
ATOM      6  C   UNL     1      36.749 -24.669 -12.893  0.00  0.00    +0.137 C 
ATOM      7  C   UNL     1      35.952 -23.966 -14.823  0.00  0.00    +0.086 C 
ATOM      8  C   UNL     1      34.558 -23.820 -12.611  0.00  0.00    +0.112 C 
ATOM      9  C   UNL     1      35.830 -24.682 -10.878  0.00  0.00    +0.252 C 
ATOM     10  N   UNL     1      33.371 -23.240 -13.093  0.00  0.00    -0.346 N 
ATOM     11  H   UNL     1      32.628 -23.053 -12.475  0.00  0.00    +0.143 HD
ATOM     12  H   UNL     1      33.284 -23.019 -14.048  0.00  0.00    +0.143 HD
ENDROOT
BRANCH   7  14
ATOM     13  N   UNL     1      32.726 -21.864 -18.894  0.00  0.00    -0.248 NA
ATOM     14  C   UNL     1      35.134 -23.424 -15.870  0.00  0.00    -0.006 C 
ATOM     15  C   UNL     1      35.698 -22.614 -16.852  0.00  0.00    +0.055 C 
ATOM     16  C   UNL     1      33.773 -23.703 -15.910  0.00  0.00    -0.022 C 
ATOM     17  C   UNL     1      34.901 -22.079 -17.877  0.00  0.00    -0.004 C 
ATOM     18  C   UNL     1      33.519 -22.359 -17.925  0.00  0.00    +0.060 C 
ATOM     19  C   UNL     1      32.981 -23.172 -16.931  0.00  0.00    +0.071 C 
ATOM     20  C   UNL     1      35.443 -21.261 -18.878  0.00  0.00    -0.001 C 
ATOM     21  C   UNL     1      34.628 -20.750 -19.878  0.00  0.00    +0.020 C 
ATOM     22  C   UNL     1      33.289 -21.077 -19.841  0.00  0.00    +0.098 C 
ENDBRANCH   7  14
BRANCH   1  23
ATOM     23  C   UNL     1      38.965 -25.403 -13.819  0.00  0.00    +0.098 C 
ATOM     24  C   UNL     1      39.926 -24.751 -14.816  0.00  0.00    +0.024 C 
ATOM     25  C   UNL     1      38.943 -26.922 -13.997  0.00  0.00    +0.024 C 
ENDBRANCH   1  23
TORSDOF 2
ENDMDL
MODEL 6
REMARK VINA RESULT:      -9.1      9.518     13.322
REMARK  Name = 24905152
REMARK  2 active torsions:
REMARK  status: ('A' for Active; 'I' for Inactive)
REMARK    1  A    between atoms: N_1  and  C_23
REMARK    2  A    between atoms: C_7  and  C_11
REMARK                            x       y       z     vdW  Elec       q    Type
REMARK                         _______ _______ _______ _____ _____    ______ ____
ROOT
ATOM      1  N   UNL     1      35.189 -24.365 -14.310  0.00  0.00    -0.200 N 
ATOM      2  N   UNL     1      35.781 -23.694 -15.315  0.00  0.00    -0.181 NA
ATOM      3  N   UNL     1      32.973 -24.878 -13.479  0.00  0.00    -0.232 NA
ATOM      4  N   UNL     1      31.235 -23.885 -14.875  0.00  0.00    -0.234 NA
ATOM      5  C   UNL     1      33.504 -23.545 -15.454  0.00  0.00    +0.150 C 
ATOM      6  C   UNL     1      33.827 -24.308 -14.345  0.00  0.00    +0.137 C 
ATOM      7  C   UNL     1      34.751 -23.197 -16.008  0.00  0.00    +0.086 C 
ATOM      8  C   UNL     1      32.153 -23.339 -15.708  0.00  0.00    +0.112 C 
ATOM      9  C   UNL     1      31.695 -24.610 -13.827  0.00  0.00    +0.252 C 
ATOM     10  N   UNL     1      31.725 -22.579 -16.811  0.00  0.00    -0.346 N 
ATOM     11  H   UNL     1      30.763 -22.445 -16.973  0.00  0.00    +0.143 HD
ATOM     12  H   UNL     1      32.387 -22.180 -17.421  0.00  0.00    +0.143 HD
ENDROOT
BRANCH   7  14
ATOM     13  N   UNL     1      35.739 -20.105 -20.576  0.00  0.00    -0.248 NA
ATOM     14  C   UNL     1      34.994 -22.404 -17.179  0.00  0.00    -0.006 C 
ATOM     15  C   UNL     1      33.934 -22.008 -17.990  0.00  0.00    +0.055 C 
ATOM     16  C   UNL     1      36.290 -22.028 -17.513  0.00  0.00    -0.022 C 
ATOM     17  C   UNL     1      34.167 -21.234 -19.139  0.00  0.00    -0.004 C 
ATOM     18  C   UNL     1      35.479 -20.847 -19.483  0.00  0.00    +0.060 C 
ATOM     19  C   UNL     1      36.521 -21.257 -18.654  0.00  0.00    +0.071 C 
ATOM     20  C   UNL     1      33.118 -20.822 -19.972  0.00  0.00    -0.001 C 
ATOM     21  C   UNL     1      33.382 -20.057 -21.099  0.00  0.00    +0.020 C 
ATOM     22  C   UNL     1      34.698 -19.729 -21.354  0.00  0.00    +0.098 C 
ENDBRANCH   7  14
BRANCH   1  23
ATOM     23  C   UNL     1      36.003 -25.050 -13.334  0.00  0.00    +0.098 C 
ATOM     24  C   UNL     1      36.810 -24.066 -12.485  0.00  0.00    +0.024 C 
ATOM     25  C   UNL     1      36.920 -26.083 -13.992  0.00  0.00    +0.024 C 
ENDBRANCH   1  23
TORSDOF 2
ENDMDL
MODEL 7
REMARK VINA RESULT:      -9.0     10.896     14.098
REMARK  Name = 24905152
REMARK  2 active torsions:
REMARK  status: ('A' for Active; 'I' for Inactive)
REMARK    1  A    between atoms: N_1  and  C_23
REMARK    2  A    between atoms: C_7  and  C_11
REMARK                            x       y       z     vdW  Elec       q    Type
REMARK                         _______ _______ _______ _____ _____    ______ ____
ROOT
ATOM      1  N   UNL     1      33.511 -22.655 -17.717  0.00  0.00    -0.200 N 
ATOM      2  N   UNL     1      34.639 -23.095 -17.129  0.00  0.00    -0.181 NA
ATOM      3  N   UNL     1      31.150 -22.409 -17.240  0.00  0.00    -0.232 NA
ATOM      4  N   UNL     1      30.597 -23.191 -14.996  0.00  0.00    -0.234 NA
ATOM      5  C   UNL     1      32.843 -23.314 -15.733  0.00  0.00    +0.150 C 
ATOM      6  C   UNL     1      32.406 -22.764 -16.926  0.00  0.00    +0.137 C 
ATOM      7  C   UNL     1      34.226 -23.494 -15.922  0.00  0.00    +0.086 C 
ATOM      8  C   UNL     1      31.886 -23.527 -14.747  0.00  0.00    +0.112 C 
ATOM      9  C   UNL     1      30.313 -22.661 -16.210  0.00  0.00    +0.252 C 
ATOM     10  N   UNL     1      32.232 -24.079 -13.501  0.00  0.00    -0.346 N 
ATOM     11  H   UNL     1      31.538 -24.221 -12.816  0.00  0.00    +0.143 HD
ATOM     12  H   UNL     1      33.166 -24.324 -13.313  0.00  0.00    +0.143 HD
ENDROOT
BRANCH   7  14
ATOM     13  N   UNL     1      37.918 -25.644 -12.295  0.00  0.00    -0.248 NA
ATOM     14  C   UNL     1      35.171 -24.036 -14.988  0.00  0.00    -0.006 C 
ATOM     15  C   UNL     1      35.700 -23.234 -13.980  0.00  0.00    +0.055 C 
ATOM     16  C   UNL     1      35.567 -25.365 -15.084  0.00  0.00    -0.022 C 
ATOM     17  C   UNL     1      36.627 -23.760 -13.065  0.00  0.00    -0.004 C 
ATOM     18  C   UNL     1      37.032 -25.108 -13.155  0.00  0.00    +0.060 C 
ATOM     19  C   UNL     1      36.487 -25.887 -14.173  0.00  0.00    +0.071 C 
ATOM     20  C   UNL     1      37.174 -22.974 -12.041  0.00  0.00    -0.001 C 
ATOM     21  C   UNL     1      38.087 -23.524 -11.153  0.00  0.00    +0.020 C 
ATOM     22  C   UNL     1      38.423 -24.851 -11.322  0.00  0.00    +0.098 C 
ENDBRANCH   7  14
BRANCH   1  23
ATOM     23  C   UNL     1      33.565 -22.135 -19.063  0.00  0.00    +0.098 C 
ATOM     24  C   UNL     1      35.009 -21.965 -19.542  0.00  0.00    +0.024 C 
ATOM     25  C   UNL     1      32.790 -20.822 -19.190  0.00  0.00    +0.024 C 
ENDBRANCH   1  23
TORSDOF 2
ENDMDL
MODEL 8
REMARK VINA RESULT:      -8.8      1.707      6.410
REMARK  Name = 24905152
REMARK  2 active torsions:
REMARK  status: ('A' for Active; 'I' for Inactive)
REMARK    1  A    between atoms: N_1  and  C_23
REMARK    2  A    between atoms: C_7  and  C_11
REMARK                            x       y       z     vdW  Elec       q    Type
REMARK                         _______ _______ _______ _____ _____    ______ ____
ROOT
ATOM      1  N   UNL     1      33.214 -13.522 -23.151  0.00  0.00    -0.200 N 
ATOM      2  N   UNL     1      33.309 -12.391 -23.874  0.00  0.00    -0.181 NA
ATOM      3  N   UNL     1      32.620 -14.248 -20.918  0.00  0.00    -0.232 NA
ATOM      4  N   UNL     1      31.984 -12.368 -19.499  0.00  0.00    -0.234 NA
ATOM      5  C   UNL     1      32.616 -11.950 -21.741  0.00  0.00    +0.150 C 
ATOM      6  C   UNL     1      32.804 -13.316 -21.867  0.00  0.00    +0.137 C 
ATOM      7  C   UNL     1      32.942 -11.438 -23.011  0.00  0.00    +0.086 C 
ATOM      8  C   UNL     1      32.190 -11.482 -20.503  0.00  0.00    +0.112 C 
ATOM      9  C   UNL     1      32.208 -13.677 -19.765  0.00  0.00    +0.252 C 
ATOM     10  N   UNL     1      31.969 -10.112 -20.277  0.00  0.00    -0.346 N 
ATOM     11  H   UNL     1      31.668  -9.801 -19.392  0.00  0.00    +0.143 HD
ATOM     12  H   UNL     1      32.116  -9.463 -21.002  0.00  0.00    +0.143 HD
ENDROOT
BRANCH   7  14
ATOM     13  N   UNL     1      32.813  -6.081 -24.650  0.00  0.00    -0.248 NA
ATOM     14  C   UNL     1      32.919 -10.066 -23.431  0.00  0.00    -0.006 C 
ATOM     15  C   UNL     1      34.098  -9.327 -23.475  0.00  0.00    +0.055 C 
ATOM     16  C   UNL     1      31.720  -9.465 -23.793  0.00  0.00    -0.022 C 
ATOM     17  C   UNL     1      34.080  -7.983 -23.883  0.00  0.00    -0.004 C 
ATOM     18  C   UNL     1      32.867  -7.366 -24.254  0.00  0.00    +0.060 C 
ATOM     19  C   UNL     1      31.703  -8.129 -24.200  0.00  0.00    +0.071 C 
ATOM     20  C   UNL     1      35.253  -7.216 -23.938  0.00  0.00    -0.001 C 
ATOM     21  C   UNL     1      35.201  -5.891 -24.346  0.00  0.00    +0.020 C 
ATOM     22  C   UNL     1      33.968  -5.375 -24.688  0.00  0.00    +0.098 C 
ENDBRANCH   7  14
BRANCH   1  23
ATOM     23  C   UNL     1      33.538 -14.789 -23.764  0.00  0.00    +0.098 C 
ATOM     24  C   UNL     1      34.932 -15.271 -23.355  0.00  0.00    +0.024 C 
ATOM     25  C   UNL     1      33.407 -14.727 -25.287  0.00  0.00    +0.024 C 
ENDBRANCH   1  23
TORSDOF 2
ENDMDL
MODEL 9
REMARK VINA RESULT:      -8.7      2.619      6.846
REMARK  Name = 24905152
REMARK  2 active torsions:
REMARK  status: ('A' for Active; 'I' for Inactive)
REMARK    1  A    between atoms: N_1  and  C_23
REMARK    2  A    between atoms: C_7  and  C_11
REMARK                            x       y       z     vdW  Elec       q    Type
REMARK                         _______ _______ _______ _____ _____    ______ ____
ROOT
ATOM      1  N   UNL     1      32.201 -11.573 -21.558  0.00  0.00    -0.200 N 
ATOM      2  N   UNL     1      32.364 -10.828 -22.666  0.00  0.00    -0.181 NA
ATOM      3  N   UNL     1      31.851 -11.298 -19.177  0.00  0.00    -0.232 NA
ATOM      4  N   UNL     1      31.755  -8.943 -18.546  0.00  0.00    -0.234 NA
ATOM      5  C   UNL     1      32.091  -9.509 -20.819  0.00  0.00    +0.150 C 
ATOM      6  C   UNL     1      32.034 -10.834 -20.424  0.00  0.00    +0.137 C 
ATOM      7  C   UNL     1      32.296  -9.572 -22.211  0.00  0.00    +0.086 C 
ATOM      8  C   UNL     1      31.944  -8.545 -19.827  0.00  0.00    +0.112 C 
ATOM      9  C   UNL     1      31.721 -10.275 -18.304  0.00  0.00    +0.252 C 
ATOM     10  N   UNL     1      31.986  -7.173 -20.130  0.00  0.00    -0.346 N 
ATOM     11  H   UNL     1      31.880  -6.507 -19.412  0.00  0.00    +0.143 HD
ATOM     12  H   UNL     1      32.122  -6.877 -21.059  0.00  0.00    +0.143 HD
ENDROOT
BRANCH   7  14
ATOM     13  N   UNL     1      32.783  -5.278 -25.777  0.00  0.00    -0.248 NA
ATOM     14  C   UNL     1      32.430  -8.474 -23.124  0.00  0.00    -0.006 C 
ATOM     15  C   UNL     1      33.690  -7.966 -23.429  0.00  0.00    +0.055 C 
ATOM     16  C   UNL     1      31.304  -7.907 -23.708  0.00  0.00    -0.022 C 
ATOM     17  C   UNL     1      33.827  -6.889 -24.321  0.00  0.00    -0.004 C 
ATOM     18  C   UNL     1      32.688  -6.310 -24.918  0.00  0.00    +0.060 C 
ATOM     19  C   UNL     1      31.440  -6.837 -24.596  0.00  0.00    +0.071 C 
ATOM     20  C   UNL     1      35.083  -6.359 -24.645  0.00  0.00    -0.001 C 
ATOM     21  C   UNL     1      35.184  -5.296 -25.530  0.00  0.00    +0.020 C 
ATOM     22  C   UNL     1      34.014  -4.795 -26.063  0.00  0.00    +0.098 C 
ENDBRANCH   7  14
BRANCH   1  23
ATOM     23  C   UNL     1      32.217 -13.013 -21.658  0.00  0.00    +0.098 C 
ATOM     24  C   UNL     1      33.122 -13.641 -20.596  0.00  0.00    +0.024 C 
ATOM     25  C   UNL     1      32.619 -13.474 -23.060  0.00  0.00    +0.024 C 
ENDBRANCH   1  23
TORSDOF 2
ENDMDL
