MODEL 1
REMARK VINA RESULT:     -11.4      0.000      0.000
REMARK  Name = 70798655
REMARK  2 active torsions:
REMARK  status: ('A' for Active; 'I' for Inactive)
REMARK    1  A    between atoms: C_3  and  C_29
REMARK    2  A    between atoms: C_5  and  C_13
REMARK                            x       y       z     vdW  Elec       q    Type
REMARK                         _______ _______ _______ _____ _____    ______ ____
ROOT
ATOM      1  N   UNL     1      33.950 -23.684 -14.585  0.00  0.00    -0.245 N 
ATOM      2  N   UNL     1      32.345 -24.637 -13.353  0.00  0.00    -0.227 NA
ATOM      3  C   UNL     1      34.549 -24.105 -13.425  0.00  0.00    +0.130 C 
ATOM      4  C   UNL     1      32.607 -24.031 -14.493  0.00  0.00    +0.139 C 
ATOM      5  C   UNL     1      33.728 -22.703 -16.733  0.00  0.00    +0.012 C 
ATOM      6  C   UNL     1      34.509 -23.032 -15.681  0.00  0.00    +0.071 C 
ATOM      7  C   UNL     1      33.544 -24.685 -12.687  0.00  0.00    +0.120 C 
ATOM      8  C   UNL     1      31.777 -23.691 -15.597  0.00  0.00    +0.035 C 
ATOM      9  C   UNL     1      32.307 -23.061 -16.663  0.00  0.00    +0.004 C 
ENDROOT
BRANCH   5  13
ATOM     10  O   UNL     1      35.813 -20.084 -21.168  0.00  0.00    -0.414 OA
ATOM     11  N   UNL     1      33.552 -20.099 -21.004  0.00  0.00    -0.356 NA
ATOM     12  N   UNL     1      34.661 -19.018 -22.846  0.00  0.00    -0.302 N 
ATOM     13  C   UNL     1      34.330 -22.020 -17.894  0.00  0.00    -0.014 C 
ATOM     14  C   UNL     1      33.494 -21.411 -18.842  0.00  0.00    +0.089 C 
ATOM     15  C   UNL     1      35.724 -21.989 -18.030  0.00  0.00    -0.001 C 
ATOM     16  C   UNL     1      34.094 -20.769 -19.935  0.00  0.00    +0.152 C 
ATOM     17  C   UNL     1      35.478 -20.763 -20.031  0.00  0.00    +0.175 C 
ATOM     18  C   UNL     1      36.338 -21.353 -19.114  0.00  0.00    +0.040 C 
ATOM     19  C   UNL     1      34.609 -19.720 -21.690  0.00  0.00    +0.341 C 
ATOM     20  H   UNL     1      35.532 -18.804 -23.252  0.00  0.00    +0.148 HD
ATOM     21  H   UNL     1      33.829 -18.723 -23.280  0.00  0.00    +0.148 HD
ENDBRANCH   5  13
BRANCH   3  29
ATOM     22  O   UNL     1      38.672 -26.934 -14.166  0.00  0.00    -0.350 OA
ATOM     23  O   UNL     1      36.237 -23.065 -12.267  0.00  0.00    -0.268 OA
ATOM     24  N   UNL     1      36.891 -24.805 -13.682  0.00  0.00    -0.270 N 
ATOM     25  C   UNL     1      38.313 -24.678 -13.367  0.00  0.00    +0.126 C 
ATOM     26  C   UNL     1      36.584 -25.815 -14.702  0.00  0.00    +0.126 C 
ATOM     27  C   UNL     1      37.269 -27.133 -14.361  0.00  0.00    +0.164 C 
ATOM     28  C   UNL     1      38.915 -26.044 -13.074  0.00  0.00    +0.164 C 
ATOM     29  C   UNL     1      35.967 -23.952 -13.075  0.00  0.00    +0.265 C 
ENDBRANCH   3  29
TORSDOF 2
ENDMDL
MODEL 2
REMARK VINA RESULT:     -10.9      4.613     10.734
REMARK  Name = 70798655
REMARK  2 active torsions:
REMARK  status: ('A' for Active; 'I' for Inactive)
REMARK    1  A    between atoms: C_3  and  C_29
REMARK    2  A    between atoms: C_5  and  C_13
REMARK                            x       y       z     vdW  Elec       q    Type
REMARK                         _______ _______ _______ _____ _____    ______ ____
ROOT
ATOM      1  N   UNL     1      34.640 -16.546 -22.185  0.00  0.00    -0.245 N 
ATOM      2  N   UNL     1      34.794 -15.665 -24.234  0.00  0.00    -0.227 NA
ATOM      3  C   UNL     1      34.390 -15.204 -22.051  0.00  0.00    +0.130 C 
ATOM      4  C   UNL     1      34.880 -16.777 -23.534  0.00  0.00    +0.139 C 
ATOM      5  C   UNL     1      34.937 -18.816 -21.565  0.00  0.00    +0.012 C 
ATOM      6  C   UNL     1      34.666 -17.541 -21.211  0.00  0.00    +0.071 C 
ATOM      7  C   UNL     1      34.491 -14.687 -23.320  0.00  0.00    +0.120 C 
ATOM      8  C   UNL     1      35.165 -18.117 -23.917  0.00  0.00    +0.035 C 
ATOM      9  C   UNL     1      35.192 -19.088 -22.984  0.00  0.00    +0.004 C 
ENDROOT
BRANCH   5  13
ATOM     10  O   UNL     1      34.809 -22.775 -17.669  0.00  0.00    -0.414 OA
ATOM     11  N   UNL     1      32.792 -22.091 -18.446  0.00  0.00    -0.356 NA
ATOM     12  N   UNL     1      32.964 -23.797 -16.758  0.00  0.00    -0.302 N 
ATOM     13  C   UNL     1      34.955 -19.866 -20.528  0.00  0.00    -0.014 C 
ATOM     14  C   UNL     1      33.741 -20.397 -20.068  0.00  0.00    +0.089 C 
ATOM     15  C   UNL     1      36.182 -20.315 -20.023  0.00  0.00    -0.001 C 
ATOM     16  C   UNL     1      33.789 -21.394 -19.083  0.00  0.00    +0.152 C 
ATOM     17  C   UNL     1      35.026 -21.809 -18.609  0.00  0.00    +0.175 C 
ATOM     18  C   UNL     1      36.248 -21.309 -19.040  0.00  0.00    +0.040 C 
ATOM     19  C   UNL     1      33.451 -22.885 -17.631  0.00  0.00    +0.341 C 
ATOM     20  H   UNL     1      33.581 -24.327 -16.203  0.00  0.00    +0.148 HD
ATOM     21  H   UNL     1      31.992 -23.930 -16.677  0.00  0.00    +0.148 HD
ENDBRANCH   5  13
BRANCH   3  29
ATOM     22  O   UNL     1      31.297 -11.396 -20.833  0.00  0.00    -0.350 OA
ATOM     23  O   UNL     1      34.848 -14.704 -19.857  0.00  0.00    -0.268 OA
ATOM     24  N   UNL     1      32.963 -13.667 -20.768  0.00  0.00    -0.270 N 
ATOM     25  C   UNL     1      32.620 -12.955 -19.538  0.00  0.00    +0.126 C 
ATOM     26  C   UNL     1      32.007 -13.475 -21.866  0.00  0.00    +0.126 C 
ATOM     27  C   UNL     1      31.721 -11.992 -22.062  0.00  0.00    +0.164 C 
ATOM     28  C   UNL     1      32.319 -11.494 -19.837  0.00  0.00    +0.164 C 
ATOM     29  C   UNL     1      34.084 -14.499 -20.799  0.00  0.00    +0.265 C 
ENDBRANCH   3  29
TORSDOF 2
ENDMDL
MODEL 3
REMARK VINA RESULT:     -10.8      1.227      1.882
REMARK  Name = 70798655
REMARK  2 active torsions:
REMARK  status: ('A' for Active; 'I' for Inactive)
REMARK    1  A    between atoms: C_3  and  C_29
REMARK    2  A    between atoms: C_5  and  C_13
REMARK                            x       y       z     vdW  Elec       q    Type
REMARK                         _______ _______ _______ _____ _____    ______ ____
ROOT
ATOM      1  N   UNL     1      33.533 -23.921 -15.182  0.00  0.00    -0.245 N 
ATOM      2  N   UNL     1      31.826 -24.564 -13.888  0.00  0.00    -0.227 NA
ATOM      3  C   UNL     1      34.070 -24.699 -14.187  0.00  0.00    +0.130 C 
ATOM      4  C   UNL     1      32.163 -23.870 -14.956  0.00  0.00    +0.139 C 
ATOM      5  C   UNL     1      33.441 -22.553 -17.116  0.00  0.00    +0.012 C 
ATOM      6  C   UNL     1      34.170 -23.279 -16.240  0.00  0.00    +0.071 C 
ATOM      7  C   UNL     1      33.003 -25.080 -13.408  0.00  0.00    +0.120 C 
ATOM      8  C   UNL     1      31.387 -23.110 -15.875  0.00  0.00    +0.035 C 
ATOM      9  C   UNL     1      31.992 -22.484 -16.903  0.00  0.00    +0.004 C 
ENDROOT
BRANCH   5  13
ATOM     10  O   UNL     1      35.829 -19.961 -21.412  0.00  0.00    -0.414 OA
ATOM     11  N   UNL     1      33.570 -19.810 -21.301  0.00  0.00    -0.356 NA
ATOM     12  N   UNL     1      34.804 -18.759 -23.080  0.00  0.00    -0.302 N 
ATOM     13  C   UNL     1      34.122 -21.881 -18.240  0.00  0.00    -0.014 C 
ATOM     14  C   UNL     1      33.358 -21.181 -19.186  0.00  0.00    +0.089 C 
ATOM     15  C   UNL     1      35.518 -21.952 -18.343  0.00  0.00    -0.001 C 
ATOM     16  C   UNL     1      34.032 -20.552 -20.242  0.00  0.00    +0.152 C 
ATOM     17  C   UNL     1      35.415 -20.648 -20.307  0.00  0.00    +0.175 C 
ATOM     18  C   UNL     1      36.205 -21.330 -19.390  0.00  0.00    +0.040 C 
ATOM     19  C   UNL     1      34.669 -19.491 -21.950  0.00  0.00    +0.341 C 
ATOM     20  H   UNL     1      35.699 -18.599 -23.459  0.00  0.00    +0.148 HD
ATOM     21  H   UNL     1      34.008 -18.388 -23.523  0.00  0.00    +0.148 HD
ENDBRANCH   5  13
BRANCH   3  29
ATOM     22  O   UNL     1      37.396 -24.096 -10.429  0.00  0.00    -0.350 OA
ATOM     23  O   UNL     1      36.100 -25.355 -15.038  0.00  0.00    -0.268 OA
ATOM     24  N   UNL     1      36.033 -24.973 -12.734  0.00  0.00    -0.270 N 
ATOM     25  C   UNL     1      37.441 -25.308 -12.523  0.00  0.00    +0.126 C 
ATOM     26  C   UNL     1      35.294 -24.663 -11.504  0.00  0.00    +0.126 C 
ATOM     27  C   UNL     1      36.061 -23.644 -10.671  0.00  0.00    +0.164 C 
ATOM     28  C   UNL     1      38.113 -24.254 -11.656  0.00  0.00    +0.164 C 
ATOM     29  C   UNL     1      35.490 -25.034 -14.018  0.00  0.00    +0.265 C 
ENDBRANCH   3  29
TORSDOF 2
ENDMDL
MODEL 4
REMARK VINA RESULT:     -10.1      2.934      4.815
REMARK  Name = 70798655
REMARK  2 active torsions:
REMARK  status: ('A' for Active; 'I' for Inactive)
REMARK    1  A    between atoms: C_3  and  C_29
REMARK    2  A    between atoms: C_5  and  C_13
REMARK                            x       y       z     vdW  Elec       q    Type
REMARK                         _______ _______ _______ _____ _____    ______ ____
ROOT
ATOM      1  N   UNL     1      34.774 -22.680 -16.558  0.00  0.00    -0.245 N 
ATOM      2  N   UNL     1      35.580 -23.751 -14.769  0.00  0.00    -0.227 NA
ATOM      3  C   UNL     1      33.699 -23.263 -15.937  0.00  0.00    +0.130 C 
ATOM      4  C   UNL     1      35.897 -23.006 -15.808  0.00  0.00    +0.139 C 
ATOM      5  C   UNL     1      35.992 -21.422 -18.157  0.00  0.00    +0.012 C 
ATOM      6  C   UNL     1      34.810 -21.902 -17.713  0.00  0.00    +0.071 C 
ATOM      7  C   UNL     1      34.220 -23.914 -14.844  0.00  0.00    +0.120 C 
ATOM      8  C   UNL     1      37.146 -22.502 -16.266  0.00  0.00    +0.035 C 
ATOM      9  C   UNL     1      37.194 -21.749 -17.382  0.00  0.00    +0.004 C 
ENDROOT
BRANCH   5  13
ATOM     10  O   UNL     1      35.926 -18.357 -22.791  0.00  0.00    -0.414 OA
ATOM     11  N   UNL     1      34.049 -19.558 -22.376  0.00  0.00    -0.356 NA
ATOM     12  N   UNL     1      34.230 -18.163 -24.328  0.00  0.00    -0.302 N 
ATOM     13  C   UNL     1      36.023 -20.592 -19.376  0.00  0.00    -0.014 C 
ATOM     14  C   UNL     1      34.905 -20.575 -20.224  0.00  0.00    +0.089 C 
ATOM     15  C   UNL     1      37.166 -19.835 -19.667  0.00  0.00    -0.001 C 
ATOM     16  C   UNL     1      34.963 -19.776 -21.375  0.00  0.00    +0.152 C 
ATOM     17  C   UNL     1      36.115 -19.043 -21.625  0.00  0.00    +0.175 C 
ATOM     18  C   UNL     1      37.239 -19.033 -20.811  0.00  0.00    +0.040 C 
ATOM     19  C   UNL     1      34.670 -18.717 -23.175  0.00  0.00    +0.341 C 
ATOM     20  H   UNL     1      34.809 -17.543 -24.829  0.00  0.00    +0.148 HD
ATOM     21  H   UNL     1      33.332 -18.379 -24.667  0.00  0.00    +0.148 HD
ENDBRANCH   5  13
BRANCH   3  29
ATOM     22  O   UNL     1      29.335 -24.966 -14.038  0.00  0.00    -0.350 OA
ATOM     23  O   UNL     1      32.107 -22.818 -17.531  0.00  0.00    -0.268 OA
ATOM     24  N   UNL     1      31.303 -23.536 -15.458  0.00  0.00    -0.270 N 
ATOM     25  C   UNL     1      29.897 -23.467 -15.853  0.00  0.00    +0.126 C 
ATOM     26  C   UNL     1      31.521 -23.910 -14.055  0.00  0.00    +0.126 C 
ATOM     27  C   UNL     1      30.714 -25.155 -13.711  0.00  0.00    +0.164 C 
ATOM     28  C   UNL     1      29.167 -24.737 -15.439  0.00  0.00    +0.164 C 
ATOM     29  C   UNL     1      32.298 -23.190 -16.374  0.00  0.00    +0.265 C 
ENDBRANCH   3  29
TORSDOF 2
ENDMDL
MODEL 5
REMARK VINA RESULT:      -9.9      3.040      5.424
REMARK  Name = 70798655
REMARK  2 active torsions:
REMARK  status: ('A' for Active; 'I' for Inactive)
REMARK    1  A    between atoms: C_3  and  C_29
REMARK    2  A    between atoms: C_5  and  C_13
REMARK                            x       y       z     vdW  Elec       q    Type
REMARK                         _______ _______ _______ _____ _____    ______ ____
ROOT
ATOM      1  N   UNL     1      35.582 -22.765 -15.935  0.00  0.00    -0.245 N 
ATOM      2  N   UNL     1      37.210 -22.202 -17.360  0.00  0.00    -0.227 NA
ATOM      3  C   UNL     1      36.758 -22.855 -15.236  0.00  0.00    +0.130 C 
ATOM      4  C   UNL     1      35.910 -22.363 -17.224  0.00  0.00    +0.139 C 
ATOM      5  C   UNL     1      33.253 -22.859 -16.371  0.00  0.00    +0.012 C 
ATOM      6  C   UNL     1      34.280 -23.010 -15.507  0.00  0.00    +0.071 C 
ATOM      7  C   UNL     1      37.741 -22.506 -16.132  0.00  0.00    +0.120 C 
ATOM      8  C   UNL     1      34.835 -22.199 -18.142  0.00  0.00    +0.035 C 
ATOM      9  C   UNL     1      33.571 -22.433 -17.739  0.00  0.00    +0.004 C 
ENDROOT
BRANCH   5  13
ATOM     10  O   UNL     1      28.003 -23.667 -14.739  0.00  0.00    -0.414 OA
ATOM     11  N   UNL     1      28.334 -21.952 -16.184  0.00  0.00    -0.356 NA
ATOM     12  N   UNL     1      26.137 -22.476 -15.353  0.00  0.00    -0.302 N 
ATOM     13  C   UNL     1      31.875 -23.113 -15.909  0.00  0.00    -0.014 C 
ATOM     14  C   UNL     1      30.833 -22.297 -16.373  0.00  0.00    +0.089 C 
ATOM     15  C   UNL     1      31.631 -24.165 -15.015  0.00  0.00    -0.001 C 
ATOM     16  C   UNL     1      29.534 -22.563 -15.916  0.00  0.00    +0.152 C 
ATOM     17  C   UNL     1      29.336 -23.614 -15.031  0.00  0.00    +0.175 C 
ATOM     18  C   UNL     1      30.341 -24.443 -14.550  0.00  0.00    +0.040 C 
ATOM     19  C   UNL     1      27.475 -22.643 -15.467  0.00  0.00    +0.341 C 
ATOM     20  H   UNL     1      25.614 -23.074 -14.772  0.00  0.00    +0.148 HD
ATOM     21  H   UNL     1      25.688 -21.755 -15.850  0.00  0.00    +0.148 HD
ENDBRANCH   5  13
BRANCH   3  29
ATOM     22  O   UNL     1      37.523 -27.260 -12.879  0.00  0.00    -0.350 OA
ATOM     23  O   UNL     1      36.592 -22.400 -12.991  0.00  0.00    -0.268 OA
ATOM     24  N   UNL     1      37.384 -24.527 -13.546  0.00  0.00    -0.270 N 
ATOM     25  C   UNL     1      37.551 -24.951 -12.157  0.00  0.00    +0.126 C 
ATOM     26  C   UNL     1      37.827 -25.514 -14.538  0.00  0.00    +0.126 C 
ATOM     27  C   UNL     1      37.229 -26.880 -14.226  0.00  0.00    +0.164 C 
ATOM     28  C   UNL     1      36.954 -26.335 -11.949  0.00  0.00    +0.164 C 
ATOM     29  C   UNL     1      36.904 -23.247 -13.828  0.00  0.00    +0.265 C 
ENDBRANCH   3  29
TORSDOF 2
ENDMDL
MODEL 6
REMARK VINA RESULT:      -9.6      3.029      5.308
REMARK  Name = 70798655
REMARK  2 active torsions:
REMARK  status: ('A' for Active; 'I' for Inactive)
REMARK    1  A    between atoms: C_3  and  C_29
REMARK    2  A    between atoms: C_5  and  C_13
REMARK                            x       y       z     vdW  Elec       q    Type
REMARK                         _______ _______ _______ _____ _____    ______ ____
ROOT
ATOM      1  N   UNL     1      32.428 -23.659 -14.465  0.00  0.00    -0.245 N 
ATOM      2  N   UNL     1      32.495 -25.115 -12.769  0.00  0.00    -0.227 NA
ATOM      3  C   UNL     1      31.206 -23.592 -13.846  0.00  0.00    +0.130 C 
ATOM      4  C   UNL     1      33.178 -24.600 -13.771  0.00  0.00    +0.139 C 
ATOM      5  C   UNL     1      34.151 -23.179 -16.022  0.00  0.00    +0.012 C 
ATOM      6  C   UNL     1      32.897 -22.955 -15.571  0.00  0.00    +0.071 C 
ATOM      7  C   UNL     1      31.272 -24.494 -12.811  0.00  0.00    +0.120 C 
ATOM      8  C   UNL     1      34.501 -24.841 -14.237  0.00  0.00    +0.035 C 
ATOM      9  C   UNL     1      34.966 -24.166 -15.307  0.00  0.00    +0.004 C 
ENDROOT
BRANCH   5  13
ATOM     10  O   UNL     1      35.824 -20.321 -20.484  0.00  0.00    -0.414 OA
ATOM     11  N   UNL     1      33.593 -20.696 -20.333  0.00  0.00    -0.356 NA
ATOM     12  N   UNL     1      34.529 -19.478 -22.185  0.00  0.00    -0.302 N 
ATOM     13  C   UNL     1      34.644 -22.424 -17.191  0.00  0.00    -0.014 C 
ATOM     14  C   UNL     1      33.729 -21.971 -18.152  0.00  0.00    +0.089 C 
ATOM     15  C   UNL     1      36.017 -22.172 -17.319  0.00  0.00    -0.001 C 
ATOM     16  C   UNL     1      34.227 -21.256 -19.251  0.00  0.00    +0.152 C 
ATOM     17  C   UNL     1      35.593 -21.029 -19.340  0.00  0.00    +0.175 C 
ATOM     18  C   UNL     1      36.529 -21.460 -18.409  0.00  0.00    +0.040 C 
ATOM     19  C   UNL     1      34.581 -20.162 -21.019  0.00  0.00    +0.341 C 
ATOM     20  H   UNL     1      35.358 -19.132 -22.589  0.00  0.00    +0.148 HD
ATOM     21  H   UNL     1      33.664 -19.326 -22.628  0.00  0.00    +0.148 HD
ENDBRANCH   5  13
BRANCH   3  29
ATOM     22  O   UNL     1      27.359 -24.081 -17.089  0.00  0.00    -0.350 OA
ATOM     23  O   UNL     1      30.146 -21.555 -13.871  0.00  0.00    -0.268 OA
ATOM     24  N   UNL     1      29.039 -23.295 -14.968  0.00  0.00    -0.270 N 
ATOM     25  C   UNL     1      27.898 -22.471 -15.365  0.00  0.00    +0.126 C 
ATOM     26  C   UNL     1      28.922 -24.711 -15.340  0.00  0.00    +0.126 C 
ATOM     27  C   UNL     1      28.540 -24.839 -16.809  0.00  0.00    +0.164 C 
ATOM     28  C   UNL     1      27.572 -22.690 -16.835  0.00  0.00    +0.164 C 
ATOM     29  C   UNL     1      30.083 -22.728 -14.234  0.00  0.00    +0.265 C 
ENDBRANCH   3  29
TORSDOF 2
ENDMDL
MODEL 7
REMARK VINA RESULT:      -9.2     10.102     15.263
REMARK  Name = 70798655
REMARK  2 active torsions:
REMARK  status: ('A' for Active; 'I' for Inactive)
REMARK    1  A    between atoms: C_3  and  C_29
REMARK    2  A    between atoms: C_5  and  C_13
REMARK                            x       y       z     vdW  Elec       q    Type
REMARK                         _______ _______ _______ _____ _____    ______ ____
ROOT
ATOM      1  N   UNL     1      31.977  -9.476 -21.098  0.00  0.00    -0.245 N 
ATOM      2  N   UNL     1      31.384  -8.304 -19.288  0.00  0.00    -0.227 NA
ATOM      3  C   UNL     1      31.685  -8.209 -21.534  0.00  0.00    +0.130 C 
ATOM      4  C   UNL     1      31.779  -9.483 -19.722  0.00  0.00    +0.139 C 
ATOM      5  C   UNL     1      32.630 -11.754 -21.190  0.00  0.00    +0.012 C 
ATOM      6  C   UNL     1      32.396 -10.586 -21.827  0.00  0.00    +0.071 C 
ATOM      7  C   UNL     1      31.323  -7.510 -20.406  0.00  0.00    +0.120 C 
ATOM      8  C   UNL     1      32.026 -10.708 -19.042  0.00  0.00    +0.035 C 
ATOM      9  C   UNL     1      32.431 -11.788 -19.737  0.00  0.00    +0.004 C 
ENDROOT
BRANCH   5  13
ATOM     10  O   UNL     1      34.419 -16.226 -23.961  0.00  0.00    -0.414 OA
ATOM     11  N   UNL     1      35.057 -16.091 -21.790  0.00  0.00    -0.356 NA
ATOM     12  N   UNL     1      35.721 -17.946 -23.170  0.00  0.00    -0.302 N 
ATOM     13  C   UNL     1      33.081 -12.924 -21.968  0.00  0.00    -0.014 C 
ATOM     14  C   UNL     1      33.876 -13.898 -21.346  0.00  0.00    +0.089 C 
ATOM     15  C   UNL     1      32.707 -13.043 -23.314  0.00  0.00    -0.001 C 
ATOM     16  C   UNL     1      34.289 -14.999 -22.111  0.00  0.00    +0.152 C 
ATOM     17  C   UNL     1      33.896 -15.077 -23.439  0.00  0.00    +0.175 C 
ATOM     18  C   UNL     1      33.110 -14.135 -24.089  0.00  0.00    +0.040 C 
ATOM     19  C   UNL     1      35.097 -16.774 -22.913  0.00  0.00    +0.341 C 
ATOM     20  H   UNL     1      35.665 -18.347 -24.068  0.00  0.00    +0.148 HD
ATOM     21  H   UNL     1      36.230 -18.398 -22.460  0.00  0.00    +0.148 HD
ENDBRANCH   5  13
BRANCH   3  29
ATOM     22  O   UNL     1      35.399  -6.401 -24.447  0.00  0.00    -0.350 OA
ATOM     23  O   UNL     1      30.676  -7.524 -23.480  0.00  0.00    -0.268 OA
ATOM     24  N   UNL     1      33.012  -7.558 -23.498  0.00  0.00    -0.270 N 
ATOM     25  C   UNL     1      33.121  -7.093 -24.880  0.00  0.00    +0.126 C 
ATOM     26  C   UNL     1      34.297  -7.874 -22.862  0.00  0.00    +0.126 C 
ATOM     27  C   UNL     1      35.279  -6.725 -23.060  0.00  0.00    +0.164 C 
ATOM     28  C   UNL     1      34.144  -5.972 -24.984  0.00  0.00    +0.164 C 
ATOM     29  C   UNL     1      31.752  -7.731 -22.921  0.00  0.00    +0.265 C 
ENDBRANCH   3  29
TORSDOF 2
ENDMDL
MODEL 8
REMARK VINA RESULT:      -9.1     10.223     16.007
REMARK  Name = 70798655
REMARK  2 active torsions:
REMARK  status: ('A' for Active; 'I' for Inactive)
REMARK    1  A    between atoms: C_3  and  C_29
REMARK    2  A    between atoms: C_5  and  C_13
REMARK                            x       y       z     vdW  Elec       q    Type
REMARK                         _______ _______ _______ _____ _____    ______ ____
ROOT
ATOM      1  N   UNL     1      32.816  -9.255 -22.210  0.00  0.00    -0.245 N 
ATOM      2  N   UNL     1      31.494  -7.888 -21.034  0.00  0.00    -0.227 NA
ATOM      3  C   UNL     1      33.260  -7.980 -22.453  0.00  0.00    +0.130 C 
ATOM      4  C   UNL     1      31.738  -9.146 -21.339  0.00  0.00    +0.139 C 
ATOM      5  C   UNL     1      32.702 -11.621 -22.330  0.00  0.00    +0.012 C 
ATOM      6  C   UNL     1      33.296 -10.466 -22.702  0.00  0.00    +0.071 C 
ATOM      7  C   UNL     1      32.434  -7.161 -21.721  0.00  0.00    +0.120 C 
ATOM      8  C   UNL     1      31.107 -10.357 -20.940  0.00  0.00    +0.035 C 
ATOM      9  C   UNL     1      31.564 -11.534 -21.409  0.00  0.00    +0.004 C 
ENDROOT
BRANCH   5  13
ATOM     10  O   UNL     1      34.727 -16.481 -24.104  0.00  0.00    -0.414 OA
ATOM     11  N   UNL     1      35.071 -16.010 -21.913  0.00  0.00    -0.356 NA
ATOM     12  N   UNL     1      35.865 -18.063 -22.886  0.00  0.00    -0.302 N 
ATOM     13  C   UNL     1      33.222 -12.901 -22.849  0.00  0.00    -0.014 C 
ATOM     14  C   UNL     1      33.900 -13.769 -21.980  0.00  0.00    +0.089 C 
ATOM     15  C   UNL     1      33.029 -13.227 -24.198  0.00  0.00    -0.001 C 
ATOM     16  C   UNL     1      34.382 -14.978 -22.502  0.00  0.00    +0.152 C 
ATOM     17  C   UNL     1      34.170 -15.262 -23.843  0.00  0.00    +0.175 C 
ATOM     18  C   UNL     1      33.503 -14.430 -24.733  0.00  0.00    +0.040 C 
ATOM     19  C   UNL     1      35.243 -16.861 -22.902  0.00  0.00    +0.341 C 
ATOM     20  H   UNL     1      35.920 -18.599 -23.711  0.00  0.00    +0.148 HD
ATOM     21  H   UNL     1      36.261 -18.401 -22.052  0.00  0.00    +0.148 HD
ENDBRANCH   5  13
BRANCH   3  29
ATOM     22  O   UNL     1      33.750  -4.893 -26.425  0.00  0.00    -0.350 OA
ATOM     23  O   UNL     1      35.398  -8.295 -23.229  0.00  0.00    -0.268 OA
ATOM     24  N   UNL     1      34.227  -6.501 -24.162  0.00  0.00    -0.270 N 
ATOM     25  C   UNL     1      35.327  -6.089 -25.032  0.00  0.00    +0.126 C 
ATOM     26  C   UNL     1      33.048  -5.628 -24.220  0.00  0.00    +0.126 C 
ATOM     27  C   UNL     1      32.642  -5.388 -25.668  0.00  0.00    +0.164 C 
ATOM     28  C   UNL     1      34.821  -5.841 -26.446  0.00  0.00    +0.164 C 
ATOM     29  C   UNL     1      34.385  -7.603 -23.319  0.00  0.00    +0.265 C 
ENDBRANCH   3  29
TORSDOF 2
ENDMDL
MODEL 9
REMARK VINA RESULT:      -8.9      2.930      5.357
REMARK  Name = 70798655
REMARK  2 active torsions:
REMARK  status: ('A' for Active; 'I' for Inactive)
REMARK    1  A    between atoms: C_3  and  C_29
REMARK    2  A    between atoms: C_5  and  C_13
REMARK                            x       y       z     vdW  Elec       q    Type
REMARK                         _______ _______ _______ _____ _____    ______ ____
ROOT
ATOM      1  N   UNL     1      32.755 -24.173 -14.694  0.00  0.00    -0.245 N 
ATOM      2  N   UNL     1      32.909 -24.952 -12.604  0.00  0.00    -0.227 NA
ATOM      3  C   UNL     1      31.561 -24.789 -14.420  0.00  0.00    +0.130 C 
ATOM      4  C   UNL     1      33.543 -24.299 -13.556  0.00  0.00    +0.139 C 
ATOM      5  C   UNL     1      34.404 -22.984 -15.915  0.00  0.00    +0.012 C 
ATOM      6  C   UNL     1      33.169 -23.529 -15.857  0.00  0.00    +0.071 C 
ATOM      7  C   UNL     1      31.681 -25.259 -13.133  0.00  0.00    +0.120 C 
ATOM      8  C   UNL     1      34.844 -23.727 -13.607  0.00  0.00    +0.035 C 
ATOM      9  C   UNL     1      35.256 -23.101 -14.726  0.00  0.00    +0.004 C 
ENDROOT
BRANCH   5  13
ATOM     10  O   UNL     1      35.833 -20.377 -20.609  0.00  0.00    -0.414 OA
ATOM     11  N   UNL     1      33.611 -20.701 -20.298  0.00  0.00    -0.356 NA
ATOM     12  N   UNL     1      34.446 -19.591 -22.264  0.00  0.00    -0.302 N 
ATOM     13  C   UNL     1      34.833 -22.296 -17.148  0.00  0.00    -0.014 C 
ATOM     14  C   UNL     1      33.866 -21.872 -18.070  0.00  0.00    +0.089 C 
ATOM     15  C   UNL     1      36.199 -22.077 -17.376  0.00  0.00    -0.001 C 
ATOM     16  C   UNL     1      34.304 -21.220 -19.232  0.00  0.00    +0.152 C 
ATOM     17  C   UNL     1      35.665 -21.024 -19.419  0.00  0.00    +0.175 C 
ATOM     18  C   UNL     1      36.652 -21.429 -18.529  0.00  0.00    +0.040 C 
ATOM     19  C   UNL     1      34.561 -20.220 -21.071  0.00  0.00    +0.341 C 
ATOM     20  H   UNL     1      35.252 -19.281 -22.737  0.00  0.00    +0.148 HD
ATOM     21  H   UNL     1      33.557 -19.444 -22.658  0.00  0.00    +0.148 HD
ENDBRANCH   5  13
BRANCH   3  29
ATOM     22  O   UNL     1      27.563 -21.865 -15.429  0.00  0.00    -0.350 OA
ATOM     23  O   UNL     1      30.235 -26.011 -15.841  0.00  0.00    -0.268 OA
ATOM     24  N   UNL     1      29.632 -23.772 -15.556  0.00  0.00    -0.270 N 
ATOM     25  C   UNL     1      28.489 -23.846 -16.464  0.00  0.00    +0.126 C 
ATOM     26  C   UNL     1      29.886 -22.434 -15.009  0.00  0.00    +0.126 C 
ATOM     27  C   UNL     1      28.600 -21.843 -14.444  0.00  0.00    +0.164 C 
ATOM     28  C   UNL     1      27.264 -23.205 -15.828  0.00  0.00    +0.164 C 
ATOM     29  C   UNL     1      30.415 -24.907 -15.332  0.00  0.00    +0.265 C 
ENDBRANCH   3  29
TORSDOF 2
ENDMDL
