MODEL 1
REMARK VINA RESULT:     -11.3      0.000      0.000
REMARK  Name = 57336276
REMARK  5 active torsions:
REMARK  status: ('A' for Active; 'I' for Inactive)
REMARK    1  A    between atoms: C_2  and  C_16
REMARK    2  A    between atoms: C_6  and  O_17
REMARK    3  A    between atoms: O_17  and  C_18
REMARK    4  A    between atoms: C_18  and  C_21
REMARK    5  A    between atoms: C_22  and  C_26
REMARK                            x       y       z     vdW  Elec       q    Type
REMARK                         _______ _______ _______ _____ _____    ______ ____
ROOT
ATOM      1  N   UNL     1      33.986 -11.667 -24.126  0.00  0.00    -0.210 NA
ATOM      2  C   UNL     1      33.431 -14.018 -24.023  0.00  0.00    +0.073 C 
ATOM      3  C   UNL     1      32.503 -13.761 -23.020  0.00  0.00    +0.011 C 
ATOM      4  C   UNL     1      34.141 -12.945 -24.539  0.00  0.00    +0.107 C 
ATOM      5  C   UNL     1      32.315 -12.458 -22.570  0.00  0.00    +0.058 C 
ATOM      6  C   UNL     1      33.075 -11.456 -23.151  0.00  0.00    +0.225 C 
ENDROOT
BRANCH   2  16
ATOM      7  S   UNL     1      35.327 -18.213 -21.723  0.00  0.00    -0.007 S 
ATOM      8  O   UNL     1      34.617 -18.858 -20.636  0.00  0.00    -0.173 OA
ATOM      9  O   UNL     1      36.723 -18.511 -21.978  0.00  0.00    -0.173 OA
ATOM     10  O   UNL     1      32.928 -15.743 -25.446  0.00  0.00    -0.270 OA
ATOM     11  N   UNL     1      34.644 -16.151 -23.908  0.00  0.00    -0.272 N 
ATOM     12  C   UNL     1      34.410 -18.503 -23.226  0.00  0.00    +0.172 C 
ATOM     13  C   UNL     1      35.162 -16.447 -21.516  0.00  0.00    +0.172 C 
ATOM     14  C   UNL     1      34.834 -17.542 -24.327  0.00  0.00    +0.119 C 
ATOM     15  C   UNL     1      35.504 -15.707 -22.800  0.00  0.00    +0.119 C 
ATOM     16  C   UNL     1      33.652 -15.381 -24.520  0.00  0.00    +0.251 C 
ENDBRANCH   2  16
BRANCH   6  17
ATOM     17  O   UNL     1      32.909 -10.165 -22.724  0.00  0.00    -0.455 OA
BRANCH  17  18
ATOM     18  C   UNL     1      31.770  -9.900 -21.914  0.00  0.00    +0.238 C 
BRANCH  18  21
ATOM     19  O   UNL     1      32.433  -8.132 -18.745  0.00  0.00    -0.358 OA
ATOM     20  N   UNL     1      33.086  -7.271 -19.618  0.00  0.00    -0.078 NA
ATOM     21  C   UNL     1      32.172  -9.001 -20.782  0.00  0.00    +0.075 A 
ATOM     22  C   UNL     1      32.917  -7.810 -20.829  0.00  0.00    +0.122 A 
ATOM     23  C   UNL     1      31.892  -9.158 -19.450  0.00  0.00    +0.154 A 
ATOM     24  C   UNL     1      31.159 -10.168 -18.674  0.00  0.00    +0.075 C 
BRANCH  22  26
ATOM     25  F   UNL     1      35.067  -5.340 -25.331  0.00  0.00    -0.204 F 
ATOM     26  C   UNL     1      33.472  -7.172 -21.992  0.00  0.00    +0.021 C 
ATOM     27  C   UNL     1      34.797  -7.414 -22.355  0.00  0.00    +0.004 C 
ATOM     28  C   UNL     1      32.687  -6.310 -22.758  0.00  0.00    +0.004 C 
ATOM     29  C   UNL     1      35.336  -6.796 -23.483  0.00  0.00    +0.030 C 
ATOM     30  C   UNL     1      33.226  -5.691 -23.886  0.00  0.00    +0.030 C 
ATOM     31  C   UNL     1      34.550  -5.934 -24.248  0.00  0.00    +0.140 C 
ENDBRANCH  22  26
ENDBRANCH  18  21
ENDBRANCH  17  18
ENDBRANCH   6  17
TORSDOF 5
ENDMDL
MODEL 2
REMARK VINA RESULT:     -11.0      4.490     10.133
REMARK  Name = 57336276
REMARK  5 active torsions:
REMARK  status: ('A' for Active; 'I' for Inactive)
REMARK    1  A    between atoms: C_2  and  C_16
REMARK    2  A    between atoms: C_6  and  O_17
REMARK    3  A    between atoms: O_17  and  C_18
REMARK    4  A    between atoms: C_18  and  C_21
REMARK    5  A    between atoms: C_22  and  C_26
REMARK                            x       y       z     vdW  Elec       q    Type
REMARK                         _______ _______ _______ _____ _____    ______ ____
ROOT
ATOM      1  N   UNL     1      34.190 -12.652 -23.645  0.00  0.00    -0.210 NA
ATOM      2  C   UNL     1      32.452 -11.511 -22.410  0.00  0.00    +0.073 C 
ATOM      3  C   UNL     1      32.553 -12.449 -21.388  0.00  0.00    +0.011 C 
ATOM      4  C   UNL     1      33.286 -11.656 -23.508  0.00  0.00    +0.107 C 
ATOM      5  C   UNL     1      33.472 -13.487 -21.493  0.00  0.00    +0.058 C 
ATOM      6  C   UNL     1      34.259 -13.544 -22.632  0.00  0.00    +0.225 C 
ENDROOT
BRANCH   2  16
ATOM      7  S   UNL     1      32.724  -6.646 -24.066  0.00  0.00    -0.007 S 
ATOM      8  O   UNL     1      32.771  -6.337 -25.481  0.00  0.00    -0.173 OA
ATOM      9  O   UNL     1      33.081  -5.648 -23.075  0.00  0.00    -0.173 OA
ATOM     10  O   UNL     1      30.306 -10.719 -22.256  0.00  0.00    -0.270 OA
ATOM     11  N   UNL     1      31.991  -9.099 -22.351  0.00  0.00    -0.272 N 
ATOM     12  C   UNL     1      31.085  -7.244 -23.689  0.00  0.00    +0.172 C 
ATOM     13  C   UNL     1      33.728  -8.095 -23.786  0.00  0.00    +0.172 C 
ATOM     14  C   UNL     1      31.055  -7.971 -22.353  0.00  0.00    +0.119 C 
ATOM     15  C   UNL     1      33.413  -8.732 -22.439  0.00  0.00    +0.119 C 
ATOM     16  C   UNL     1      31.493 -10.403 -22.330  0.00  0.00    +0.251 C 
ENDBRANCH   2  16
BRANCH   6  17
ATOM     17  O   UNL     1      35.172 -14.558 -22.758  0.00  0.00    -0.455 OA
BRANCH  17  18
ATOM     18  C   UNL     1      34.871 -15.778 -22.092  0.00  0.00    +0.238 C 
BRANCH  18  21
ATOM     19  O   UNL     1      34.069 -17.905 -24.997  0.00  0.00    -0.358 OA
ATOM     20  N   UNL     1      34.509 -18.888 -24.119  0.00  0.00    -0.078 NA
ATOM     21  C   UNL     1      34.627 -16.848 -23.115  0.00  0.00    +0.075 A 
ATOM     22  C   UNL     1      34.836 -18.234 -23.001  0.00  0.00    +0.122 A 
ATOM     23  C   UNL     1      34.144 -16.695 -24.387  0.00  0.00    +0.154 A 
ATOM     24  C   UNL     1      33.714 -15.536 -25.182  0.00  0.00    +0.075 C 
BRANCH  22  26
ATOM     25  F   UNL     1      36.784 -21.009 -18.585  0.00  0.00    -0.204 F 
ATOM     26  C   UNL     1      35.340 -18.951 -21.861  0.00  0.00    +0.021 C 
ATOM     27  C   UNL     1      34.518 -19.854 -21.186  0.00  0.00    +0.004 C 
ATOM     28  C   UNL     1      36.650 -18.743 -21.427  0.00  0.00    +0.004 C 
ATOM     29  C   UNL     1      35.006 -20.550 -20.080  0.00  0.00    +0.030 C 
ATOM     30  C   UNL     1      37.138 -19.439 -20.321  0.00  0.00    +0.030 C 
ATOM     31  C   UNL     1      36.316 -20.341 -19.647  0.00  0.00    +0.140 C 
ENDBRANCH  22  26
ENDBRANCH  18  21
ENDBRANCH  17  18
ENDBRANCH   6  17
TORSDOF 5
ENDMDL
MODEL 3
REMARK VINA RESULT:     -10.8      4.636     10.373
REMARK  Name = 57336276
REMARK  5 active torsions:
REMARK  status: ('A' for Active; 'I' for Inactive)
REMARK    1  A    between atoms: C_2  and  C_16
REMARK    2  A    between atoms: C_6  and  O_17
REMARK    3  A    between atoms: O_17  and  C_18
REMARK    4  A    between atoms: C_18  and  C_21
REMARK    5  A    between atoms: C_22  and  C_26
REMARK                            x       y       z     vdW  Elec       q    Type
REMARK                         _______ _______ _______ _____ _____    ______ ____
ROOT
ATOM      1  N   UNL     1      34.890 -14.507 -21.815  0.00  0.00    -0.210 NA
ATOM      2  C   UNL     1      33.042 -12.949 -21.764  0.00  0.00    +0.073 C 
ATOM      3  C   UNL     1      32.413 -13.717 -20.791  0.00  0.00    +0.011 C 
ATOM      4  C   UNL     1      34.270 -13.383 -22.240  0.00  0.00    +0.107 C 
ATOM      5  C   UNL     1      33.021 -14.880 -20.329  0.00  0.00    +0.058 C 
ATOM      6  C   UNL     1      34.248 -15.228 -20.869  0.00  0.00    +0.225 C 
ENDROOT
BRANCH   2  16
ATOM      7  S   UNL     1      32.196  -8.393 -19.524  0.00  0.00    -0.007 S 
ATOM      8  O   UNL     1      33.297  -7.534 -19.133  0.00  0.00    -0.173 OA
ATOM      9  O   UNL     1      30.858  -8.166 -19.012  0.00  0.00    -0.173 OA
ATOM     10  O   UNL     1      32.488 -11.543 -23.488  0.00  0.00    -0.270 OA
ATOM     11  N   UNL     1      31.836 -10.849 -21.350  0.00  0.00    -0.272 N 
ATOM     12  C   UNL     1      32.116  -8.405 -21.307  0.00  0.00    +0.172 C 
ATOM     13  C   UNL     1      32.657 -10.078 -19.157  0.00  0.00    +0.172 C 
ATOM     14  C   UNL     1      31.285  -9.573 -21.816  0.00  0.00    +0.119 C 
ATOM     15  C   UNL     1      31.768 -11.067 -19.897  0.00  0.00    +0.119 C 
ATOM     16  C   UNL     1      32.427 -11.717 -22.272  0.00  0.00    +0.251 C 
ENDBRANCH   2  16
BRANCH   6  17
ATOM     17  O   UNL     1      34.867 -16.369 -20.430  0.00  0.00    -0.455 OA
BRANCH  17  18
ATOM     18  C   UNL     1      35.832 -16.948 -21.299  0.00  0.00    +0.238 C 
BRANCH  18  21
ATOM     19  O   UNL     1      34.159 -18.629 -24.125  0.00  0.00    -0.358 OA
ATOM     20  N   UNL     1      34.115 -19.663 -23.197  0.00  0.00    -0.078 NA
ATOM     21  C   UNL     1      35.134 -17.845 -22.280  0.00  0.00    +0.075 A 
ATOM     22  C   UNL     1      34.703 -19.171 -22.103  0.00  0.00    +0.122 A 
ATOM     23  C   UNL     1      34.768 -17.552 -23.567  0.00  0.00    +0.154 A 
ATOM     24  C   UNL     1      34.899 -16.362 -24.419  0.00  0.00    +0.075 C 
BRANCH  22  26
ATOM     25  F   UNL     1      35.214 -22.312 -17.534  0.00  0.00    -0.204 F 
ATOM     26  C   UNL     1      34.835 -19.982 -20.922  0.00  0.00    +0.021 C 
ATOM     27  C   UNL     1      33.700 -20.518 -20.313  0.00  0.00    +0.004 C 
ATOM     28  C   UNL     1      36.098 -20.234 -20.385  0.00  0.00    +0.004 C 
ATOM     29  C   UNL     1      33.828 -21.305 -19.169  0.00  0.00    +0.030 C 
ATOM     30  C   UNL     1      36.226 -21.021 -19.241  0.00  0.00    +0.030 C 
ATOM     31  C   UNL     1      35.091 -21.556 -18.633  0.00  0.00    +0.140 C 
ENDBRANCH  22  26
ENDBRANCH  18  21
ENDBRANCH  17  18
ENDBRANCH   6  17
TORSDOF 5
ENDMDL
MODEL 4
REMARK VINA RESULT:     -10.0      2.032      2.468
REMARK  Name = 57336276
REMARK  5 active torsions:
REMARK  status: ('A' for Active; 'I' for Inactive)
REMARK    1  A    between atoms: C_2  and  C_16
REMARK    2  A    between atoms: C_6  and  O_17
REMARK    3  A    between atoms: O_17  and  C_18
REMARK    4  A    between atoms: C_18  and  C_21
REMARK    5  A    between atoms: C_22  and  C_26
REMARK                            x       y       z     vdW  Elec       q    Type
REMARK                         _______ _______ _______ _____ _____    ______ ____
ROOT
ATOM      1  N   UNL     1      34.490 -13.352 -22.460  0.00  0.00    -0.210 NA
ATOM      2  C   UNL     1      34.243 -15.301 -23.869  0.00  0.00    +0.073 C 
ATOM      3  C   UNL     1      33.352 -14.609 -24.681  0.00  0.00    +0.011 C 
ATOM      4  C   UNL     1      34.781 -14.633 -22.779  0.00  0.00    +0.107 C 
ATOM      5  C   UNL     1      33.029 -13.289 -24.384  0.00  0.00    +0.058 C 
ATOM      6  C   UNL     1      33.621 -12.712 -23.272  0.00  0.00    +0.225 C 
ENDROOT
BRANCH   2  16
ATOM      7  S   UNL     1      34.871 -19.360 -20.768  0.00  0.00    -0.007 S 
ATOM      8  O   UNL     1      33.753 -19.930 -20.042  0.00  0.00    -0.173 OA
ATOM      9  O   UNL     1      36.237 -19.687 -20.403  0.00  0.00    -0.173 OA
ATOM     10  O   UNL     1      34.317 -17.108 -25.277  0.00  0.00    -0.270 OA
ATOM     11  N   UNL     1      35.226 -17.434 -23.146  0.00  0.00    -0.272 N 
ATOM     12  C   UNL     1      34.651 -19.737 -22.499  0.00  0.00    +0.172 C 
ATOM     13  C   UNL     1      34.695 -17.584 -20.743  0.00  0.00    +0.172 C 
ATOM     14  C   UNL     1      35.525 -18.850 -23.373  0.00  0.00    +0.119 C 
ATOM     15  C   UNL     1      35.564 -16.929 -21.806  0.00  0.00    +0.119 C 
ATOM     16  C   UNL     1      34.603 -16.695 -24.155  0.00  0.00    +0.251 C 
ENDBRANCH   2  16
BRANCH   6  17
ATOM     17  O   UNL     1      33.319 -11.413 -22.959  0.00  0.00    -0.455 OA
BRANCH  17  18
ATOM     18  C   UNL     1      31.988 -11.149 -22.532  0.00  0.00    +0.238 C 
BRANCH  18  21
ATOM     19  O   UNL     1      31.986 -11.281 -18.846  0.00  0.00    -0.358 OA
ATOM     20  N   UNL     1      31.969  -9.903 -19.016  0.00  0.00    -0.078 NA
ATOM     21  C   UNL     1      31.984 -10.931 -21.048  0.00  0.00    +0.075 A 
ATOM     22  C   UNL     1      31.968  -9.717 -20.339  0.00  0.00    +0.122 A 
ATOM     23  C   UNL     1      31.994 -11.883 -20.062  0.00  0.00    +0.154 A 
ATOM     24  C   UNL     1      32.011 -13.352 -20.065  0.00  0.00    +0.075 C 
BRANCH  22  26
ATOM     25  F   UNL     1      31.911  -4.567 -22.455  0.00  0.00    -0.204 F 
ATOM     26  C   UNL     1      31.953  -8.387 -20.886  0.00  0.00    +0.021 C 
ATOM     27  C   UNL     1      31.276  -8.129 -22.078  0.00  0.00    +0.004 C 
ATOM     28  C   UNL     1      32.617  -7.352 -20.224  0.00  0.00    +0.004 C 
ATOM     29  C   UNL     1      31.262  -6.839 -22.607  0.00  0.00    +0.030 C 
ATOM     30  C   UNL     1      32.602  -6.062 -20.755  0.00  0.00    +0.030 C 
ATOM     31  C   UNL     1      31.925  -5.806 -21.946  0.00  0.00    +0.140 C 
ENDBRANCH  22  26
ENDBRANCH  18  21
ENDBRANCH  17  18
ENDBRANCH   6  17
TORSDOF 5
ENDMDL
MODEL 5
REMARK VINA RESULT:      -9.7      7.341     11.335
REMARK  Name = 57336276
REMARK  5 active torsions:
REMARK  status: ('A' for Active; 'I' for Inactive)
REMARK    1  A    between atoms: C_2  and  C_16
REMARK    2  A    between atoms: C_6  and  O_17
REMARK    3  A    between atoms: O_17  and  C_18
REMARK    4  A    between atoms: C_18  and  C_21
REMARK    5  A    between atoms: C_22  and  C_26
REMARK                            x       y       z     vdW  Elec       q    Type
REMARK                         _______ _______ _______ _____ _____    ______ ____
ROOT
ATOM      1  N   UNL     1      32.509 -21.385 -18.605  0.00  0.00    -0.210 NA
ATOM      2  C   UNL     1      33.004 -23.006 -16.881  0.00  0.00    +0.073 C 
ATOM      3  C   UNL     1      34.148 -23.396 -17.567  0.00  0.00    +0.011 C 
ATOM      4  C   UNL     1      32.224 -22.004 -17.437  0.00  0.00    +0.107 C 
ATOM      5  C   UNL     1      34.474 -22.782 -18.771  0.00  0.00    +0.058 C 
ATOM      6  C   UNL     1      33.629 -21.791 -19.243  0.00  0.00    +0.225 C 
ENDROOT
BRANCH   2  16
ATOM      7  S   UNL     1      35.737 -23.940 -12.621  0.00  0.00    -0.007 S 
ATOM      8  O   UNL     1      36.235 -22.857 -11.797  0.00  0.00    -0.173 OA
ATOM      9  O   UNL     1      36.256 -25.286 -12.472  0.00  0.00    -0.173 OA
ATOM     10  O   UNL     1      31.445 -23.564 -15.295  0.00  0.00    -0.270 OA
ATOM     11  N   UNL     1      33.639 -24.246 -14.858  0.00  0.00    -0.272 N 
ATOM     12  C   UNL     1      33.963 -24.003 -12.431  0.00  0.00    +0.172 C 
ATOM     13  C   UNL     1      35.916 -23.458 -14.330  0.00  0.00    +0.172 C 
ATOM     14  C   UNL     1      33.315 -24.812 -13.545  0.00  0.00    +0.119 C 
ATOM     15  C   UNL     1      35.058 -24.325 -15.240  0.00  0.00    +0.119 C 
ATOM     16  C   UNL     1      32.632 -23.634 -15.608  0.00  0.00    +0.251 C 
ENDBRANCH   2  16
BRANCH   6  17
ATOM     17  O   UNL     1      33.929 -21.171 -20.427  0.00  0.00    -0.455 OA
BRANCH  17  18
ATOM     18  C   UNL     1      34.062 -19.755 -20.393  0.00  0.00    +0.238 C 
BRANCH  18  21
ATOM     19  O   UNL     1      37.719 -19.271 -20.414  0.00  0.00    -0.358 OA
ATOM     20  N   UNL     1      37.381 -18.444 -21.478  0.00  0.00    -0.078 NA
ATOM     21  C   UNL     1      35.501 -19.392 -20.612  0.00  0.00    +0.075 A 
ATOM     22  C   UNL     1      36.052 -18.532 -21.577  0.00  0.00    +0.122 A 
ATOM     23  C   UNL     1      36.591 -19.830 -19.906  0.00  0.00    +0.154 A 
ATOM     24  C   UNL     1      36.769 -20.739 -18.766  0.00  0.00    +0.075 C 
BRANCH  22  26
ATOM     25  F   UNL     1      33.333 -15.670 -25.503  0.00  0.00    -0.204 F 
ATOM     26  C   UNL     1      35.349 -17.792 -22.592  0.00  0.00    +0.021 C 
ATOM     27  C   UNL     1      34.723 -18.467 -23.639  0.00  0.00    +0.004 C 
ATOM     28  C   UNL     1      35.294 -16.399 -22.529  0.00  0.00    +0.004 C 
ATOM     29  C   UNL     1      34.041 -17.750 -24.622  0.00  0.00    +0.030 C 
ATOM     30  C   UNL     1      34.613 -15.682 -23.513  0.00  0.00    +0.030 C 
ATOM     31  C   UNL     1      33.987 -16.358 -24.559  0.00  0.00    +0.140 C 
ENDBRANCH  22  26
ENDBRANCH  18  21
ENDBRANCH  17  18
ENDBRANCH   6  17
TORSDOF 5
ENDMDL
MODEL 6
REMARK VINA RESULT:      -9.5      5.067      9.832
REMARK  Name = 57336276
REMARK  5 active torsions:
REMARK  status: ('A' for Active; 'I' for Inactive)
REMARK    1  A    between atoms: C_2  and  C_16
REMARK    2  A    between atoms: C_6  and  O_17
REMARK    3  A    between atoms: O_17  and  C_18
REMARK    4  A    between atoms: C_18  and  C_21
REMARK    5  A    between atoms: C_22  and  C_26
REMARK                            x       y       z     vdW  Elec       q    Type
REMARK                         _______ _______ _______ _____ _____    ______ ____
ROOT
ATOM      1  N   UNL     1      32.699  -8.307 -24.177  0.00  0.00    -0.210 NA
ATOM      2  C   UNL     1      33.386  -5.991 -24.277  0.00  0.00    +0.073 C 
ATOM      3  C   UNL     1      34.596  -6.317 -23.675  0.00  0.00    +0.011 C 
ATOM      4  C   UNL     1      32.479  -7.014 -24.505  0.00  0.00    +0.107 C 
ATOM      5  C   UNL     1      34.859  -7.637 -23.324  0.00  0.00    +0.058 C 
ATOM      6  C   UNL     1      33.886  -8.585 -23.594  0.00  0.00    +0.225 C 
ENDROOT
BRANCH   2  16
ATOM      7  S   UNL     1      32.673  -3.813 -28.885  0.00  0.00    -0.007 S 
ATOM      8  O   UNL     1      31.534  -4.162 -29.712  0.00  0.00    -0.173 OA
ATOM      9  O   UNL     1      33.809  -3.106 -29.446  0.00  0.00    -0.173 OA
ATOM     10  O   UNL     1      32.489  -3.932 -23.819  0.00  0.00    -0.270 OA
ATOM     11  N   UNL     1      33.468  -4.175 -25.930  0.00  0.00    -0.272 N 
ATOM     12  C   UNL     1      32.071  -2.880 -27.487  0.00  0.00    +0.172 C 
ATOM     13  C   UNL     1      33.270  -5.307 -28.112  0.00  0.00    +0.172 C 
ATOM     14  C   UNL     1      33.104  -2.826 -26.372  0.00  0.00    +0.119 C 
ATOM     15  C   UNL     1      34.174  -4.992 -26.929  0.00  0.00    +0.119 C 
ATOM     16  C   UNL     1      33.079  -4.608 -24.660  0.00  0.00    +0.251 C 
ENDBRANCH   2  16
BRANCH   6  17
ATOM     17  O   UNL     1      34.121  -9.893 -23.257  0.00  0.00    -0.455 OA
BRANCH  17  18
ATOM     18  C   UNL     1      33.140 -10.843 -23.654  0.00  0.00    +0.238 C 
BRANCH  18  21
ATOM     19  O   UNL     1      31.584 -11.920 -20.488  0.00  0.00    -0.358 OA
ATOM     20  N   UNL     1      32.087 -13.143 -20.913  0.00  0.00    -0.078 NA
ATOM     21  C   UNL     1      32.599 -11.528 -22.434  0.00  0.00    +0.075 A 
ATOM     22  C   UNL     1      32.689 -12.885 -22.077  0.00  0.00    +0.122 A 
ATOM     23  C   UNL     1      31.895 -10.966 -21.401  0.00  0.00    +0.154 A 
ATOM     24  C   UNL     1      31.435  -9.602 -21.105  0.00  0.00    +0.075 C 
BRANCH  22  26
ATOM     25  F   UNL     1      35.174 -16.974 -24.924  0.00  0.00    -0.204 F 
ATOM     26  C   UNL     1      33.331 -13.941 -22.812  0.00  0.00    +0.021 C 
ATOM     27  C   UNL     1      32.977 -14.182 -24.140  0.00  0.00    +0.004 C 
ATOM     28  C   UNL     1      34.309 -14.726 -22.199  0.00  0.00    +0.004 C 
ATOM     29  C   UNL     1      33.600 -15.206 -24.853  0.00  0.00    +0.030 C 
ATOM     30  C   UNL     1      34.931 -15.750 -22.912  0.00  0.00    +0.030 C 
ATOM     31  C   UNL     1      34.577 -15.990 -24.239  0.00  0.00    +0.140 C 
ENDBRANCH  22  26
ENDBRANCH  18  21
ENDBRANCH  17  18
ENDBRANCH   6  17
TORSDOF 5
ENDMDL
MODEL 7
REMARK VINA RESULT:      -9.5      2.123      2.938
REMARK  Name = 57336276
REMARK  5 active torsions:
REMARK  status: ('A' for Active; 'I' for Inactive)
REMARK    1  A    between atoms: C_2  and  C_16
REMARK    2  A    between atoms: C_6  and  O_17
REMARK    3  A    between atoms: O_17  and  C_18
REMARK    4  A    between atoms: C_18  and  C_21
REMARK    5  A    between atoms: C_22  and  C_26
REMARK                            x       y       z     vdW  Elec       q    Type
REMARK                         _______ _______ _______ _____ _____    ______ ____
ROOT
ATOM      1  N   UNL     1      33.318 -11.859 -24.322  0.00  0.00    -0.210 NA
ATOM      2  C   UNL     1      33.386 -14.241 -23.914  0.00  0.00    +0.073 C 
ATOM      3  C   UNL     1      32.908 -14.040 -22.624  0.00  0.00    +0.011 C 
ATOM      4  C   UNL     1      33.572 -13.127 -24.718  0.00  0.00    +0.107 C 
ATOM      5  C   UNL     1      32.635 -12.750 -22.182  0.00  0.00    +0.058 C 
ATOM      6  C   UNL     1      32.855 -11.703 -23.063  0.00  0.00    +0.225 C 
ENDROOT
BRANCH   2  16
ATOM      7  S   UNL     1      35.367 -18.371 -21.566  0.00  0.00    -0.007 S 
ATOM      8  O   UNL     1      34.642 -19.054 -20.512  0.00  0.00    -0.173 OA
ATOM      9  O   UNL     1      36.783 -18.608 -21.768  0.00  0.00    -0.173 OA
ATOM     10  O   UNL     1      33.013 -15.976 -25.366  0.00  0.00    -0.270 OA
ATOM     11  N   UNL     1      34.683 -16.322 -23.765  0.00  0.00    -0.272 N 
ATOM     12  C   UNL     1      34.522 -18.688 -23.107  0.00  0.00    +0.172 C 
ATOM     13  C   UNL     1      35.119 -16.615 -21.355  0.00  0.00    +0.172 C 
ATOM     14  C   UNL     1      34.948 -17.701 -24.184  0.00  0.00    +0.119 C 
ATOM     15  C   UNL     1      35.480 -15.852 -22.621  0.00  0.00    +0.119 C 
ATOM     16  C   UNL     1      33.684 -15.590 -24.410  0.00  0.00    +0.251 C 
ENDBRANCH   2  16
BRANCH   6  17
ATOM     17  O   UNL     1      32.593 -10.423 -22.651  0.00  0.00    -0.455 OA
BRANCH  17  18
ATOM     18  C   UNL     1      32.639  -9.408 -23.646  0.00  0.00    +0.238 C 
BRANCH  18  21
ATOM     19  O   UNL     1      35.882  -7.702 -23.222  0.00  0.00    -0.358 OA
ATOM     20  N   UNL     1      35.044  -6.705 -22.738  0.00  0.00    -0.078 NA
ATOM     21  C   UNL     1      33.809  -8.508 -23.376  0.00  0.00    +0.075 A 
ATOM     22  C   UNL     1      33.812  -7.209 -22.840  0.00  0.00    +0.122 A 
ATOM     23  C   UNL     1      35.136  -8.771 -23.598  0.00  0.00    +0.154 A 
ATOM     24  C   UNL     1      35.870  -9.924 -24.137  0.00  0.00    +0.075 C 
BRANCH  22  26
ATOM     25  F   UNL     1      29.407  -4.211 -21.224  0.00  0.00    -0.204 F 
ATOM     26  C   UNL     1      32.674  -6.434 -22.422  0.00  0.00    +0.021 C 
ATOM     27  C   UNL     1      32.167  -6.578 -21.130  0.00  0.00    +0.004 C 
ATOM     28  C   UNL     1      32.075  -5.539 -23.309  0.00  0.00    +0.004 C 
ATOM     29  C   UNL     1      31.064  -5.827 -20.725  0.00  0.00    +0.030 C 
ATOM     30  C   UNL     1      30.972  -4.788 -22.904  0.00  0.00    +0.030 C 
ATOM     31  C   UNL     1      30.466  -4.932 -21.613  0.00  0.00    +0.140 C 
ENDBRANCH  22  26
ENDBRANCH  18  21
ENDBRANCH  17  18
ENDBRANCH   6  17
TORSDOF 5
ENDMDL
MODEL 8
REMARK VINA RESULT:      -9.4      5.004      9.916
REMARK  Name = 57336276
REMARK  5 active torsions:
REMARK  status: ('A' for Active; 'I' for Inactive)
REMARK    1  A    between atoms: C_2  and  C_16
REMARK    2  A    between atoms: C_6  and  O_17
REMARK    3  A    between atoms: O_17  and  C_18
REMARK    4  A    between atoms: C_18  and  C_21
REMARK    5  A    between atoms: C_22  and  C_26
REMARK                            x       y       z     vdW  Elec       q    Type
REMARK                         _______ _______ _______ _____ _____    ______ ____
ROOT
ATOM      1  N   UNL     1      33.242  -7.799 -22.220  0.00  0.00    -0.210 NA
ATOM      2  C   UNL     1      31.762  -6.206 -23.277  0.00  0.00    +0.073 C 
ATOM      3  C   UNL     1      31.265  -7.208 -24.104  0.00  0.00    +0.011 C 
ATOM      4  C   UNL     1      32.742  -6.551 -22.359  0.00  0.00    +0.107 C 
ATOM      5  C   UNL     1      31.755  -8.504 -23.990  0.00  0.00    +0.058 C 
ATOM      6  C   UNL     1      32.735  -8.745 -23.041  0.00  0.00    +0.225 C 
ENDROOT
BRANCH   2  16
ATOM      7  S   UNL     1      31.797  -2.839 -27.170  0.00  0.00    -0.007 S 
ATOM      8  O   UNL     1      31.016  -3.071 -28.369  0.00  0.00    -0.173 OA
ATOM      9  O   UNL     1      32.854  -1.846 -27.152  0.00  0.00    -0.173 OA
ATOM     10  O   UNL     1      30.344  -4.532 -22.616  0.00  0.00    -0.270 OA
ATOM     11  N   UNL     1      31.863  -3.978 -24.307  0.00  0.00    -0.272 N 
ATOM     12  C   UNL     1      30.664  -2.473 -25.840  0.00  0.00    +0.172 C 
ATOM     13  C   UNL     1      32.490  -4.402 -26.654  0.00  0.00    +0.172 C 
ATOM     14  C   UNL     1      31.336  -2.622 -24.483  0.00  0.00    +0.119 C 
ATOM     15  C   UNL     1      32.965  -4.344 -25.209  0.00  0.00    +0.119 C 
ATOM     16  C   UNL     1      31.266  -4.829 -23.373  0.00  0.00    +0.251 C 
ENDBRANCH   2  16
BRANCH   6  17
ATOM     17  O   UNL     1      33.234 -10.015 -22.908  0.00  0.00    -0.455 OA
BRANCH  17  18
ATOM     18  C   UNL     1      32.293 -11.080 -22.955  0.00  0.00    +0.238 C 
BRANCH  18  21
ATOM     19  O   UNL     1      32.064 -12.343 -19.497  0.00  0.00    -0.358 OA
ATOM     20  N   UNL     1      32.679 -13.438 -20.091  0.00  0.00    -0.078 NA
ATOM     21  C   UNL     1      32.320 -11.817 -21.648  0.00  0.00    +0.075 A 
ATOM     22  C   UNL     1      32.822 -13.101 -21.375  0.00  0.00    +0.122 A 
ATOM     23  C   UNL     1      31.856 -11.384 -20.434  0.00  0.00    +0.154 A 
ATOM     24  C   UNL     1      31.210 -10.147 -19.972  0.00  0.00    +0.075 C 
BRANCH  22  26
ATOM     25  F   UNL     1      35.184 -16.643 -24.964  0.00  0.00    -0.204 F 
ATOM     26  C   UNL     1      33.432 -14.016 -22.303  0.00  0.00    +0.021 C 
ATOM     27  C   UNL     1      33.011 -14.047 -23.632  0.00  0.00    +0.004 C 
ATOM     28  C   UNL     1      34.446 -14.874 -21.873  0.00  0.00    +0.004 C 
ATOM     29  C   UNL     1      33.604 -14.934 -24.531  0.00  0.00    +0.030 C 
ATOM     30  C   UNL     1      35.037 -15.761 -22.772  0.00  0.00    +0.030 C 
ATOM     31  C   UNL     1      34.616 -15.791 -24.101  0.00  0.00    +0.140 C 
ENDBRANCH  22  26
ENDBRANCH  18  21
ENDBRANCH  17  18
ENDBRANCH   6  17
TORSDOF 5
ENDMDL
MODEL 9
REMARK VINA RESULT:      -9.2      2.358      3.689
REMARK  Name = 57336276
REMARK  5 active torsions:
REMARK  status: ('A' for Active; 'I' for Inactive)
REMARK    1  A    between atoms: C_2  and  C_16
REMARK    2  A    between atoms: C_6  and  O_17
REMARK    3  A    between atoms: O_17  and  C_18
REMARK    4  A    between atoms: C_18  and  C_21
REMARK    5  A    between atoms: C_22  and  C_26
REMARK                            x       y       z     vdW  Elec       q    Type
REMARK                         _______ _______ _______ _____ _____    ______ ____
ROOT
ATOM      1  N   UNL     1      33.486 -11.880 -24.330  0.00  0.00    -0.210 NA
ATOM      2  C   UNL     1      33.432 -14.270 -23.966  0.00  0.00    +0.073 C 
ATOM      3  C   UNL     1      32.887 -14.072 -22.703  0.00  0.00    +0.011 C 
ATOM      4  C   UNL     1      33.712 -13.151 -24.735  0.00  0.00    +0.107 C 
ATOM      5  C   UNL     1      32.640 -12.779 -22.252  0.00  0.00    +0.058 C 
ATOM      6  C   UNL     1      32.956 -11.728 -23.097  0.00  0.00    +0.225 C 
ENDROOT
BRANCH   2  16
ATOM      7  S   UNL     1      35.378 -18.438 -21.658  0.00  0.00    -0.007 S 
ATOM      8  O   UNL     1      34.655 -19.114 -20.598  0.00  0.00    -0.173 OA
ATOM      9  O   UNL     1      36.788 -18.696 -21.878  0.00  0.00    -0.173 OA
ATOM     10  O   UNL     1      33.016 -15.993 -25.420  0.00  0.00    -0.270 OA
ATOM     11  N   UNL     1      34.699 -16.371 -23.840  0.00  0.00    -0.272 N 
ATOM     12  C   UNL     1      34.511 -18.736 -23.189  0.00  0.00    +0.172 C 
ATOM     13  C   UNL     1      35.159 -16.680 -21.437  0.00  0.00    +0.172 C 
ATOM     14  C   UNL     1      34.939 -17.752 -24.268  0.00  0.00    +0.119 C 
ATOM     15  C   UNL     1      35.516 -15.917 -22.704  0.00  0.00    +0.119 C 
ATOM     16  C   UNL     1      33.704 -15.621 -24.471  0.00  0.00    +0.251 C 
ENDBRANCH   2  16
BRANCH   6  17
ATOM     17  O   UNL     1      32.722 -10.445 -22.676  0.00  0.00    -0.455 OA
BRANCH  17  18
ATOM     18  C   UNL     1      33.225  -9.399 -23.498  0.00  0.00    +0.238 C 
BRANCH  18  21
ATOM     19  O   UNL     1      31.671  -6.064 -23.242  0.00  0.00    -0.358 OA
ATOM     20  N   UNL     1      31.414  -6.525 -21.957  0.00  0.00    -0.078 NA
ATOM     21  C   UNL     1      32.535  -8.117 -23.138  0.00  0.00    +0.075 A 
ATOM     22  C   UNL     1      31.939  -7.753 -21.918  0.00  0.00    +0.122 A 
ATOM     23  C   UNL     1      32.339  -7.020 -23.936  0.00  0.00    +0.154 A 
ATOM     24  C   UNL     1      32.692  -6.693 -25.324  0.00  0.00    +0.075 C 
BRANCH  22  26
ATOM     25  F   UNL     1      31.615 -10.804 -17.272  0.00  0.00    -0.204 F 
ATOM     26  C   UNL     1      31.855  -8.541 -20.718  0.00  0.00    +0.021 C 
ATOM     27  C   UNL     1      32.595  -8.179 -19.592  0.00  0.00    +0.004 C 
ATOM     28  C   UNL     1      31.035  -9.669 -20.679  0.00  0.00    +0.004 C 
ATOM     29  C   UNL     1      32.513  -8.943 -18.428  0.00  0.00    +0.030 C 
ATOM     30  C   UNL     1      30.954 -10.433 -19.514  0.00  0.00    +0.030 C 
ATOM     31  C   UNL     1      31.693 -10.071 -18.390  0.00  0.00    +0.140 C 
ENDBRANCH  22  26
ENDBRANCH  18  21
ENDBRANCH  17  18
ENDBRANCH   6  17
TORSDOF 5
ENDMDL
