MODEL 1
REMARK VINA RESULT:     -12.2      0.000      0.000
REMARK  Name = 44814409
REMARK  5 active torsions:
REMARK  status: ('A' for Active; 'I' for Inactive)
REMARK    1  A    between atoms: N_2  and  C_22
REMARK    2  A    between atoms: C_3  and  C_7
REMARK    3  A    between atoms: C_9  and  C_14
REMARK    4  A    between atoms: C_21  and  C_26
REMARK    5  A    between atoms: C_29  and  N_33
REMARK                            x       y       z     vdW  Elec       q    Type
REMARK                         _______ _______ _______ _____ _____    ______ ____
ROOT
ATOM      1  O   UNL     1      32.656 -21.893 -19.759  0.00  0.00    -0.267 OA
ATOM      2  N   UNL     1      33.674 -21.966 -17.641  0.00  0.00    -0.278 N 
ATOM      3  C   UNL     1      33.589 -21.647 -19.003  0.00  0.00    +0.275 C 
ATOM      4  H   UNL     1      34.502 -21.690 -17.184  0.00  0.00    +0.155 HD
ENDROOT
BRANCH   3   7
ATOM      5  F   UNL     1      37.844 -18.813 -21.173  0.00  0.00    -0.202 F 
ATOM      6  N   UNL     1      34.472 -19.998 -20.515  0.00  0.00    -0.399 NA
ATOM      7  C   UNL     1      34.755 -20.910 -19.559  0.00  0.00    +0.167 C 
ATOM      8  C   UNL     1      36.034 -21.177 -19.095  0.00  0.00    +0.092 C 
ATOM      9  C   UNL     1      35.523 -19.320 -21.028  0.00  0.00    +0.162 C 
ATOM     10  C   UNL     1      37.088 -20.459 -19.648  0.00  0.00    +0.014 C 
ATOM     11  C   UNL     1      36.837 -19.511 -20.633  0.00  0.00    +0.166 C 
BRANCH   9  14
ATOM     12  F   UNL     1      34.853 -20.088 -23.641  0.00  0.00    -0.204 F 
ATOM     13  F   UNL     1      35.491 -16.564 -20.510  0.00  0.00    -0.204 F 
ATOM     14  C   UNL     1      35.182 -18.354 -22.046  0.00  0.00    +0.087 C 
ATOM     15  C   UNL     1      34.856 -18.782 -23.332  0.00  0.00    +0.145 C 
ATOM     16  C   UNL     1      35.179 -16.992 -21.742  0.00  0.00    +0.145 C 
ATOM     17  C   UNL     1      34.526 -17.848 -24.315  0.00  0.00    +0.030 C 
ATOM     18  C   UNL     1      34.850 -16.058 -22.724  0.00  0.00    +0.030 C 
ATOM     19  C   UNL     1      34.524 -16.487 -24.012  0.00  0.00    +0.005 C 
ENDBRANCH   9  14
ENDBRANCH   3   7
BRANCH   2  22
ATOM     20  N   UNL     1      30.398 -22.997 -16.335  0.00  0.00    -0.241 NA
ATOM     21  C   UNL     1      33.102 -23.517 -15.854  0.00  0.00    -0.006 C 
ATOM     22  C   UNL     1      32.730 -22.624 -16.852  0.00  0.00    +0.066 C 
ATOM     23  C   UNL     1      32.124 -24.150 -15.096  0.00  0.00    +0.018 C 
ATOM     24  C   UNL     1      31.378 -22.401 -17.052  0.00  0.00    +0.113 C 
ATOM     25  C   UNL     1      30.798 -23.859 -15.374  0.00  0.00    +0.099 C 
BRANCH  21  26
ATOM     26  C   UNL     1      34.541 -23.813 -15.577  0.00  0.00    +0.022 C 
ATOM     27  C   UNL     1      36.179 -24.605 -13.802  0.00  0.00    -0.002 C 
ATOM     28  C   UNL     1      34.704 -24.348 -14.142  0.00  0.00    +0.004 C 
ATOM     29  C   UNL     1      36.867 -22.811 -15.457  0.00  0.00    -0.065 C 
ATOM     30  C   UNL     1      35.393 -22.550 -15.794  0.00  0.00    -0.017 C 
ATOM     31  C   UNL     1      37.022 -23.342 -14.027  0.00  0.00    -0.022 C 
ATOM     32  C   UNL     1      36.320 -25.097 -12.361  0.00  0.00    -0.000 C 
BRANCH  29  33
ATOM     33  N   UNL     1      37.637 -21.579 -15.616  0.00  0.00    +0.382 N 
ATOM     34  H   UNL     1      37.783 -21.394 -16.608  0.00  0.00    -0.089 HD
ATOM     35  H   UNL     1      38.541 -21.681 -15.153  0.00  0.00    -0.089 HD
ATOM     36  H   UNL     1      37.126 -20.803 -15.196  0.00  0.00    -0.089 HD
ENDBRANCH  29  33
ENDBRANCH  21  26
ENDBRANCH   2  22
TORSDOF 5
ENDMDL
MODEL 2
REMARK VINA RESULT:      -9.8      9.380     15.271
REMARK  Name = 44814409
REMARK  5 active torsions:
REMARK  status: ('A' for Active; 'I' for Inactive)
REMARK    1  A    between atoms: N_2  and  C_22
REMARK    2  A    between atoms: C_3  and  C_7
REMARK    3  A    between atoms: C_9  and  C_14
REMARK    4  A    between atoms: C_21  and  C_26
REMARK    5  A    between atoms: C_29  and  N_33
REMARK                            x       y       z     vdW  Elec       q    Type
REMARK                         _______ _______ _______ _____ _____    ______ ____
ROOT
ATOM      1  O   UNL     1      35.502  -8.893 -23.609  0.00  0.00    -0.267 OA
ATOM      2  N   UNL     1      33.503  -7.844 -24.268  0.00  0.00    -0.278 N 
ATOM      3  C   UNL     1      34.279  -8.857 -23.687  0.00  0.00    +0.275 C 
ATOM      4  H   UNL     1      32.528  -7.979 -24.242  0.00  0.00    +0.155 HD
ENDROOT
BRANCH   3   7
ATOM      5  F   UNL     1      31.518 -13.162 -21.522  0.00  0.00    -0.202 F 
ATOM      6  N   UNL     1      33.938 -11.222 -23.415  0.00  0.00    -0.399 NA
ATOM      7  C   UNL     1      33.513  -9.982 -23.088  0.00  0.00    +0.167 C 
ATOM      8  C   UNL     1      32.437  -9.726 -22.252  0.00  0.00    +0.092 C 
ATOM      9  C   UNL     1      33.252 -12.254 -22.876  0.00  0.00    +0.162 C 
ATOM     10  C   UNL     1      31.756 -10.814 -21.718  0.00  0.00    +0.014 C 
ATOM     11  C   UNL     1      32.165 -12.106 -22.030  0.00  0.00    +0.166 C 
BRANCH   9  14
ATOM     12  F   UNL     1      32.586 -13.446 -25.325  0.00  0.00    -0.204 F 
ATOM     13  F   UNL     1      34.913 -13.758 -21.189  0.00  0.00    -0.204 F 
ATOM     14  C   UNL     1      33.736 -13.564 -23.247  0.00  0.00    +0.087 C 
ATOM     15  C   UNL     1      33.378 -14.117 -24.476  0.00  0.00    +0.145 C 
ATOM     16  C   UNL     1      34.561 -14.275 -22.375  0.00  0.00    +0.145 C 
ATOM     17  C   UNL     1      33.846 -15.382 -24.834  0.00  0.00    +0.030 C 
ATOM     18  C   UNL     1      35.028 -15.540 -22.732  0.00  0.00    +0.030 C 
ATOM     19  C   UNL     1      34.670 -16.093 -23.962  0.00  0.00    +0.005 C 
ENDBRANCH   9  14
ENDBRANCH   3   7
BRANCH   2  22
ATOM     20  N   UNL     1      35.510  -5.603 -26.376  0.00  0.00    -0.241 NA
ATOM     21  C   UNL     1      33.322  -5.447 -24.644  0.00  0.00    -0.006 C 
ATOM     22  C   UNL     1      33.942  -6.669 -24.876  0.00  0.00    +0.066 C 
ATOM     23  C   UNL     1      33.795  -4.302 -25.276  0.00  0.00    +0.018 C 
ATOM     24  C   UNL     1      35.022  -6.694 -25.744  0.00  0.00    +0.113 C 
ATOM     25  C   UNL     1      34.882  -4.433 -26.126  0.00  0.00    +0.099 C 
BRANCH  21  26
ATOM     26  C   UNL     1      32.149  -5.335 -23.723  0.00  0.00    +0.022 C 
ATOM     27  C   UNL     1      30.724  -3.710 -22.384  0.00  0.00    -0.002 C 
ATOM     28  C   UNL     1      31.886  -3.857 -23.378  0.00  0.00    +0.004 C 
ATOM     29  C   UNL     1      31.234  -6.016 -21.459  0.00  0.00    -0.065 C 
ATOM     30  C   UNL     1      32.398  -6.162 -22.449  0.00  0.00    -0.017 C 
ATOM     31  C   UNL     1      30.978  -4.543 -21.119  0.00  0.00    -0.022 C 
ATOM     32  C   UNL     1      30.507  -2.240 -22.027  0.00  0.00    -0.000 C 
BRANCH  29  33
ATOM     33  N   UNL     1      31.527  -6.763 -20.237  0.00  0.00    +0.382 N 
ATOM     34  H   UNL     1      32.530  -6.738 -20.055  0.00  0.00    -0.089 HD
ATOM     35  H   UNL     1      31.227  -7.732 -20.351  0.00  0.00    -0.089 HD
ATOM     36  H   UNL     1      31.028  -6.342 -19.453  0.00  0.00    -0.089 HD
ENDBRANCH  29  33
ENDBRANCH  21  26
ENDBRANCH   2  22
TORSDOF 5
ENDMDL
MODEL 3
REMARK VINA RESULT:      -9.8      9.376     15.309
REMARK  Name = 44814409
REMARK  5 active torsions:
REMARK  status: ('A' for Active; 'I' for Inactive)
REMARK    1  A    between atoms: N_2  and  C_22
REMARK    2  A    between atoms: C_3  and  C_7
REMARK    3  A    between atoms: C_9  and  C_14
REMARK    4  A    between atoms: C_21  and  C_26
REMARK    5  A    between atoms: C_29  and  N_33
REMARK                            x       y       z     vdW  Elec       q    Type
REMARK                         _______ _______ _______ _____ _____    ______ ____
ROOT
ATOM      1  O   UNL     1      35.504  -8.898 -23.611  0.00  0.00    -0.267 OA
ATOM      2  N   UNL     1      33.504  -7.848 -24.267  0.00  0.00    -0.278 N 
ATOM      3  C   UNL     1      34.280  -8.862 -23.688  0.00  0.00    +0.275 C 
ATOM      4  H   UNL     1      32.529  -7.983 -24.240  0.00  0.00    +0.155 HD
ENDROOT
BRANCH   3   7
ATOM      5  F   UNL     1      31.519 -13.167 -21.523  0.00  0.00    -0.202 F 
ATOM      6  N   UNL     1      33.940 -11.227 -23.416  0.00  0.00    -0.399 NA
ATOM      7  C   UNL     1      33.514  -9.987 -23.089  0.00  0.00    +0.167 C 
ATOM      8  C   UNL     1      32.438  -9.731 -22.254  0.00  0.00    +0.092 C 
ATOM      9  C   UNL     1      33.254 -12.259 -22.876  0.00  0.00    +0.162 C 
ATOM     10  C   UNL     1      31.757 -10.819 -21.719  0.00  0.00    +0.014 C 
ATOM     11  C   UNL     1      32.166 -12.110 -22.031  0.00  0.00    +0.166 C 
BRANCH   9  14
ATOM     12  F   UNL     1      34.914 -13.762 -21.188  0.00  0.00    -0.204 F 
ATOM     13  F   UNL     1      32.590 -13.451 -25.327  0.00  0.00    -0.204 F 
ATOM     14  C   UNL     1      33.738 -13.569 -23.247  0.00  0.00    +0.087 C 
ATOM     15  C   UNL     1      34.562 -14.280 -22.375  0.00  0.00    +0.145 C 
ATOM     16  C   UNL     1      33.381 -14.122 -24.477  0.00  0.00    +0.145 C 
ATOM     17  C   UNL     1      35.029 -15.545 -22.733  0.00  0.00    +0.030 C 
ATOM     18  C   UNL     1      33.848 -15.386 -24.835  0.00  0.00    +0.030 C 
ATOM     19  C   UNL     1      34.673 -16.097 -23.963  0.00  0.00    +0.005 C 
ENDBRANCH   9  14
ENDBRANCH   3   7
BRANCH   2  22
ATOM     20  N   UNL     1      35.511  -5.606 -26.375  0.00  0.00    -0.241 NA
ATOM     21  C   UNL     1      33.323  -5.450 -24.642  0.00  0.00    -0.006 C 
ATOM     22  C   UNL     1      33.943  -6.672 -24.875  0.00  0.00    +0.066 C 
ATOM     23  C   UNL     1      33.796  -4.305 -25.274  0.00  0.00    +0.018 C 
ATOM     24  C   UNL     1      35.023  -6.697 -25.743  0.00  0.00    +0.113 C 
ATOM     25  C   UNL     1      34.883  -4.436 -26.124  0.00  0.00    +0.099 C 
BRANCH  21  26
ATOM     26  C   UNL     1      32.151  -5.339 -23.721  0.00  0.00    +0.022 C 
ATOM     27  C   UNL     1      30.727  -3.714 -22.381  0.00  0.00    -0.002 C 
ATOM     28  C   UNL     1      31.887  -3.861 -23.376  0.00  0.00    +0.004 C 
ATOM     29  C   UNL     1      31.237  -6.020 -21.456  0.00  0.00    -0.065 C 
ATOM     30  C   UNL     1      32.400  -6.166 -22.446  0.00  0.00    -0.017 C 
ATOM     31  C   UNL     1      30.981  -4.548 -21.116  0.00  0.00    -0.022 C 
ATOM     32  C   UNL     1      30.509  -2.244 -22.024  0.00  0.00    -0.000 C 
BRANCH  29  33
ATOM     33  N   UNL     1      31.531  -6.767 -20.235  0.00  0.00    +0.382 N 
ATOM     34  H   UNL     1      32.385  -6.406 -19.811  0.00  0.00    -0.089 HD
ATOM     35  H   UNL     1      31.655  -7.755 -20.462  0.00  0.00    -0.089 HD
ATOM     36  H   UNL     1      30.756  -6.665 -19.579  0.00  0.00    -0.089 HD
ENDBRANCH  29  33
ENDBRANCH  21  26
ENDBRANCH   2  22
TORSDOF 5
ENDMDL
MODEL 4
REMARK VINA RESULT:      -9.6      9.202     14.882
REMARK  Name = 44814409
REMARK  5 active torsions:
REMARK  status: ('A' for Active; 'I' for Inactive)
REMARK    1  A    between atoms: N_2  and  C_22
REMARK    2  A    between atoms: C_3  and  C_7
REMARK    3  A    between atoms: C_9  and  C_14
REMARK    4  A    between atoms: C_21  and  C_26
REMARK    5  A    between atoms: C_29  and  N_33
REMARK                            x       y       z     vdW  Elec       q    Type
REMARK                         _______ _______ _______ _____ _____    ______ ____
ROOT
ATOM      1  O   UNL     1      34.909  -8.759 -23.985  0.00  0.00    -0.267 OA
ATOM      2  N   UNL     1      32.812  -7.760 -24.353  0.00  0.00    -0.278 N 
ATOM      3  C   UNL     1      33.687  -8.747 -23.879  0.00  0.00    +0.275 C 
ATOM      4  H   UNL     1      31.855  -7.911 -24.177  0.00  0.00    +0.155 HD
ENDROOT
BRANCH   3   7
ATOM      5  F   UNL     1      31.389 -13.052 -21.227  0.00  0.00    -0.202 F 
ATOM      6  N   UNL     1      33.566 -11.097 -23.383  0.00  0.00    -0.399 NA
ATOM      7  C   UNL     1      33.044  -9.872 -23.151  0.00  0.00    +0.167 C 
ATOM      8  C   UNL     1      31.978  -9.632 -22.298  0.00  0.00    +0.092 C 
ATOM      9  C   UNL     1      32.991 -12.129 -22.727  0.00  0.00    +0.162 C 
ATOM     10  C   UNL     1      31.413 -10.720 -21.641  0.00  0.00    +0.014 C 
ATOM     11  C   UNL     1      31.924 -11.996 -21.854  0.00  0.00    +0.166 C 
BRANCH   9  14
ATOM     12  F   UNL     1      32.626 -13.439 -25.179  0.00  0.00    -0.204 F 
ATOM     13  F   UNL     1      34.560 -13.479 -20.834  0.00  0.00    -0.204 F 
ATOM     14  C   UNL     1      33.576 -13.422 -22.999  0.00  0.00    +0.087 C 
ATOM     15  C   UNL     1      33.367 -14.035 -24.233  0.00  0.00    +0.145 C 
ATOM     16  C   UNL     1      34.350 -14.055 -22.026  0.00  0.00    +0.145 C 
ATOM     17  C   UNL     1      33.933 -15.283 -24.496  0.00  0.00    +0.030 C 
ATOM     18  C   UNL     1      34.915 -15.304 -22.288  0.00  0.00    +0.030 C 
ATOM     19  C   UNL     1      34.705 -15.918 -23.523  0.00  0.00    +0.005 C 
ENDBRANCH   9  14
ENDBRANCH   3   7
BRANCH   2  22
ATOM     20  N   UNL     1      33.838  -5.561 -27.112  0.00  0.00    -0.241 NA
ATOM     21  C   UNL     1      33.070  -5.341 -24.433  0.00  0.00    -0.006 C 
ATOM     22  C   UNL     1      33.130  -6.589 -25.041  0.00  0.00    +0.066 C 
ATOM     23  C   UNL     1      33.395  -4.202 -25.162  0.00  0.00    +0.018 C 
ATOM     24  C   UNL     1      33.515  -6.645 -26.371  0.00  0.00    +0.113 C 
ATOM     25  C   UNL     1      33.769  -4.365 -26.486  0.00  0.00    +0.099 C 
BRANCH  21  26
ATOM     26  C   UNL     1      32.662  -5.195 -23.002  0.00  0.00    +0.022 C 
ATOM     27  C   UNL     1      32.804  -6.257 -20.697  0.00  0.00    -0.002 C 
ATOM     28  C   UNL     1      33.254  -6.342 -22.163  0.00  0.00    +0.004 C 
ATOM     29  C   UNL     1      30.680  -5.078 -21.426  0.00  0.00    -0.065 C 
ATOM     30  C   UNL     1      31.127  -5.166 -22.891  0.00  0.00    -0.017 C 
ATOM     31  C   UNL     1      31.272  -6.223 -20.596  0.00  0.00    -0.022 C 
ATOM     32  C   UNL     1      33.371  -7.426 -19.893  0.00  0.00    -0.000 C 
BRANCH  29  33
ATOM     33  N   UNL     1      29.221  -5.114 -21.350  0.00  0.00    +0.382 N 
ATOM     34  H   UNL     1      28.865  -5.832 -21.980  0.00  0.00    -0.089 HD
ATOM     35  H   UNL     1      28.844  -4.205 -21.623  0.00  0.00    -0.089 HD
ATOM     36  H   UNL     1      28.934  -5.327 -20.395  0.00  0.00    -0.089 HD
ENDBRANCH  29  33
ENDBRANCH  21  26
ENDBRANCH   2  22
TORSDOF 5
ENDMDL
MODEL 5
REMARK VINA RESULT:      -9.5      6.645     12.168
REMARK  Name = 44814409
REMARK  5 active torsions:
REMARK  status: ('A' for Active; 'I' for Inactive)
REMARK    1  A    between atoms: N_2  and  C_22
REMARK    2  A    between atoms: C_3  and  C_7
REMARK    3  A    between atoms: C_9  and  C_14
REMARK    4  A    between atoms: C_21  and  C_26
REMARK    5  A    between atoms: C_29  and  N_33
REMARK                            x       y       z     vdW  Elec       q    Type
REMARK                         _______ _______ _______ _____ _____    ______ ____
ROOT
ATOM      1  O   UNL     1      31.648 -13.608 -20.640  0.00  0.00    -0.267 OA
ATOM      2  N   UNL     1      32.728 -11.638 -21.337  0.00  0.00    -0.278 N 
ATOM      3  C   UNL     1      32.417 -13.005 -21.380  0.00  0.00    +0.275 C 
ATOM      4  H   UNL     1      33.370 -11.320 -22.013  0.00  0.00    +0.155 HD
ENDROOT
BRANCH   3   7
ATOM      5  F   UNL     1      34.936 -16.003 -25.318  0.00  0.00    -0.202 F 
ATOM      6  N   UNL     1      33.589 -14.976 -22.103  0.00  0.00    -0.399 NA
ATOM      7  C   UNL     1      33.084 -13.775 -22.463  0.00  0.00    +0.167 C 
ATOM      8  C   UNL     1      33.159 -13.255 -23.745  0.00  0.00    +0.092 C 
ATOM      9  C   UNL     1      34.197 -15.688 -23.078  0.00  0.00    +0.162 C 
ATOM     10  C   UNL     1      33.793 -14.017 -24.720  0.00  0.00    +0.014 C 
ATOM     11  C   UNL     1      34.324 -15.258 -24.389  0.00  0.00    +0.166 C 
BRANCH   9  14
ATOM     12  F   UNL     1      35.583 -16.001 -20.660  0.00  0.00    -0.204 F 
ATOM     13  F   UNL     1      33.894 -18.005 -24.630  0.00  0.00    -0.204 F 
ATOM     14  C   UNL     1      34.723 -16.966 -22.657  0.00  0.00    +0.087 C 
ATOM     15  C   UNL     1      35.406 -17.074 -21.446  0.00  0.00    +0.145 C 
ATOM     16  C   UNL     1      34.547 -18.092 -23.462  0.00  0.00    +0.145 C 
ATOM     17  C   UNL     1      35.914 -18.308 -21.040  0.00  0.00    +0.030 C 
ATOM     18  C   UNL     1      35.055 -19.326 -23.056  0.00  0.00    +0.030 C 
ATOM     19  C   UNL     1      35.739 -19.434 -21.845  0.00  0.00    +0.005 C 
ENDBRANCH   9  14
ENDBRANCH   3   7
BRANCH   2  22
ATOM     20  N   UNL     1      31.413 -10.153 -18.244  0.00  0.00    -0.241 NA
ATOM     21  C   UNL     1      32.084  -9.345 -20.835  0.00  0.00    -0.006 C 
ATOM     22  C   UNL     1      32.238 -10.674 -20.456  0.00  0.00    +0.066 C 
ATOM     23  C   UNL     1      31.594  -8.420 -19.920  0.00  0.00    +0.018 C 
ATOM     24  C   UNL     1      31.892 -11.024 -19.161  0.00  0.00    +0.113 C 
ATOM     25  C   UNL     1      31.277  -8.871 -18.649  0.00  0.00    +0.099 C 
BRANCH  21  26
ATOM     26  C   UNL     1      32.436  -8.886 -22.214  0.00  0.00    +0.022 C 
ATOM     27  C   UNL     1      34.117  -7.555 -23.579  0.00  0.00    -0.002 C 
ATOM     28  C   UNL     1      33.757  -8.095 -22.187  0.00  0.00    +0.004 C 
ATOM     29  C   UNL     1      31.655  -7.498 -24.187  0.00  0.00    -0.065 C 
ATOM     30  C   UNL     1      31.294  -8.033 -22.795  0.00  0.00    -0.017 C 
ATOM     31  C   UNL     1      32.970  -6.711 -24.152  0.00  0.00    -0.022 C 
ATOM     32  C   UNL     1      35.409  -6.741 -23.521  0.00  0.00    -0.000 C 
BRANCH  29  33
ATOM     33  N   UNL     1      30.578  -6.645 -24.684  0.00  0.00    +0.382 N 
ATOM     34  H   UNL     1      30.787  -6.355 -25.639  0.00  0.00    -0.089 HD
ATOM     35  H   UNL     1      30.496  -5.819 -24.089  0.00  0.00    -0.089 HD
ATOM     36  H   UNL     1      29.700  -7.162 -24.670  0.00  0.00    -0.089 HD
ENDBRANCH  29  33
ENDBRANCH  21  26
ENDBRANCH   2  22
TORSDOF 5
ENDMDL
MODEL 6
REMARK VINA RESULT:      -9.4     11.610     17.620
REMARK  Name = 44814409
REMARK  5 active torsions:
REMARK  status: ('A' for Active; 'I' for Inactive)
REMARK    1  A    between atoms: N_2  and  C_22
REMARK    2  A    between atoms: C_3  and  C_7
REMARK    3  A    between atoms: C_9  and  C_14
REMARK    4  A    between atoms: C_21  and  C_26
REMARK    5  A    between atoms: C_29  and  N_33
REMARK                            x       y       z     vdW  Elec       q    Type
REMARK                         _______ _______ _______ _____ _____    ______ ____
ROOT
ATOM      1  O   UNL     1      30.427  -6.470 -24.649  0.00  0.00    -0.267 OA
ATOM      2  N   UNL     1      31.591  -4.503 -24.094  0.00  0.00    -0.278 N 
ATOM      3  C   UNL     1      31.172  -5.828 -23.915  0.00  0.00    +0.275 C 
ATOM      4  H   UNL     1      32.194  -4.144 -23.403  0.00  0.00    +0.155 HD
ENDROOT
BRANCH   3   7
ATOM      5  F   UNL     1      33.206  -8.536 -19.514  0.00  0.00    -0.202 F 
ATOM      6  N   UNL     1      31.708  -7.866 -22.756  0.00  0.00    -0.399 NA
ATOM      7  C   UNL     1      31.724  -6.515 -22.718  0.00  0.00    +0.167 C 
ATOM      8  C   UNL     1      32.214  -5.775 -21.653  0.00  0.00    +0.092 C 
ATOM      9  C   UNL     1      32.209  -8.503 -21.675  0.00  0.00    +0.162 C 
ATOM     10  C   UNL     1      32.720  -6.467 -20.559  0.00  0.00    +0.014 C 
ATOM     11  C   UNL     1      32.721  -7.857 -20.561  0.00  0.00    +0.166 C 
BRANCH   9  14
ATOM     12  F   UNL     1      30.713 -10.054 -19.880  0.00  0.00    -0.204 F 
ATOM     13  F   UNL     1      33.639  -9.920 -23.628  0.00  0.00    -0.204 F 
ATOM     14  C   UNL     1      32.176  -9.946 -21.752  0.00  0.00    +0.087 C 
ATOM     15  C   UNL     1      31.418 -10.676 -20.837  0.00  0.00    +0.145 C 
ATOM     16  C   UNL     1      32.903 -10.607 -22.741  0.00  0.00    +0.145 C 
ATOM     17  C   UNL     1      31.386 -12.068 -20.912  0.00  0.00    +0.030 C 
ATOM     18  C   UNL     1      32.872 -12.000 -22.816  0.00  0.00    +0.030 C 
ATOM     19  C   UNL     1      32.114 -12.730 -21.901  0.00  0.00    +0.005 C 
ENDBRANCH   9  14
ENDBRANCH   3   7
BRANCH   2  22
ATOM     20  N   UNL     1      29.884  -1.795 -25.898  0.00  0.00    -0.241 NA
ATOM     21  C   UNL     1      31.902  -3.674 -26.361  0.00  0.00    -0.006 C 
ATOM     22  C   UNL     1      31.259  -3.629 -25.129  0.00  0.00    +0.066 C 
ATOM     23  C   UNL     1      31.537  -2.780 -27.362  0.00  0.00    +0.018 C 
ATOM     24  C   UNL     1      30.266  -2.680 -24.950  0.00  0.00    +0.113 C 
ATOM     25  C   UNL     1      30.531  -1.869 -27.083  0.00  0.00    +0.099 C 
BRANCH  21  26
ATOM     26  C   UNL     1      32.985  -4.668 -26.635  0.00  0.00    +0.022 C 
ATOM     27  C   UNL     1      35.503  -5.010 -26.700  0.00  0.00    -0.002 C 
ATOM     28  C   UNL     1      34.363  -4.035 -26.370  0.00  0.00    +0.004 C 
ATOM     29  C   UNL     1      34.019  -6.153 -28.410  0.00  0.00    -0.065 C 
ATOM     30  C   UNL     1      32.881  -5.176 -28.084  0.00  0.00    -0.017 C 
ATOM     31  C   UNL     1      35.388  -5.516 -28.145  0.00  0.00    -0.022 C 
ATOM     32  C   UNL     1      36.860  -4.347 -26.467  0.00  0.00    -0.000 C 
BRANCH  29  33
ATOM     33  N   UNL     1      33.928  -6.570 -29.808  0.00  0.00    +0.382 N 
ATOM     34  H   UNL     1      34.866  -6.677 -30.193  0.00  0.00    -0.089 HD
ATOM     35  H   UNL     1      33.420  -5.863 -30.341  0.00  0.00    -0.089 HD
ATOM     36  H   UNL     1      33.433  -7.460 -29.866  0.00  0.00    -0.089 HD
ENDBRANCH  29  33
ENDBRANCH  21  26
ENDBRANCH   2  22
TORSDOF 5
ENDMDL
MODEL 7
REMARK VINA RESULT:      -9.2     13.273     18.164
REMARK  Name = 44814409
REMARK  5 active torsions:
REMARK  status: ('A' for Active; 'I' for Inactive)
REMARK    1  A    between atoms: N_2  and  C_22
REMARK    2  A    between atoms: C_3  and  C_7
REMARK    3  A    between atoms: C_9  and  C_14
REMARK    4  A    between atoms: C_21  and  C_26
REMARK    5  A    between atoms: C_29  and  N_33
REMARK                            x       y       z     vdW  Elec       q    Type
REMARK                         _______ _______ _______ _____ _____    ______ ____
ROOT
ATOM      1  O   UNL     1      32.071  -2.938 -23.488  0.00  0.00    -0.267 OA
ATOM      2  N   UNL     1      32.078  -4.546 -25.204  0.00  0.00    -0.278 N 
ATOM      3  C   UNL     1      32.153  -4.098 -23.878  0.00  0.00    +0.275 C 
ATOM      4  H   UNL     1      32.163  -5.518 -25.336  0.00  0.00    +0.155 HD
ENDROOT
BRANCH   3   7
ATOM      5  F   UNL     1      32.838  -8.176 -20.171  0.00  0.00    -0.202 F 
ATOM      6  N   UNL     1      32.737  -6.362 -23.319  0.00  0.00    -0.399 NA
ATOM      7  C   UNL     1      32.323  -5.163 -22.855  0.00  0.00    +0.167 C 
ATOM      8  C   UNL     1      32.061  -4.895 -21.520  0.00  0.00    +0.092 C 
ATOM      9  C   UNL     1      32.898  -7.339 -22.399  0.00  0.00    +0.162 C 
ATOM     10  C   UNL     1      32.238  -5.927 -20.604  0.00  0.00    +0.014 C 
ATOM     11  C   UNL     1      32.664  -7.175 -21.043  0.00  0.00    +0.166 C 
BRANCH   9  14
ATOM     12  F   UNL     1      35.577  -7.805 -23.087  0.00  0.00    -0.204 F 
ATOM     13  F   UNL     1      31.134  -9.481 -22.807  0.00  0.00    -0.204 F 
ATOM     14  C   UNL     1      33.343  -8.607 -22.931  0.00  0.00    +0.087 C 
ATOM     15  C   UNL     1      34.685  -8.792 -23.260  0.00  0.00    +0.145 C 
ATOM     16  C   UNL     1      32.429  -9.644 -23.116  0.00  0.00    +0.145 C 
ATOM     17  C   UNL     1      35.114 -10.017 -23.773  0.00  0.00    +0.030 C 
ATOM     18  C   UNL     1      32.857 -10.868 -23.631  0.00  0.00    +0.030 C 
ATOM     19  C   UNL     1      34.200 -11.053 -23.960  0.00  0.00    +0.005 C 
ENDBRANCH   9  14
ENDBRANCH   3   7
BRANCH   2  22
ATOM     20  N   UNL     1      30.566  -2.151 -27.545  0.00  0.00    -0.241 NA
ATOM     21  C   UNL     1      32.779  -3.855 -27.430  0.00  0.00    -0.006 C 
ATOM     22  C   UNL     1      31.896  -3.785 -26.359  0.00  0.00    +0.066 C 
ATOM     23  C   UNL     1      32.556  -3.075 -28.560  0.00  0.00    +0.018 C 
ATOM     24  C   UNL     1      30.815  -2.925 -26.464  0.00  0.00    +0.113 C 
ATOM     25  C   UNL     1      31.446  -2.247 -28.567  0.00  0.00    +0.099 C 
BRANCH  21  26
ATOM     26  C   UNL     1      33.970  -4.758 -27.395  0.00  0.00    +0.022 C 
ATOM     27  C   UNL     1      36.502  -4.824 -27.175  0.00  0.00    -0.002 C 
ATOM     28  C   UNL     1      35.250  -3.935 -27.156  0.00  0.00    +0.004 C 
ATOM     29  C   UNL     1      35.316  -6.448 -28.721  0.00  0.00    -0.065 C 
ATOM     30  C   UNL     1      34.067  -5.558 -28.706  0.00  0.00    -0.017 C 
ATOM     31  C   UNL     1      36.586  -5.623 -28.484  0.00  0.00    -0.022 C 
ATOM     32  C   UNL     1      37.762  -3.982 -26.975  0.00  0.00    -0.000 C 
BRANCH  29  33
ATOM     33  N   UNL     1      35.411  -7.148 -30.000  0.00  0.00    +0.382 N 
ATOM     34  H   UNL     1      36.360  -7.500 -30.127  0.00  0.00    -0.089 HD
ATOM     35  H   UNL     1      35.184  -6.503 -30.758  0.00  0.00    -0.089 HD
ATOM     36  H   UNL     1      34.755  -7.928 -30.011  0.00  0.00    -0.089 HD
ENDBRANCH  29  33
ENDBRANCH  21  26
ENDBRANCH   2  22
TORSDOF 5
ENDMDL
