MODEL 1
REMARK VINA RESULT:     -11.2      0.000      0.000
REMARK  Name = 9912771
REMARK  7 active torsions:
REMARK  status: ('A' for Active; 'I' for Inactive)
REMARK    1  A    between atoms: C_1  and  N_8
REMARK    2  A    between atoms: C_2  and  N_27
REMARK    3  A    between atoms: C_3  and  O_38
REMARK    4  A    between atoms: C_9  and  C_16
REMARK    5  A    between atoms: C_11  and  N_17
REMARK    6  A    between atoms: C_28  and  C_30
REMARK    7  A    between atoms: C_35  and  O_36
REMARK                            x       y       z     vdW  Elec       q    Type
REMARK                         _______ _______ _______ _____ _____    ______ ____
ROOT
ATOM      1  C   UNL     1      31.484 -23.002 -15.844  0.00  0.00    +0.098 C 
ATOM      2  C   UNL     1      32.104 -23.695 -14.815  0.00  0.00    +0.067 C 
ATOM      3  C   UNL     1      30.106 -22.851 -15.882  0.00  0.00    +0.148 C 
ATOM      4  C   UNL     1      31.326 -24.251 -13.799  0.00  0.00    +0.016 C 
ATOM      5  C   UNL     1      29.329 -23.407 -14.865  0.00  0.00    +0.038 C 
ATOM      6  C   UNL     1      29.940 -24.107 -13.824  0.00  0.00    +0.004 C 
ENDROOT
BRANCH   1   8
ATOM      7  O   UNL     1      33.554 -24.250 -17.617  0.00  0.00    -0.270 OA
ATOM      8  N   UNL     1      32.266 -22.433 -16.880  0.00  0.00    -0.277 N 
ATOM      9  C   UNL     1      33.227 -23.055 -17.689  0.00  0.00    +0.250 C 
ATOM     10  H   UNL     1      32.114 -21.477 -17.054  0.00  0.00    +0.155 HD
BRANCH   9  16
ATOM     11  C   UNL     1      35.178 -20.534 -20.543  0.00  0.00    +0.048 C 
ATOM     12  C   UNL     1      33.785 -20.454 -20.328  0.00  0.00    +0.015 C 
ATOM     13  C   UNL     1      35.905 -21.476 -19.781  0.00  0.00    +0.015 C 
ATOM     14  C   UNL     1      33.149 -21.275 -19.397  0.00  0.00    +0.006 C 
ATOM     15  C   UNL     1      35.269 -22.298 -18.850  0.00  0.00    +0.006 C 
ATOM     16  C   UNL     1      33.891 -22.197 -18.659  0.00  0.00    +0.054 C 
BRANCH  11  17
ATOM     17  N   UNL     1      35.814 -19.714 -21.474  0.00  0.00    -0.310 N 
ATOM     18  N   UNL     1      34.869 -17.064 -20.954  0.00  0.00    +0.387 N 
ATOM     19  C   UNL     1      35.326 -19.557 -22.847  0.00  0.00    +0.089 C 
ATOM     20  C   UNL     1      34.293 -18.435 -22.947  0.00  0.00    -0.001 C 
ATOM     21  C   UNL     1      36.819 -18.723 -21.076  0.00  0.00    +0.068 C 
ATOM     22  C   UNL     1      34.765 -17.070 -22.419  0.00  0.00    -0.076 C 
ATOM     23  C   UNL     1      36.183 -17.482 -20.435  0.00  0.00    -0.056 C 
ATOM     24  C   UNL     1      34.517 -15.753 -20.405  0.00  0.00    -0.101 C 
ATOM     25  H   UNL     1      34.199 -17.767 -20.642  0.00  0.00    -0.080 HD
ENDBRANCH  11  17
ENDBRANCH   9  16
ENDBRANCH   1   8
BRANCH   2  27
ATOM     26  O   UNL     1      33.941 -23.990 -12.466  0.00  0.00    -0.270 OA
ATOM     27  N   UNL     1      33.492 -23.854 -14.769  0.00  0.00    -0.279 N 
ATOM     28  C   UNL     1      34.304 -23.987 -13.637  0.00  0.00    +0.250 C 
ATOM     29  H   UNL     1      33.954 -23.874 -15.638  0.00  0.00    +0.155 HD
BRANCH  28  30
ATOM     30  C   UNL     1      35.760 -24.112 -13.911  0.00  0.00    +0.054 C 
ATOM     31  C   UNL     1      36.474 -25.105 -13.273  0.00  0.00    +0.008 C 
ATOM     32  C   UNL     1      36.348 -23.232 -14.795  0.00  0.00    +0.008 C 
ATOM     33  C   UNL     1      37.839 -25.223 -13.531  0.00  0.00    +0.037 C 
ATOM     34  C   UNL     1      37.714 -23.351 -15.052  0.00  0.00    +0.037 C 
ATOM     35  C   UNL     1      38.460 -24.345 -14.421  0.00  0.00    +0.139 C 
BRANCH  35  36
ATOM     36  O   UNL     1      39.792 -24.462 -14.672  0.00  0.00    -0.471 OA
ATOM     37  C   UNL     1      40.414 -25.696 -14.316  0.00  0.00    +0.252 C 
ENDBRANCH  35  36
ENDBRANCH  28  30
ENDBRANCH   2  27
BRANCH   3  38
ATOM     38  O   UNL     1      29.488 -22.171 -16.887  0.00  0.00    -0.504 OA
ATOM     39  H   UNL     1      29.997 -21.756 -17.555  0.00  0.00    +0.292 HD
ENDBRANCH   3  38
TORSDOF 7
ENDMDL
MODEL 2
REMARK VINA RESULT:      -9.0      1.442      5.469
REMARK  Name = 9912771
REMARK  7 active torsions:
REMARK  status: ('A' for Active; 'I' for Inactive)
REMARK    1  A    between atoms: C_1  and  N_8
REMARK    2  A    between atoms: C_2  and  N_27
REMARK    3  A    between atoms: C_3  and  O_38
REMARK    4  A    between atoms: C_9  and  C_16
REMARK    5  A    between atoms: C_11  and  N_17
REMARK    6  A    between atoms: C_28  and  C_30
REMARK    7  A    between atoms: C_35  and  O_36
REMARK                            x       y       z     vdW  Elec       q    Type
REMARK                         _______ _______ _______ _____ _____    ______ ____
ROOT
ATOM      1  C   UNL     1      37.047 -24.255 -14.665  0.00  0.00    +0.098 C 
ATOM      2  C   UNL     1      35.908 -24.640 -13.974  0.00  0.00    +0.067 C 
ATOM      3  C   UNL     1      38.310 -24.639 -14.240  0.00  0.00    +0.148 C 
ATOM      4  C   UNL     1      36.036 -25.429 -12.830  0.00  0.00    +0.016 C 
ATOM      5  C   UNL     1      38.437 -25.428 -13.096  0.00  0.00    +0.038 C 
ATOM      6  C   UNL     1      37.299 -25.823 -12.392  0.00  0.00    +0.004 C 
ENDROOT
BRANCH   1   8
ATOM      7  O   UNL     1      35.638 -21.642 -15.082  0.00  0.00    -0.270 OA
ATOM      8  N   UNL     1      36.928 -23.454 -15.828  0.00  0.00    -0.277 N 
ATOM      9  C   UNL     1      36.257 -22.234 -15.981  0.00  0.00    +0.250 C 
ATOM     10  H   UNL     1      37.374 -23.802 -16.633  0.00  0.00    +0.155 HD
BRANCH   9  16
ATOM     11  C   UNL     1      36.345 -20.537 -19.908  0.00  0.00    +0.048 C 
ATOM     12  C   UNL     1      35.440 -21.570 -19.577  0.00  0.00    +0.015 C 
ATOM     13  C   UNL     1      37.219 -20.084 -18.895  0.00  0.00    +0.015 C 
ATOM     14  C   UNL     1      35.412 -22.122 -18.297  0.00  0.00    +0.006 C 
ATOM     15  C   UNL     1      37.190 -20.637 -17.615  0.00  0.00    +0.006 C 
ATOM     16  C   UNL     1      36.287 -21.656 -17.316  0.00  0.00    +0.054 C 
BRANCH  11  17
ATOM     17  N   UNL     1      36.375 -19.986 -21.188  0.00  0.00    -0.310 N 
ATOM     18  N   UNL     1      35.220 -17.380 -20.942  0.00  0.00    +0.387 N 
ATOM     19  C   UNL     1      35.354 -20.280 -22.197  0.00  0.00    +0.089 C 
ATOM     20  C   UNL     1      34.170 -19.320 -22.088  0.00  0.00    -0.001 C 
ATOM     21  C   UNL     1      37.239 -18.848 -21.521  0.00  0.00    +0.068 C 
ATOM     22  C   UNL     1      34.536 -17.828 -22.161  0.00  0.00    -0.076 C 
ATOM     23  C   UNL     1      36.686 -17.525 -20.977  0.00  0.00    -0.056 C 
ATOM     24  C   UNL     1      34.870 -15.995 -20.618  0.00  0.00    -0.101 C 
ATOM     25  H   UNL     1      34.886 -18.006 -20.210  0.00  0.00    -0.080 HD
ENDBRANCH  11  17
ENDBRANCH   9  16
ENDBRANCH   1   8
BRANCH   2  27
ATOM     26  O   UNL     1      33.488 -23.893 -12.372  0.00  0.00    -0.270 OA
ATOM     27  N   UNL     1      34.631 -24.258 -14.393  0.00  0.00    -0.279 N 
ATOM     28  C   UNL     1      33.531 -23.917 -13.597  0.00  0.00    +0.250 C 
ATOM     29  H   UNL     1      34.488 -24.223 -15.366  0.00  0.00    +0.155 HD
BRANCH  28  30
ATOM     30  C   UNL     1      32.290 -23.579 -14.341  0.00  0.00    +0.054 C 
ATOM     31  C   UNL     1      31.076 -23.693 -13.696  0.00  0.00    +0.008 C 
ATOM     32  C   UNL     1      32.392 -23.160 -15.651  0.00  0.00    +0.008 C 
ATOM     33  C   UNL     1      29.910 -23.374 -14.392  0.00  0.00    +0.037 C 
ATOM     34  C   UNL     1      31.226 -22.842 -16.348  0.00  0.00    +0.037 C 
ATOM     35  C   UNL     1      29.986 -22.949 -15.719  0.00  0.00    +0.139 C 
BRANCH  35  36
ATOM     36  O   UNL     1      28.849 -22.637 -16.398  0.00  0.00    -0.471 OA
ATOM     37  C   UNL     1      27.621 -22.706 -15.674  0.00  0.00    +0.252 C 
ENDBRANCH  35  36
ENDBRANCH  28  30
ENDBRANCH   2  27
BRANCH   3  38
ATOM     38  O   UNL     1      39.435 -24.267 -14.912  0.00  0.00    -0.504 OA
ATOM     39  H   UNL     1      39.456 -24.305 -15.848  0.00  0.00    +0.292 HD
ENDBRANCH   3  38
TORSDOF 7
ENDMDL
MODEL 3
REMARK VINA RESULT:      -8.5      1.618      5.669
REMARK  Name = 9912771
REMARK  7 active torsions:
REMARK  status: ('A' for Active; 'I' for Inactive)
REMARK    1  A    between atoms: C_1  and  N_8
REMARK    2  A    between atoms: C_2  and  N_27
REMARK    3  A    between atoms: C_3  and  O_38
REMARK    4  A    between atoms: C_9  and  C_16
REMARK    5  A    between atoms: C_11  and  N_17
REMARK    6  A    between atoms: C_28  and  C_30
REMARK    7  A    between atoms: C_35  and  O_36
REMARK                            x       y       z     vdW  Elec       q    Type
REMARK                         _______ _______ _______ _____ _____    ______ ____
ROOT
ATOM      1  C   UNL     1      35.581 -23.336 -14.405  0.00  0.00    +0.098 C 
ATOM      2  C   UNL     1      34.534 -23.847 -13.653  0.00  0.00    +0.067 C 
ATOM      3  C   UNL     1      36.897 -23.465 -13.985  0.00  0.00    +0.148 C 
ATOM      4  C   UNL     1      34.809 -24.503 -12.453  0.00  0.00    +0.016 C 
ATOM      5  C   UNL     1      37.171 -24.121 -12.785  0.00  0.00    +0.038 C 
ATOM      6  C   UNL     1      36.127 -24.640 -12.019  0.00  0.00    +0.004 C 
ENDROOT
BRANCH   1   8
ATOM      7  O   UNL     1      34.122 -24.282 -16.847  0.00  0.00    -0.270 OA
ATOM      8  N   UNL     1      35.312 -22.670 -15.626  0.00  0.00    -0.277 N 
ATOM      9  C   UNL     1      34.623 -23.150 -16.748  0.00  0.00    +0.250 C 
ATOM     10  H   UNL     1      35.654 -21.750 -15.695  0.00  0.00    +0.155 HD
BRANCH   9  16
ATOM     11  C   UNL     1      34.344 -20.460 -20.064  0.00  0.00    +0.048 C 
ATOM     12  C   UNL     1      33.189 -21.039 -19.491  0.00  0.00    +0.015 C 
ATOM     13  C   UNL     1      35.594 -20.801 -19.500  0.00  0.00    +0.015 C 
ATOM     14  C   UNL     1      33.281 -21.915 -18.410  0.00  0.00    +0.006 C 
ATOM     15  C   UNL     1      35.685 -21.678 -18.420  0.00  0.00    +0.006 C 
ATOM     16  C   UNL     1      34.528 -22.235 -17.875  0.00  0.00    +0.054 C 
BRANCH  11  17
ATOM     17  N   UNL     1      34.253 -19.585 -21.145  0.00  0.00    -0.310 N 
ATOM     18  N   UNL     1      36.914 -18.643 -21.611  0.00  0.00    +0.387 N 
ATOM     19  C   UNL     1      33.846 -18.185 -20.994  0.00  0.00    +0.089 C 
ATOM     20  C   UNL     1      35.044 -17.285 -20.694  0.00  0.00    -0.001 C 
ATOM     21  C   UNL     1      34.844 -19.902 -22.449  0.00  0.00    +0.068 C 
ATOM     22  C   UNL     1      36.190 -17.370 -21.716  0.00  0.00    -0.076 C 
ATOM     23  C   UNL     1      36.369 -19.726 -22.449  0.00  0.00    -0.056 C 
ATOM     24  C   UNL     1      38.339 -18.466 -21.901  0.00  0.00    -0.101 C 
ATOM     25  H   UNL     1      36.787 -18.937 -20.643  0.00  0.00    -0.080 HD
ENDBRANCH  11  17
ENDBRANCH   9  16
ENDBRANCH   1   8
BRANCH   2  27
ATOM     26  O   UNL     1      32.078 -25.304 -12.744  0.00  0.00    -0.270 OA
ATOM     27  N   UNL     1      33.205 -23.721 -14.067  0.00  0.00    -0.279 N 
ATOM     28  C   UNL     1      32.090 -24.432 -13.606  0.00  0.00    +0.250 C 
ATOM     29  H   UNL     1      33.031 -23.052 -14.767  0.00  0.00    +0.155 HD
BRANCH  28  30
ATOM     30  C   UNL     1      30.803 -24.091 -14.265  0.00  0.00    +0.054 C 
ATOM     31  C   UNL     1      30.470 -22.762 -14.428  0.00  0.00    +0.008 C 
ATOM     32  C   UNL     1      29.983 -25.114 -14.693  0.00  0.00    +0.008 C 
ATOM     33  C   UNL     1      29.263 -22.441 -15.047  0.00  0.00    +0.037 C 
ATOM     34  C   UNL     1      28.775 -24.792 -15.313  0.00  0.00    +0.037 C 
ATOM     35  C   UNL     1      28.415 -23.457 -15.490  0.00  0.00    +0.139 C 
BRANCH  35  36
ATOM     36  O   UNL     1      27.237 -23.143 -16.095  0.00  0.00    -0.471 OA
ATOM     37  C   UNL     1      26.463 -22.100 -15.506  0.00  0.00    +0.252 C 
ENDBRANCH  35  36
ENDBRANCH  28  30
ENDBRANCH   2  27
BRANCH   3  38
ATOM     38  O   UNL     1      37.933 -22.969 -14.717  0.00  0.00    -0.504 OA
ATOM     39  H   UNL     1      38.373 -23.515 -15.338  0.00  0.00    +0.292 HD
ENDBRANCH   3  38
TORSDOF 7
ENDMDL
