MODEL 1
REMARK VINA RESULT:     -13.0      0.000      0.000
REMARK  Name = 10200813
REMARK  4 active torsions:
REMARK  status: ('A' for Active; 'I' for Inactive)
REMARK    1  A    between atoms: C_3  and  C_24
REMARK    2  A    between atoms: C_8  and  C_11
REMARK    3  A    between atoms: N_10  and  C_16
REMARK    4  A    between atoms: C_24  and  C_26
REMARK                            x       y       z     vdW  Elec       q    Type
REMARK                         _______ _______ _______ _____ _____    ______ ____
ROOT
ATOM      1  O   UNL     1      35.283 -17.580 -23.468  0.00  0.00    -0.265 OA
ATOM      2  N   UNL     1      34.883 -15.862 -21.914  0.00  0.00    -0.272 N 
ATOM      3  C   UNL     1      33.176 -13.626 -21.220  0.00  0.00    +0.008 C 
ATOM      4  C   UNL     1      33.280 -14.149 -22.661  0.00  0.00    +0.022 C 
ATOM      5  C   UNL     1      33.471 -14.758 -20.223  0.00  0.00    +0.022 C 
ATOM      6  C   UNL     1      34.628 -14.822 -22.909  0.00  0.00    +0.094 C 
ATOM      7  C   UNL     1      34.814 -15.422 -20.517  0.00  0.00    +0.094 C 
ATOM      8  C   UNL     1      35.208 -17.146 -22.325  0.00  0.00    +0.303 C 
ENDROOT
BRANCH   8  11
ATOM      9  O   UNL     1      36.537 -17.957 -20.623  0.00  0.00    -0.265 OA
ATOM     10  N   UNL     1      34.522 -19.090 -21.130  0.00  0.00    -0.277 N 
ATOM     11  C   UNL     1      35.500 -18.123 -21.251  0.00  0.00    +0.303 C 
ATOM     12  H   UNL     1      33.762 -19.024 -21.753  0.00  0.00    +0.155 HD
BRANCH  10  16
ATOM     13  O   UNL     1      32.233 -22.019 -17.979  0.00  0.00    -0.407 OA
ATOM     14  O   UNL     1      32.158 -23.775 -16.476  0.00  0.00    -0.223 OA
ATOM     15  N   UNL     1      34.151 -23.208 -17.542  0.00  0.00    -0.287 N 
ATOM     16  C   UNL     1      34.491 -20.165 -20.211  0.00  0.00    +0.054 C 
ATOM     17  C   UNL     1      33.289 -20.482 -19.589  0.00  0.00    +0.054 C 
ATOM     18  C   UNL     1      35.672 -20.875 -19.960  0.00  0.00    +0.016 C 
ATOM     19  C   UNL     1      33.312 -21.538 -18.704  0.00  0.00    +0.167 A 
ATOM     20  C   UNL     1      34.472 -22.239 -18.454  0.00  0.00    +0.096 A 
ATOM     21  C   UNL     1      35.673 -21.942 -19.060  0.00  0.00    +0.022 C 
ATOM     22  C   UNL     1      32.802 -23.080 -17.252  0.00  0.00    +0.419 A 
ATOM     23  H   UNL     1      34.767 -23.876 -17.160  0.00  0.00    +0.172 HD
ENDBRANCH  10  16
ENDBRANCH   8  11
BRANCH   3  24
ATOM     24  C   UNL     1      31.800 -13.018 -20.961  0.00  0.00    +0.026 C 
BRANCH  24  26
ATOM     25  F   UNL     1      32.185  -7.685 -19.229  0.00  0.00    -0.204 F 
ATOM     26  C   UNL     1      31.903 -11.591 -20.497  0.00  0.00    -0.022 C 
ATOM     27  C   UNL     1      32.028 -11.319 -19.141  0.00  0.00    -0.002 C 
ATOM     28  C   UNL     1      31.872 -10.564 -21.431  0.00  0.00    -0.002 C 
ATOM     29  C   UNL     1      32.124  -9.995 -18.712  0.00  0.00    +0.029 C 
ATOM     30  C   UNL     1      31.968  -9.240 -21.002  0.00  0.00    +0.029 C 
ATOM     31  C   UNL     1      32.094  -8.956 -19.642  0.00  0.00    +0.140 C 
ENDBRANCH  24  26
ENDBRANCH   3  24
TORSDOF 4
ENDMDL
MODEL 2
REMARK VINA RESULT:     -12.7      4.561      7.101
REMARK  Name = 10200813
REMARK  4 active torsions:
REMARK  status: ('A' for Active; 'I' for Inactive)
REMARK    1  A    between atoms: C_3  and  C_24
REMARK    2  A    between atoms: C_8  and  C_11
REMARK    3  A    between atoms: N_10  and  C_16
REMARK    4  A    between atoms: C_24  and  C_26
REMARK                            x       y       z     vdW  Elec       q    Type
REMARK                         _______ _______ _______ _____ _____    ______ ____
ROOT
ATOM      1  O   UNL     1      31.996 -22.025 -17.638  0.00  0.00    -0.265 OA
ATOM      2  N   UNL     1      33.715 -21.742 -19.216  0.00  0.00    -0.272 N 
ATOM      3  C   UNL     1      35.154 -19.836 -20.856  0.00  0.00    +0.008 C 
ATOM      4  C   UNL     1      33.739 -19.546 -20.330  0.00  0.00    +0.022 C 
ATOM      5  C   UNL     1      35.884 -20.801 -19.910  0.00  0.00    +0.022 C 
ATOM      6  C   UNL     1      32.964 -20.839 -20.087  0.00  0.00    +0.094 C 
ATOM      7  C   UNL     1      35.069 -22.070 -19.672  0.00  0.00    +0.094 C 
ATOM      8  C   UNL     1      33.116 -22.256 -18.075  0.00  0.00    +0.303 C 
ENDROOT
BRANCH   8  11
ATOM      9  O   UNL     1      33.735 -24.395 -17.472  0.00  0.00    -0.265 OA
ATOM     10  N   UNL     1      34.805 -22.563 -16.423  0.00  0.00    -0.277 N 
ATOM     11  C   UNL     1      33.930 -23.202 -17.278  0.00  0.00    +0.303 C 
ATOM     12  H   UNL     1      34.789 -21.578 -16.437  0.00  0.00    +0.155 HD
BRANCH  10  16
ATOM     13  O   UNL     1      35.904 -25.459 -12.661  0.00  0.00    -0.407 OA
ATOM     14  O   UNL     1      37.383 -26.456 -11.189  0.00  0.00    -0.223 OA
ATOM     15  N   UNL     1      38.151 -25.011 -12.848  0.00  0.00    -0.287 N 
ATOM     16  C   UNL     1      35.720 -23.165 -15.528  0.00  0.00    +0.054 C 
ATOM     17  C   UNL     1      35.235 -24.022 -14.547  0.00  0.00    +0.054 C 
ATOM     18  C   UNL     1      37.085 -22.877 -15.662  0.00  0.00    +0.016 C 
ATOM     19  C   UNL     1      36.168 -24.582 -13.702  0.00  0.00    +0.167 A 
ATOM     20  C   UNL     1      37.511 -24.302 -13.829  0.00  0.00    +0.096 A 
ATOM     21  C   UNL     1      38.013 -23.457 -14.793  0.00  0.00    +0.022 C 
ATOM     22  C   UNL     1      37.187 -25.711 -12.140  0.00  0.00    +0.419 A 
ATOM     23  H   UNL     1      39.121 -25.023 -12.676  0.00  0.00    +0.172 HD
ENDBRANCH  10  16
ENDBRANCH   8  11
BRANCH   3  24
ATOM     24  C   UNL     1      35.945 -18.541 -21.028  0.00  0.00    +0.026 C 
BRANCH  24  26
ATOM     25  F   UNL     1      33.917 -15.418 -25.238  0.00  0.00    -0.204 F 
ATOM     26  C   UNL     1      35.401 -17.706 -22.155  0.00  0.00    -0.022 C 
ATOM     27  C   UNL     1      35.000 -18.322 -23.332  0.00  0.00    -0.002 C 
ATOM     28  C   UNL     1      35.310 -16.329 -22.002  0.00  0.00    -0.002 C 
ATOM     29  C   UNL     1      34.496 -17.547 -24.377  0.00  0.00    +0.029 C 
ATOM     30  C   UNL     1      34.806 -15.553 -23.047  0.00  0.00    +0.029 C 
ATOM     31  C   UNL     1      34.399 -16.163 -24.234  0.00  0.00    +0.140 C 
ENDBRANCH  24  26
ENDBRANCH   3  24
TORSDOF 4
ENDMDL
MODEL 3
REMARK VINA RESULT:     -12.7      4.793      7.431
REMARK  Name = 10200813
REMARK  4 active torsions:
REMARK  status: ('A' for Active; 'I' for Inactive)
REMARK    1  A    between atoms: C_3  and  C_24
REMARK    2  A    between atoms: C_8  and  C_11
REMARK    3  A    between atoms: N_10  and  C_16
REMARK    4  A    between atoms: C_24  and  C_26
REMARK                            x       y       z     vdW  Elec       q    Type
REMARK                         _______ _______ _______ _____ _____    ______ ____
ROOT
ATOM      1  O   UNL     1      31.903 -22.233 -17.561  0.00  0.00    -0.265 OA
ATOM      2  N   UNL     1      33.779 -22.006 -18.959  0.00  0.00    -0.272 N 
ATOM      3  C   UNL     1      35.312 -20.188 -20.614  0.00  0.00    +0.008 C 
ATOM      4  C   UNL     1      33.834 -19.929 -20.281  0.00  0.00    +0.022 C 
ATOM      5  C   UNL     1      35.970 -21.016 -19.499  0.00  0.00    +0.022 C 
ATOM      6  C   UNL     1      33.095 -21.235 -19.995  0.00  0.00    +0.094 C 
ATOM      7  C   UNL     1      35.190 -22.300 -19.227  0.00  0.00    +0.094 C 
ATOM      8  C   UNL     1      33.076 -22.441 -17.845  0.00  0.00    +0.303 C 
ENDROOT
BRANCH   8  11
ATOM      9  O   UNL     1      33.912 -24.458 -17.102  0.00  0.00    -0.265 OA
ATOM     10  N   UNL     1      34.346 -22.510 -15.831  0.00  0.00    -0.277 N 
ATOM     11  C   UNL     1      33.834 -23.259 -16.871  0.00  0.00    +0.303 C 
ATOM     12  H   UNL     1      34.155 -21.544 -15.852  0.00  0.00    +0.155 HD
BRANCH  10  16
ATOM     13  O   UNL     1      34.859 -23.905 -11.190  0.00  0.00    -0.407 OA
ATOM     14  O   UNL     1      36.094 -24.669  -9.390  0.00  0.00    -0.223 OA
ATOM     15  N   UNL     1      37.106 -24.309 -11.458  0.00  0.00    -0.287 N 
ATOM     16  C   UNL     1      35.113 -22.975 -14.738  0.00  0.00    +0.054 C 
ATOM     17  C   UNL     1      34.486 -23.181 -13.515  0.00  0.00    +0.054 C 
ATOM     18  C   UNL     1      36.482 -23.214 -14.925  0.00  0.00    +0.016 C 
ATOM     19  C   UNL     1      35.278 -23.636 -12.484  0.00  0.00    +0.167 A 
ATOM     20  C   UNL     1      36.623 -23.872 -12.663  0.00  0.00    +0.096 A 
ATOM     21  C   UNL     1      37.265 -23.675 -13.865  0.00  0.00    +0.022 C 
ATOM     22  C   UNL     1      36.046 -24.331 -10.566  0.00  0.00    +0.419 A 
ATOM     23  H   UNL     1      38.037 -24.562 -11.261  0.00  0.00    +0.172 HD
ENDBRANCH  10  16
ENDBRANCH   8  11
BRANCH   3  24
ATOM     24  C   UNL     1      36.058 -18.874 -20.829  0.00  0.00    +0.026 C 
BRANCH  24  26
ATOM     25  F   UNL     1      33.939 -15.973 -25.151  0.00  0.00    -0.204 F 
ATOM     26  C   UNL     1      35.492 -18.097 -21.986  0.00  0.00    -0.022 C 
ATOM     27  C   UNL     1      35.445 -16.711 -21.922  0.00  0.00    -0.002 C 
ATOM     28  C   UNL     1      35.022 -18.777 -23.101  0.00  0.00    -0.002 C 
ATOM     29  C   UNL     1      34.920 -15.992 -22.996  0.00  0.00    +0.029 C 
ATOM     30  C   UNL     1      34.496 -18.058 -24.174  0.00  0.00    +0.029 C 
ATOM     31  C   UNL     1      34.445 -16.665 -24.122  0.00  0.00    +0.140 C 
ENDBRANCH  24  26
ENDBRANCH   3  24
TORSDOF 4
ENDMDL
MODEL 4
REMARK VINA RESULT:     -12.2      1.853      2.245
REMARK  Name = 10200813
REMARK  4 active torsions:
REMARK  status: ('A' for Active; 'I' for Inactive)
REMARK    1  A    between atoms: C_3  and  C_24
REMARK    2  A    between atoms: C_8  and  C_11
REMARK    3  A    between atoms: N_10  and  C_16
REMARK    4  A    between atoms: C_24  and  C_26
REMARK                            x       y       z     vdW  Elec       q    Type
REMARK                         _______ _______ _______ _____ _____    ______ ____
ROOT
ATOM      1  O   UNL     1      34.177 -18.506 -24.734  0.00  0.00    -0.265 OA
ATOM      2  N   UNL     1      34.641 -16.454 -23.685  0.00  0.00    -0.272 N 
ATOM      3  C   UNL     1      33.657 -13.787 -23.128  0.00  0.00    +0.008 C 
ATOM      4  C   UNL     1      33.133 -14.611 -24.314  0.00  0.00    +0.022 C 
ATOM      5  C   UNL     1      34.144 -14.719 -22.007  0.00  0.00    +0.022 C 
ATOM      6  C   UNL     1      34.178 -15.618 -24.791  0.00  0.00    +0.094 C 
ATOM      7  C   UNL     1      35.168 -15.725 -22.528  0.00  0.00    +0.094 C 
ATOM      8  C   UNL     1      34.602 -17.836 -23.801  0.00  0.00    +0.303 C 
ENDROOT
BRANCH   8  11
ATOM      9  O   UNL     1      36.343 -18.529 -22.456  0.00  0.00    -0.265 OA
ATOM     10  N   UNL     1      34.158 -19.300 -21.976  0.00  0.00    -0.277 N 
ATOM     11  C   UNL     1      35.138 -18.605 -22.655  0.00  0.00    +0.303 C 
ATOM     12  H   UNL     1      33.239 -19.211 -22.320  0.00  0.00    +0.155 HD
BRANCH  10  16
ATOM     13  O   UNL     1      32.443 -22.062 -18.346  0.00  0.00    -0.407 OA
ATOM     14  O   UNL     1      32.695 -23.421 -16.492  0.00  0.00    -0.223 OA
ATOM     15  N   UNL     1      34.557 -22.531 -17.574  0.00  0.00    -0.287 N 
ATOM     16  C   UNL     1      34.326 -20.128 -20.842  0.00  0.00    +0.054 C 
ATOM     17  C   UNL     1      33.200 -20.646 -20.214  0.00  0.00    +0.054 C 
ATOM     18  C   UNL     1      35.625 -20.400 -20.390  0.00  0.00    +0.016 C 
ATOM     19  C   UNL     1      33.419 -21.447 -19.115  0.00  0.00    +0.167 A 
ATOM     20  C   UNL     1      34.693 -21.717 -18.666  0.00  0.00    +0.096 A 
ATOM     21  C   UNL     1      35.823 -21.215 -19.273  0.00  0.00    +0.022 C 
ATOM     22  C   UNL     1      33.202 -22.742 -17.376  0.00  0.00    +0.419 A 
ATOM     23  H   UNL     1      35.289 -22.899 -17.027  0.00  0.00    +0.172 HD
ENDBRANCH  10  16
ENDBRANCH   8  11
BRANCH   3  24
ATOM     24  C   UNL     1      32.582 -12.833 -22.613  0.00  0.00    +0.026 C 
BRANCH  24  26
ATOM     25  F   UNL     1      33.973  -7.462 -23.514  0.00  0.00    -0.204 F 
ATOM     26  C   UNL     1      32.954 -11.396 -22.855  0.00  0.00    -0.022 C 
ATOM     27  C   UNL     1      34.143 -11.097 -23.507  0.00  0.00    -0.002 C 
ATOM     28  C   UNL     1      32.104 -10.387 -22.421  0.00  0.00    -0.002 C 
ATOM     29  C   UNL     1      34.487  -9.764 -23.731  0.00  0.00    +0.029 C 
ATOM     30  C   UNL     1      32.449  -9.054 -22.645  0.00  0.00    +0.029 C 
ATOM     31  C   UNL     1      33.640  -8.743 -23.300  0.00  0.00    +0.140 C 
ENDBRANCH  24  26
ENDBRANCH   3  24
TORSDOF 4
ENDMDL
MODEL 5
REMARK VINA RESULT:     -11.7      1.559      1.963
REMARK  Name = 10200813
REMARK  4 active torsions:
REMARK  status: ('A' for Active; 'I' for Inactive)
REMARK    1  A    between atoms: C_3  and  C_24
REMARK    2  A    between atoms: C_8  and  C_11
REMARK    3  A    between atoms: N_10  and  C_16
REMARK    4  A    between atoms: C_24  and  C_26
REMARK                            x       y       z     vdW  Elec       q    Type
REMARK                         _______ _______ _______ _____ _____    ______ ____
ROOT
ATOM      1  O   UNL     1      34.556 -16.003 -25.143  0.00  0.00    -0.265 OA
ATOM      2  N   UNL     1      34.354 -15.045 -23.006  0.00  0.00    -0.272 N 
ATOM      3  C   UNL     1      32.913 -13.128 -21.381  0.00  0.00    +0.008 C 
ATOM      4  C   UNL     1      32.958 -13.019 -22.913  0.00  0.00    +0.022 C 
ATOM      5  C   UNL     1      33.075 -14.593 -20.948  0.00  0.00    +0.022 C 
ATOM      6  C   UNL     1      34.221 -13.668 -23.476  0.00  0.00    +0.094 C 
ATOM      7  C   UNL     1      34.334 -15.214 -21.550  0.00  0.00    +0.094 C 
ATOM      8  C   UNL     1      34.530 -16.073 -23.921  0.00  0.00    +0.303 C 
ENDROOT
BRANCH   8  11
ATOM      9  O   UNL     1      34.366 -18.370 -24.060  0.00  0.00    -0.265 OA
ATOM     10  N   UNL     1      35.250 -17.411 -22.085  0.00  0.00    -0.277 N 
ATOM     11  C   UNL     1      34.708 -17.430 -23.355  0.00  0.00    +0.303 C 
ATOM     12  H   UNL     1      35.451 -16.523 -21.709  0.00  0.00    +0.155 HD
BRANCH  10  16
ATOM     13  O   UNL     1      33.972 -21.313 -19.461  0.00  0.00    -0.407 OA
ATOM     14  O   UNL     1      34.437 -23.139 -18.121  0.00  0.00    -0.223 OA
ATOM     15  N   UNL     1      36.154 -21.772 -18.902  0.00  0.00    -0.287 N 
ATOM     16  C   UNL     1      35.547 -18.523 -21.265  0.00  0.00    +0.054 C 
ATOM     17  C   UNL     1      34.505 -19.323 -20.812  0.00  0.00    +0.054 C 
ATOM     18  C   UNL     1      36.885 -18.783 -20.937  0.00  0.00    +0.016 C 
ATOM     19  C   UNL     1      34.849 -20.394 -20.016  0.00  0.00    +0.167 A 
ATOM     20  C   UNL     1      36.162 -20.653 -19.691  0.00  0.00    +0.096 A 
ATOM     21  C   UNL     1      37.211 -19.875 -20.129  0.00  0.00    +0.022 C 
ATOM     22  C   UNL     1      34.836 -22.174 -18.759  0.00  0.00    +0.419 A 
ATOM     23  H   UNL     1      36.942 -22.211 -18.506  0.00  0.00    +0.172 HD
ENDBRANCH  10  16
ENDBRANCH   8  11
BRANCH   3  24
ATOM     24  C   UNL     1      31.615 -12.539 -20.833  0.00  0.00    +0.026 C 
BRANCH  24  26
ATOM     25  F   UNL     1      32.250  -7.159 -19.334  0.00  0.00    -0.204 F 
ATOM     26  C   UNL     1      31.786 -11.100 -20.432  0.00  0.00    -0.022 C 
ATOM     27  C   UNL     1      31.856 -10.768 -19.085  0.00  0.00    -0.002 C 
ATOM     28  C   UNL     1      31.869 -10.121 -21.413  0.00  0.00    -0.002 C 
ATOM     29  C   UNL     1      32.014  -9.433 -18.714  0.00  0.00    +0.029 C 
ATOM     30  C   UNL     1      32.027  -8.786 -21.042  0.00  0.00    +0.029 C 
ATOM     31  C   UNL     1      32.100  -8.442 -19.692  0.00  0.00    +0.140 C 
ENDBRANCH  24  26
ENDBRANCH   3  24
TORSDOF 4
ENDMDL
MODEL 6
REMARK VINA RESULT:     -11.6      5.426     11.220
REMARK  Name = 10200813
REMARK  4 active torsions:
REMARK  status: ('A' for Active; 'I' for Inactive)
REMARK    1  A    between atoms: C_3  and  C_24
REMARK    2  A    between atoms: C_8  and  C_11
REMARK    3  A    between atoms: N_10  and  C_16
REMARK    4  A    between atoms: C_24  and  C_26
REMARK                            x       y       z     vdW  Elec       q    Type
REMARK                         _______ _______ _______ _____ _____    ______ ____
ROOT
ATOM      1  O   UNL     1      32.284 -13.060 -19.642  0.00  0.00    -0.265 OA
ATOM      2  N   UNL     1      33.900 -13.852 -21.153  0.00  0.00    -0.272 N 
ATOM      3  C   UNL     1      35.278 -16.194 -22.157  0.00  0.00    +0.008 C 
ATOM      4  C   UNL     1      34.617 -16.177 -20.770  0.00  0.00    +0.022 C 
ATOM      5  C   UNL     1      34.564 -15.212 -23.098  0.00  0.00    +0.022 C 
ATOM      6  C   UNL     1      34.550 -14.758 -20.208  0.00  0.00    +0.094 C 
ATOM      7  C   UNL     1      34.496 -13.812 -22.492  0.00  0.00    +0.094 C 
ATOM      8  C   UNL     1      32.828 -13.076 -20.739  0.00  0.00    +0.303 C 
ENDROOT
BRANCH   8  11
ATOM      9  O   UNL     1      31.586 -12.648 -22.635  0.00  0.00    -0.265 OA
ATOM     10  N   UNL     1      32.601 -10.833 -21.506  0.00  0.00    -0.277 N 
ATOM     11  C   UNL     1      32.263 -12.149 -21.746  0.00  0.00    +0.303 C 
ATOM     12  H   UNL     1      33.164 -10.662 -20.716  0.00  0.00    +0.155 HD
BRANCH  10  16
ATOM     13  O   UNL     1      30.877  -6.297 -21.957  0.00  0.00    -0.407 OA
ATOM     14  O   UNL     1      30.267  -4.435 -23.185  0.00  0.00    -0.223 OA
ATOM     15  N   UNL     1      31.102  -6.335 -24.244  0.00  0.00    -0.287 N 
ATOM     16  C   UNL     1      32.229  -9.701 -22.269  0.00  0.00    +0.054 C 
ATOM     17  C   UNL     1      31.733  -8.581 -21.613  0.00  0.00    +0.054 C 
ATOM     18  C   UNL     1      32.376  -9.748 -23.662  0.00  0.00    +0.016 C 
ATOM     19  C   UNL     1      31.388  -7.506 -22.403  0.00  0.00    +0.167 A 
ATOM     20  C   UNL     1      31.529  -7.547 -23.772  0.00  0.00    +0.096 A 
ATOM     21  C   UNL     1      32.019  -8.646 -24.443  0.00  0.00    +0.022 C 
ATOM     22  C   UNL     1      30.707  -5.577 -23.153  0.00  0.00    +0.419 A 
ATOM     23  H   UNL     1      31.079  -6.052 -25.187  0.00  0.00    +0.172 HD
ENDBRANCH  10  16
ENDBRANCH   8  11
BRANCH   3  24
ATOM     24  C   UNL     1      35.277 -17.605 -22.741  0.00  0.00    +0.026 C 
BRANCH  24  26
ATOM     25  F   UNL     1      36.326 -21.479 -18.806  0.00  0.00    -0.204 F 
ATOM     26  C   UNL     1      35.558 -18.641 -21.688  0.00  0.00    -0.022 C 
ATOM     27  C   UNL     1      36.817 -18.703 -21.107  0.00  0.00    -0.002 C 
ATOM     28  C   UNL     1      34.554 -19.523 -21.311  0.00  0.00    -0.002 C 
ATOM     29  C   UNL     1      37.077 -19.664 -20.130  0.00  0.00    +0.029 C 
ATOM     30  C   UNL     1      34.814 -20.485 -20.334  0.00  0.00    +0.029 C 
ATOM     31  C   UNL     1      36.075 -20.555 -19.743  0.00  0.00    +0.140 C 
ENDBRANCH  24  26
ENDBRANCH   3  24
TORSDOF 4
ENDMDL
MODEL 7
REMARK VINA RESULT:     -11.1      3.951      5.955
REMARK  Name = 10200813
REMARK  4 active torsions:
REMARK  status: ('A' for Active; 'I' for Inactive)
REMARK    1  A    between atoms: C_3  and  C_24
REMARK    2  A    between atoms: C_8  and  C_11
REMARK    3  A    between atoms: N_10  and  C_16
REMARK    4  A    between atoms: C_24  and  C_26
REMARK                            x       y       z     vdW  Elec       q    Type
REMARK                         _______ _______ _______ _____ _____    ______ ____
ROOT
ATOM      1  O   UNL     1      36.816 -22.340 -18.507  0.00  0.00    -0.265 OA
ATOM      2  N   UNL     1      35.557 -20.612 -19.483  0.00  0.00    -0.272 N 
ATOM      3  C   UNL     1      35.344 -18.794 -21.728  0.00  0.00    +0.008 C 
ATOM      4  C   UNL     1      36.683 -19.430 -21.326  0.00  0.00    +0.022 C 
ATOM      5  C   UNL     1      34.178 -19.704 -21.312  0.00  0.00    +0.022 C 
ATOM      6  C   UNL     1      36.705 -19.780 -19.840  0.00  0.00    +0.094 C 
ATOM      7  C   UNL     1      34.247 -20.051 -19.826  0.00  0.00    +0.094 C 
ATOM      8  C   UNL     1      35.756 -21.816 -18.824  0.00  0.00    +0.303 C 
ENDROOT
BRANCH   8  11
ATOM      9  O   UNL     1      34.109 -23.366 -19.280  0.00  0.00    -0.265 OA
ATOM     10  N   UNL     1      34.067 -22.241 -17.198  0.00  0.00    -0.277 N 
ATOM     11  C   UNL     1      34.536 -22.570 -18.454  0.00  0.00    +0.303 C 
ATOM     12  H   UNL     1      34.582 -21.562 -16.703  0.00  0.00    +0.155 HD
BRANCH  10  16
ATOM     13  O   UNL     1      29.256 -22.690 -16.571  0.00  0.00    -0.407 OA
ATOM     14  O   UNL     1      27.384 -23.545 -15.516  0.00  0.00    -0.223 OA
ATOM     15  N   UNL     1      29.523 -24.158 -14.822  0.00  0.00    -0.287 N 
ATOM     16  C   UNL     1      32.931 -22.770 -16.543  0.00  0.00    +0.054 C 
ATOM     17  C   UNL     1      31.667 -22.388 -16.976  0.00  0.00    +0.054 C 
ATOM     18  C   UNL     1      33.119 -23.664 -15.479  0.00  0.00    +0.016 C 
ATOM     19  C   UNL     1      30.594 -22.933 -16.304  0.00  0.00    +0.167 A 
ATOM     20  C   UNL     1      30.773 -23.812 -15.258  0.00  0.00    +0.096 A 
ATOM     21  C   UNL     1      32.016 -24.204 -14.814  0.00  0.00    +0.022 C 
ATOM     22  C   UNL     1      28.603 -23.484 -15.610  0.00  0.00    +0.419 A 
ATOM     23  H   UNL     1      29.313 -24.774 -14.083  0.00  0.00    +0.172 HD
ENDBRANCH  10  16
ENDBRANCH   8  11
BRANCH   3  24
ATOM     24  C   UNL     1      35.305 -18.513 -23.228  0.00  0.00    +0.026 C 
BRANCH  24  26
ATOM     25  F   UNL     1      33.502 -13.300 -24.311  0.00  0.00    -0.204 F 
ATOM     26  C   UNL     1      34.821 -17.118 -23.518  0.00  0.00    -0.022 C 
ATOM     27  C   UNL     1      34.136 -16.862 -24.697  0.00  0.00    -0.002 C 
ATOM     28  C   UNL     1      35.069 -16.104 -22.602  0.00  0.00    -0.002 C 
ATOM     29  C   UNL     1      33.688 -15.569 -24.965  0.00  0.00    +0.029 C 
ATOM     30  C   UNL     1      34.621 -14.811 -22.870  0.00  0.00    +0.029 C 
ATOM     31  C   UNL     1      33.930 -14.543 -24.052  0.00  0.00    +0.140 C 
ENDBRANCH  24  26
ENDBRANCH   3  24
TORSDOF 4
ENDMDL
MODEL 8
REMARK VINA RESULT:     -10.9      4.427     10.106
REMARK  Name = 10200813
REMARK  4 active torsions:
REMARK  status: ('A' for Active; 'I' for Inactive)
REMARK    1  A    between atoms: C_3  and  C_24
REMARK    2  A    between atoms: C_8  and  C_11
REMARK    3  A    between atoms: N_10  and  C_16
REMARK    4  A    between atoms: C_24  and  C_26
REMARK                            x       y       z     vdW  Elec       q    Type
REMARK                         _______ _______ _______ _____ _____    ______ ____
ROOT
ATOM      1  O   UNL     1      37.515 -18.691 -20.639  0.00  0.00    -0.265 OA
ATOM      2  N   UNL     1      35.640 -20.106 -20.538  0.00  0.00    -0.272 N 
ATOM      3  C   UNL     1      34.156 -21.982 -18.904  0.00  0.00    +0.008 C 
ATOM      4  C   UNL     1      35.642 -21.687 -18.651  0.00  0.00    +0.022 C 
ATOM      5  C   UNL     1      33.478 -20.768 -19.559  0.00  0.00    +0.022 C 
ATOM      6  C   UNL     1      36.342 -21.234 -19.931  0.00  0.00    +0.094 C 
ATOM      7  C   UNL     1      34.219 -20.331 -20.820  0.00  0.00    +0.094 C 
ATOM      8  C   UNL     1      36.335 -18.945 -20.846  0.00  0.00    +0.303 C 
ENDROOT
BRANCH   8  11
ATOM      9  O   UNL     1      35.229 -18.065 -22.669  0.00  0.00    -0.265 OA
ATOM     10  N   UNL     1      35.320 -16.797 -20.673  0.00  0.00    -0.277 N 
ATOM     11  C   UNL     1      35.557 -17.872 -21.506  0.00  0.00    +0.303 C 
ATOM     12  H   UNL     1      35.684 -16.862 -19.760  0.00  0.00    +0.155 HD
BRANCH  10  16
ATOM     13  O   UNL     1      34.212 -13.067 -23.607  0.00  0.00    -0.407 OA
ATOM     14  O   UNL     1      33.064 -11.131 -24.139  0.00  0.00    -0.223 OA
ATOM     15  N   UNL     1      32.702 -12.206 -22.103  0.00  0.00    -0.287 N 
ATOM     16  C   UNL     1      34.613 -15.612 -20.985  0.00  0.00    +0.054 C 
ATOM     17  C   UNL     1      34.847 -14.991 -22.205  0.00  0.00    +0.054 C 
ATOM     18  C   UNL     1      33.697 -15.106 -20.052  0.00  0.00    +0.016 C 
ATOM     19  C   UNL     1      34.132 -13.841 -22.460  0.00  0.00    +0.167 A 
ATOM     20  C   UNL     1      33.231 -13.339 -21.546  0.00  0.00    +0.096 A 
ATOM     21  C   UNL     1      32.983 -13.939 -20.331  0.00  0.00    +0.022 C 
ATOM     22  C   UNL     1      33.289 -12.037 -23.346  0.00  0.00    +0.419 A 
ATOM     23  H   UNL     1      32.026 -11.617 -21.695  0.00  0.00    +0.172 HD
ENDBRANCH  10  16
ENDBRANCH   8  11
BRANCH   3  24
ATOM     24  C   UNL     1      33.449 -22.366 -17.607  0.00  0.00    +0.026 C 
BRANCH  24  26
ATOM     25  F   UNL     1      37.064 -24.352 -13.789  0.00  0.00    -0.204 F 
ATOM     26  C   UNL     1      34.416 -22.898 -16.585  0.00  0.00    -0.022 C 
ATOM     27  C   UNL     1      34.063 -23.997 -15.815  0.00  0.00    -0.002 C 
ATOM     28  C   UNL     1      35.650 -22.281 -16.426  0.00  0.00    -0.002 C 
ATOM     29  C   UNL     1      34.961 -24.490 -14.868  0.00  0.00    +0.029 C 
ATOM     30  C   UNL     1      36.548 -22.774 -15.479  0.00  0.00    +0.029 C 
ATOM     31  C   UNL     1      36.203 -23.879 -14.700  0.00  0.00    +0.140 C 
ENDBRANCH  24  26
ENDBRANCH   3  24
TORSDOF 4
ENDMDL
MODEL 9
REMARK VINA RESULT:     -10.8      5.266     10.398
REMARK  Name = 10200813
REMARK  4 active torsions:
REMARK  status: ('A' for Active; 'I' for Inactive)
REMARK    1  A    between atoms: C_3  and  C_24
REMARK    2  A    between atoms: C_8  and  C_11
REMARK    3  A    between atoms: N_10  and  C_16
REMARK    4  A    between atoms: C_24  and  C_26
REMARK                            x       y       z     vdW  Elec       q    Type
REMARK                         _______ _______ _______ _____ _____    ______ ____
ROOT
ATOM      1  O   UNL     1      33.430 -13.613 -25.731  0.00  0.00    -0.265 OA
ATOM      2  N   UNL     1      33.680 -14.831 -23.736  0.00  0.00    -0.272 N 
ATOM      3  C   UNL     1      34.970 -17.096 -22.472  0.00  0.00    +0.008 C 
ATOM      4  C   UNL     1      34.778 -17.020 -23.995  0.00  0.00    +0.022 C 
ATOM      5  C   UNL     1      35.054 -15.682 -21.876  0.00  0.00    +0.022 C 
ATOM      6  C   UNL     1      33.576 -16.150 -24.357  0.00  0.00    +0.094 C 
ATOM      7  C   UNL     1      33.849 -14.837 -22.279  0.00  0.00    +0.094 C 
ATOM      8  C   UNL     1      33.572 -13.690 -24.517  0.00  0.00    +0.303 C 
ENDROOT
BRANCH   8  11
ATOM      9  O   UNL     1      34.606 -11.686 -24.030  0.00  0.00    -0.265 OA
ATOM     10  N   UNL     1      32.557 -12.198 -22.962  0.00  0.00    -0.277 N 
ATOM     11  C   UNL     1      33.636 -12.396 -23.798  0.00  0.00    +0.303 C 
ATOM     12  H   UNL     1      31.885 -12.917 -22.936  0.00  0.00    +0.155 HD
BRANCH  10  16
ATOM     13  O   UNL     1      32.506  -7.406 -22.078  0.00  0.00    -0.407 OA
ATOM     14  O   UNL     1      32.105  -5.558 -20.746  0.00  0.00    -0.223 OA
ATOM     15  N   UNL     1      31.675  -7.708 -19.956  0.00  0.00    -0.287 N 
ATOM     16  C   UNL     1      32.309 -11.076 -22.136  0.00  0.00    +0.054 C 
ATOM     17  C   UNL     1      32.575  -9.805 -22.631  0.00  0.00    +0.054 C 
ATOM     18  C   UNL     1      31.802 -11.285 -20.846  0.00  0.00    +0.016 C 
ATOM     19  C   UNL     1      32.315  -8.747 -21.787  0.00  0.00    +0.167 A 
ATOM     20  C   UNL     1      31.817  -8.948 -20.518  0.00  0.00    +0.096 A 
ATOM     21  C   UNL     1      31.546 -10.198 -20.008  0.00  0.00    +0.022 C 
ATOM     22  C   UNL     1      32.089  -6.774 -20.892  0.00  0.00    +0.419 A 
ATOM     23  H   UNL     1      31.339  -7.514 -19.050  0.00  0.00    +0.172 HD
ENDBRANCH  10  16
ENDBRANCH   8  11
BRANCH   3  24
ATOM     24  C   UNL     1      36.214 -17.909 -22.122  0.00  0.00    +0.026 C 
BRANCH  24  26
ATOM     25  F   UNL     1      35.029 -22.066 -18.530  0.00  0.00    -0.204 F 
ATOM     26  C   UNL     1      35.897 -19.021 -21.160  0.00  0.00    -0.022 C 
ATOM     27  C   UNL     1      36.911 -19.560 -20.380  0.00  0.00    -0.002 C 
ATOM     28  C   UNL     1      34.595 -19.494 -21.067  0.00  0.00    -0.002 C 
ATOM     29  C   UNL     1      36.616 -20.592 -19.488  0.00  0.00    +0.029 C 
ATOM     30  C   UNL     1      34.300 -20.525 -20.175  0.00  0.00    +0.029 C 
ATOM     31  C   UNL     1      35.311 -21.074 -19.386  0.00  0.00    +0.140 C 
ENDBRANCH  24  26
ENDBRANCH   3  24
TORSDOF 4
ENDMDL
