MODEL 1
REMARK VINA RESULT:     -12.4      0.000      0.000
REMARK  Name = 24767976
REMARK  5 active torsions:
REMARK  status: ('A' for Active; 'I' for Inactive)
REMARK    1  A    between atoms: C_1  and  N_9
REMARK    2  A    between atoms: C_2  and  O_19
REMARK    3  A    between atoms: C_10  and  C_14
REMARK    4  A    between atoms: O_19  and  C_27
REMARK    5  A    between atoms: C_31  and  C_33
REMARK                            x       y       z     vdW  Elec       q    Type
REMARK                         _______ _______ _______ _____ _____    ______ ____
ROOT
ATOM      1  C   UNL     1      35.396 -21.443 -18.624  0.00  0.00    +0.050 C 
ATOM      2  C   UNL     1      35.712 -19.771 -20.338  0.00  0.00    +0.148 C 
ATOM      3  C   UNL     1      34.042 -21.519 -18.947  0.00  0.00    -0.008 C 
ATOM      4  C   UNL     1      36.232 -20.569 -19.320  0.00  0.00    +0.052 C 
ATOM      5  C   UNL     1      33.522 -20.720 -19.966  0.00  0.00    +0.000 C 
ATOM      6  C   UNL     1      34.358 -19.846 -20.661  0.00  0.00    +0.037 C 
ATOM      7  C   UNL     1      33.124 -22.447 -18.218  0.00  0.00    +0.032 C 
ENDROOT
BRANCH   1   9
ATOM      8  O   UNL     1      37.353 -20.753 -16.460  0.00  0.00    -0.268 OA
ATOM      9  N   UNL     1      35.936 -22.236 -17.608  0.00  0.00    -0.279 N 
ATOM     10  C   UNL     1      36.851 -21.861 -16.618  0.00  0.00    +0.265 C 
ATOM     11  H   UNL     1      35.636 -23.174 -17.586  0.00  0.00    +0.155 HD
BRANCH  10  14
ATOM     12  N   UNL     1      36.420 -23.667 -14.893  0.00  0.00    -0.206 N 
ATOM     13  N   UNL     1      37.043 -24.591 -14.141  0.00  0.00    -0.182 NA
ATOM     14  C   UNL     1      37.262 -22.945 -15.687  0.00  0.00    +0.124 C 
ATOM     15  C   UNL     1      38.523 -23.430 -15.438  0.00  0.00    +0.037 C 
ATOM     16  C   UNL     1      38.327 -24.442 -14.478  0.00  0.00    +0.078 C 
ATOM     17  C   UNL     1      34.986 -23.528 -14.796  0.00  0.00    +0.140 C 
ATOM     18  C   UNL     1      39.351 -25.296 -13.854  0.00  0.00    +0.054 C 
ENDBRANCH  10  14
ENDBRANCH   1   9
BRANCH   2  19
ATOM     19  O   UNL     1      36.546 -18.897 -21.032  0.00  0.00    -0.435 OA
BRANCH  19  27
ATOM     20  N   UNL     1      33.786 -14.734 -22.904  0.00  0.00    -0.373 NA
ATOM     21  N   UNL     1      34.625 -15.994 -21.266  0.00  0.00    -0.173 N 
ATOM     22  N   UNL     1      35.292 -16.999 -20.634  0.00  0.00    -0.138 NA
ATOM     23  C   UNL     1      33.443 -14.210 -21.683  0.00  0.00    +0.187 C 
ATOM     24  C   UNL     1      33.948 -14.970 -20.656  0.00  0.00    +0.193 C 
ATOM     25  C   UNL     1      34.498 -15.809 -22.633  0.00  0.00    +0.204 C 
ATOM     26  C   UNL     1      35.124 -16.759 -23.474  0.00  0.00    +0.054 C 
ATOM     27  C   UNL     1      35.840 -17.831 -21.459  0.00  0.00    +0.245 C 
ATOM     28  C   UNL     1      35.801 -17.780 -22.936  0.00  0.00    +0.063 C 
ATOM     29  O   UNL     1      32.498 -12.770 -19.215  0.00  0.00    -0.275 OA
ATOM     30  N   UNL     1      32.688 -13.069 -21.549  0.00  0.00    -0.261 N 
ATOM     31  C   UNL     1      32.266 -12.427 -20.366  0.00  0.00    +0.227 C 
ATOM     32  H   UNL     1      32.404 -12.644 -22.389  0.00  0.00    +0.157 HD
BRANCH  31  33
ATOM     33  C   UNL     1      31.450 -11.191 -20.589  0.00  0.00    +0.077 C 
ATOM     34  C   UNL     1      32.080  -9.849 -20.353  0.00  0.00    +0.010 C 
ATOM     35  C   UNL     1      31.039 -10.366 -19.404  0.00  0.00    +0.010 C 
ENDBRANCH  31  33
ENDBRANCH  19  27
ENDBRANCH   2  19
TORSDOF 5
ENDMDL
MODEL 2
REMARK VINA RESULT:     -12.1      1.653      1.913
REMARK  Name = 24767976
REMARK  5 active torsions:
REMARK  status: ('A' for Active; 'I' for Inactive)
REMARK    1  A    between atoms: C_1  and  N_9
REMARK    2  A    between atoms: C_2  and  O_19
REMARK    3  A    between atoms: C_10  and  C_14
REMARK    4  A    between atoms: O_19  and  C_27
REMARK    5  A    between atoms: C_31  and  C_33
REMARK                            x       y       z     vdW  Elec       q    Type
REMARK                         _______ _______ _______ _____ _____    ______ ____
ROOT
ATOM      1  C   UNL     1      35.183 -21.989 -18.028  0.00  0.00    +0.050 C 
ATOM      2  C   UNL     1      35.747 -20.510 -19.852  0.00  0.00    +0.148 C 
ATOM      3  C   UNL     1      33.837 -21.915 -18.383  0.00  0.00    -0.008 C 
ATOM      4  C   UNL     1      36.139 -21.286 -18.762  0.00  0.00    +0.052 C 
ATOM      5  C   UNL     1      33.446 -21.138 -19.475  0.00  0.00    +0.000 C 
ATOM      6  C   UNL     1      34.401 -20.436 -20.209  0.00  0.00    +0.037 C 
ATOM      7  C   UNL     1      32.792 -22.657 -17.615  0.00  0.00    +0.032 C 
ENDROOT
BRANCH   1   9
ATOM      8  O   UNL     1      37.192 -21.400 -15.881  0.00  0.00    -0.268 OA
ATOM      9  N   UNL     1      35.595 -22.762 -16.939  0.00  0.00    -0.279 N 
ATOM     10  C   UNL     1      36.543 -22.437 -15.962  0.00  0.00    +0.265 C 
ATOM     11  H   UNL     1      35.166 -23.644 -16.849  0.00  0.00    +0.155 HD
BRANCH  10  14
ATOM     12  N   UNL     1      35.836 -24.047 -14.136  0.00  0.00    -0.206 N 
ATOM     13  N   UNL     1      36.317 -24.976 -13.292  0.00  0.00    -0.182 NA
ATOM     14  C   UNL     1      36.787 -23.487 -14.938  0.00  0.00    +0.124 C 
ATOM     15  C   UNL     1      37.972 -24.092 -14.595  0.00  0.00    +0.037 C 
ATOM     16  C   UNL     1      37.621 -24.999 -13.577  0.00  0.00    +0.078 C 
ATOM     17  C   UNL     1      34.425 -23.739 -14.118  0.00  0.00    +0.140 C 
ATOM     18  C   UNL     1      38.514 -25.914 -12.846  0.00  0.00    +0.054 C 
ENDBRANCH  10  14
ENDBRANCH   1   9
BRANCH   2  19
ATOM     19  O   UNL     1      36.701 -19.808 -20.585  0.00  0.00    -0.435 OA
BRANCH  19  27
ATOM     20  N   UNL     1      34.265 -16.567 -24.052  0.00  0.00    -0.373 NA
ATOM     21  N   UNL     1      35.287 -17.011 -22.120  0.00  0.00    -0.173 N 
ATOM     22  N   UNL     1      35.924 -17.704 -21.134  0.00  0.00    -0.138 NA
ATOM     23  C   UNL     1      34.345 -15.430 -23.288  0.00  0.00    +0.187 C 
ATOM     24  C   UNL     1      34.971 -15.679 -22.090  0.00  0.00    +0.193 C 
ATOM     25  C   UNL     1      34.838 -17.510 -23.331  0.00  0.00    +0.204 C 
ATOM     26  C   UNL     1      35.057 -18.884 -23.586  0.00  0.00    +0.054 C 
ATOM     27  C   UNL     1      36.092 -18.952 -21.430  0.00  0.00    +0.245 C 
ATOM     28  C   UNL     1      35.676 -19.640 -22.671  0.00  0.00    +0.063 C 
ATOM     29  O   UNL     1      34.330 -12.749 -21.920  0.00  0.00    -0.275 OA
ATOM     30  N   UNL     1      33.849 -14.218 -23.704  0.00  0.00    -0.261 N 
ATOM     31  C   UNL     1      33.863 -12.981 -23.027  0.00  0.00    +0.227 C 
ATOM     32  H   UNL     1      33.428 -14.212 -24.593  0.00  0.00    +0.157 HD
BRANCH  31  33
ATOM     33  C   UNL     1      33.231 -11.852 -23.782  0.00  0.00    +0.077 C 
ATOM     34  C   UNL     1      33.939 -10.531 -23.845  0.00  0.00    +0.010 C 
ATOM     35  C   UNL     1      32.694 -10.677 -23.020  0.00  0.00    +0.010 C 
ENDBRANCH  31  33
ENDBRANCH  19  27
ENDBRANCH   2  19
TORSDOF 5
ENDMDL
MODEL 3
REMARK VINA RESULT:     -11.7      3.491     12.476
REMARK  Name = 24767976
REMARK  5 active torsions:
REMARK  status: ('A' for Active; 'I' for Inactive)
REMARK    1  A    between atoms: C_1  and  N_9
REMARK    2  A    between atoms: C_2  and  O_19
REMARK    3  A    between atoms: C_10  and  C_14
REMARK    4  A    between atoms: O_19  and  C_27
REMARK    5  A    between atoms: C_31  and  C_33
REMARK                            x       y       z     vdW  Elec       q    Type
REMARK                         _______ _______ _______ _____ _____    ______ ____
ROOT
ATOM      1  C   UNL     1      32.362 -10.911 -22.575  0.00  0.00    +0.050 C 
ATOM      2  C   UNL     1      33.607 -12.871 -23.239  0.00  0.00    +0.148 C 
ATOM      3  C   UNL     1      31.771 -11.636 -21.542  0.00  0.00    -0.008 C 
ATOM      4  C   UNL     1      33.280 -11.528 -23.425  0.00  0.00    +0.052 C 
ATOM      5  C   UNL     1      32.098 -12.979 -21.356  0.00  0.00    +0.000 C 
ATOM      6  C   UNL     1      33.016 -13.597 -22.206  0.00  0.00    +0.037 C 
ATOM      7  C   UNL     1      30.783 -11.000 -20.617  0.00  0.00    +0.032 C 
ENDROOT
BRANCH   1   9
ATOM      8  O   UNL     1      34.154  -8.523 -22.856  0.00  0.00    -0.268 OA
ATOM      9  N   UNL     1      32.048  -9.564 -22.776  0.00  0.00    -0.279 N 
ATOM     10  C   UNL     1      32.929  -8.484 -22.901  0.00  0.00    +0.265 C 
ATOM     11  H   UNL     1      31.089  -9.348 -22.836  0.00  0.00    +0.155 HD
BRANCH  10  14
ATOM     12  N   UNL     1      32.008  -6.269 -22.080  0.00  0.00    -0.206 N 
ATOM     13  N   UNL     1      31.423  -5.137 -22.506  0.00  0.00    -0.182 NA
ATOM     14  C   UNL     1      32.287  -7.155 -23.080  0.00  0.00    +0.124 C 
ATOM     15  C   UNL     1      31.853  -6.561 -24.240  0.00  0.00    +0.037 C 
ATOM     16  C   UNL     1      31.332  -5.321 -23.826  0.00  0.00    +0.078 C 
ATOM     17  C   UNL     1      32.277  -6.439 -20.671  0.00  0.00    +0.140 C 
ATOM     18  C   UNL     1      30.731  -4.274 -24.670  0.00  0.00    +0.054 C 
ENDBRANCH  10  14
ENDBRANCH   1   9
BRANCH   2  19
ATOM     19  O   UNL     1      34.523 -13.488 -24.087  0.00  0.00    -0.435 OA
BRANCH  19  27
ATOM     20  N   UNL     1      34.576 -18.757 -23.256  0.00  0.00    -0.373 NA
ATOM     21  N   UNL     1      35.088 -16.651 -22.727  0.00  0.00    -0.173 N 
ATOM     22  N   UNL     1      35.164 -15.293 -22.797  0.00  0.00    -0.138 NA
ATOM     23  C   UNL     1      35.301 -18.725 -22.091  0.00  0.00    +0.187 C 
ATOM     24  C   UNL     1      35.630 -17.437 -21.745  0.00  0.00    +0.193 C 
ATOM     25  C   UNL     1      34.458 -17.497 -23.624  0.00  0.00    +0.204 C 
ATOM     26  C   UNL     1      33.820 -16.900 -24.738  0.00  0.00    +0.054 C 
ATOM     27  C   UNL     1      34.562 -14.812 -23.836  0.00  0.00    +0.245 C 
ATOM     28  C   UNL     1      33.846 -15.570 -24.884  0.00  0.00    +0.063 C 
ATOM     29  O   UNL     1      36.856 -19.062 -19.536  0.00  0.00    -0.275 OA
ATOM     30  N   UNL     1      35.635 -19.861 -21.392  0.00  0.00    -0.261 N 
ATOM     31  C   UNL     1      36.369 -19.973 -20.194  0.00  0.00    +0.227 C 
ATOM     32  H   UNL     1      35.320 -20.708 -21.780  0.00  0.00    +0.157 HD
BRANCH  31  33
ATOM     33  C   UNL     1      36.547 -21.377 -19.704  0.00  0.00    +0.077 C 
ATOM     34  C   UNL     1      35.377 -22.089 -19.091  0.00  0.00    +0.010 C 
ATOM     35  C   UNL     1      36.520 -21.642 -18.227  0.00  0.00    +0.010 C 
ENDBRANCH  31  33
ENDBRANCH  19  27
ENDBRANCH   2  19
TORSDOF 5
ENDMDL
MODEL 4
REMARK VINA RESULT:     -11.3      2.339     10.833
REMARK  Name = 24767976
REMARK  5 active torsions:
REMARK  status: ('A' for Active; 'I' for Inactive)
REMARK    1  A    between atoms: C_1  and  N_9
REMARK    2  A    between atoms: C_2  and  O_19
REMARK    3  A    between atoms: C_10  and  C_14
REMARK    4  A    between atoms: O_19  and  C_27
REMARK    5  A    between atoms: C_31  and  C_33
REMARK                            x       y       z     vdW  Elec       q    Type
REMARK                         _______ _______ _______ _____ _____    ______ ____
ROOT
ATOM      1  C   UNL     1      35.074 -19.059 -21.035  0.00  0.00    +0.050 C 
ATOM      2  C   UNL     1      34.217 -20.992 -19.868  0.00  0.00    +0.148 C 
ATOM      3  C   UNL     1      36.377 -19.477 -20.773  0.00  0.00    -0.008 C 
ATOM      4  C   UNL     1      33.993 -19.816 -20.582  0.00  0.00    +0.052 C 
ATOM      5  C   UNL     1      36.602 -20.655 -20.058  0.00  0.00    +0.000 C 
ATOM      6  C   UNL     1      35.521 -21.412 -19.605  0.00  0.00    +0.037 C 
ATOM      7  C   UNL     1      37.554 -18.686 -21.245  0.00  0.00    +0.032 C 
ENDROOT
BRANCH   1   9
ATOM      8  O   UNL     1      35.172 -16.195 -20.150  0.00  0.00    -0.268 OA
ATOM      9  N   UNL     1      34.829 -17.883 -21.750  0.00  0.00    -0.279 N 
ATOM     10  C   UNL     1      34.889 -16.565 -21.285  0.00  0.00    +0.265 C 
ATOM     11  H   UNL     1      34.583 -17.997 -22.697  0.00  0.00    +0.155 HD
BRANCH  10  14
ATOM     12  N   UNL     1      34.409 -15.725 -23.628  0.00  0.00    -0.206 N 
ATOM     13  N   UNL     1      34.093 -14.615 -24.316  0.00  0.00    -0.182 NA
ATOM     14  C   UNL     1      34.545 -15.520 -22.286  0.00  0.00    +0.124 C 
ATOM     15  C   UNL     1      34.301 -14.184 -22.082  0.00  0.00    +0.037 C 
ATOM     16  C   UNL     1      34.028 -13.677 -23.367  0.00  0.00    +0.078 C 
ATOM     17  C   UNL     1      34.569 -16.974 -24.336  0.00  0.00    +0.140 C 
ATOM     18  C   UNL     1      33.698 -12.289 -23.732  0.00  0.00    +0.054 C 
ENDBRANCH  10  14
ENDBRANCH   1   9
BRANCH   2  19
ATOM     19  O   UNL     1      33.139 -21.749 -19.416  0.00  0.00    -0.435 OA
BRANCH  19  27
ATOM     20  N   UNL     1      33.943 -23.583 -14.472  0.00  0.00    -0.373 NA
ATOM     21  N   UNL     1      34.634 -22.876 -16.471  0.00  0.00    -0.173 N 
ATOM     22  N   UNL     1      34.596 -22.407 -17.750  0.00  0.00    -0.138 NA
ATOM     23  C   UNL     1      35.314 -23.608 -14.534  0.00  0.00    +0.187 C 
ATOM     24  C   UNL     1      35.764 -23.177 -15.758  0.00  0.00    +0.193 C 
ATOM     25  C   UNL     1      33.551 -23.139 -15.649  0.00  0.00    +0.204 C 
ATOM     26  C   UNL     1      32.262 -22.900 -16.181  0.00  0.00    +0.054 C 
ATOM     27  C   UNL     1      33.390 -22.210 -18.174  0.00  0.00    +0.245 C 
ATOM     28  C   UNL     1      32.133 -22.439 -17.431  0.00  0.00    +0.063 C 
ATOM     29  O   UNL     1      38.307 -23.802 -14.287  0.00  0.00    -0.275 OA
ATOM     30  N   UNL     1      36.099 -24.020 -13.483  0.00  0.00    -0.261 N 
ATOM     31  C   UNL     1      37.505 -24.095 -13.411  0.00  0.00    +0.227 C 
ATOM     32  H   UNL     1      35.615 -24.298 -12.674  0.00  0.00    +0.157 HD
BRANCH  31  33
ATOM     33  C   UNL     1      38.034 -24.590 -12.100  0.00  0.00    +0.077 C 
ATOM     34  C   UNL     1      37.861 -26.038 -11.745  0.00  0.00    +0.010 C 
ATOM     35  C   UNL     1      37.064 -24.988 -11.027  0.00  0.00    +0.010 C 
ENDBRANCH  31  33
ENDBRANCH  19  27
ENDBRANCH   2  19
TORSDOF 5
ENDMDL
MODEL 5
REMARK VINA RESULT:     -10.8      3.202      4.700
REMARK  Name = 24767976
REMARK  5 active torsions:
REMARK  status: ('A' for Active; 'I' for Inactive)
REMARK    1  A    between atoms: C_1  and  N_9
REMARK    2  A    between atoms: C_2  and  O_19
REMARK    3  A    between atoms: C_10  and  C_14
REMARK    4  A    between atoms: O_19  and  C_27
REMARK    5  A    between atoms: C_31  and  C_33
REMARK                            x       y       z     vdW  Elec       q    Type
REMARK                         _______ _______ _______ _____ _____    ______ ____
ROOT
ATOM      1  C   UNL     1      34.165 -23.105 -15.915  0.00  0.00    +0.050 C 
ATOM      2  C   UNL     1      34.483 -22.823 -18.293  0.00  0.00    +0.148 C 
ATOM      3  C   UNL     1      32.826 -22.744 -16.051  0.00  0.00    -0.008 C 
ATOM      4  C   UNL     1      34.995 -23.145 -17.037  0.00  0.00    +0.052 C 
ATOM      5  C   UNL     1      32.314 -22.421 -17.309  0.00  0.00    +0.000 C 
ATOM      6  C   UNL     1      33.143 -22.461 -18.430  0.00  0.00    +0.037 C 
ATOM      7  C   UNL     1      31.914 -22.692 -14.867  0.00  0.00    +0.032 C 
ENDROOT
BRANCH   1   9
ATOM      8  O   UNL     1      35.709 -25.521 -15.036  0.00  0.00    -0.268 OA
ATOM      9  N   UNL     1      34.696 -23.432 -14.665  0.00  0.00    -0.279 N 
ATOM     10  C   UNL     1      35.412 -24.580 -14.307  0.00  0.00    +0.265 C 
ATOM     11  H   UNL     1      34.546 -22.774 -13.947  0.00  0.00    +0.155 HD
BRANCH  10  14
ATOM     12  N   UNL     1      37.089 -24.898 -12.433  0.00  0.00    -0.206 N 
ATOM     13  N   UNL     1      37.197 -24.915 -11.094  0.00  0.00    -0.182 NA
ATOM     14  C   UNL     1      35.823 -24.655 -12.880  0.00  0.00    +0.124 C 
ATOM     15  C   UNL     1      35.050 -24.503 -11.755  0.00  0.00    +0.037 C 
ATOM     16  C   UNL     1      35.949 -24.673 -10.685  0.00  0.00    +0.078 C 
ATOM     17  C   UNL     1      38.265 -25.128 -13.240  0.00  0.00    +0.140 C 
ATOM     18  C   UNL     1      35.650 -24.611  -9.245  0.00  0.00    +0.054 C 
ENDBRANCH  10  14
ENDBRANCH   1   9
BRANCH   2  19
ATOM     19  O   UNL     1      35.311 -22.861 -19.413  0.00  0.00    -0.435 OA
BRANCH  19  27
ATOM     20  N   UNL     1      36.278 -17.888 -21.083  0.00  0.00    -0.373 NA
ATOM     21  N   UNL     1      35.266 -19.872 -21.211  0.00  0.00    -0.173 N 
ATOM     22  N   UNL     1      34.911 -21.153 -20.915  0.00  0.00    -0.138 NA
ATOM     23  C   UNL     1      35.423 -17.913 -22.155  0.00  0.00    +0.187 C 
ATOM     24  C   UNL     1      34.787 -19.127 -22.257  0.00  0.00    +0.193 C 
ATOM     25  C   UNL     1      36.170 -19.078 -20.526  0.00  0.00    +0.204 C 
ATOM     26  C   UNL     1      36.800 -19.646 -19.393  0.00  0.00    +0.054 C 
ATOM     27  C   UNL     1      35.523 -21.611 -19.871  0.00  0.00    +0.245 C 
ATOM     28  C   UNL     1      36.510 -20.901 -19.030  0.00  0.00    +0.063 C 
ATOM     29  O   UNL     1      33.667 -17.585 -24.578  0.00  0.00    -0.275 OA
ATOM     30  N   UNL     1      35.254 -16.840 -22.997  0.00  0.00    -0.261 N 
ATOM     31  C   UNL     1      34.417 -16.729 -24.126  0.00  0.00    +0.227 C 
ATOM     32  H   UNL     1      35.788 -16.042 -22.783  0.00  0.00    +0.157 HD
BRANCH  31  33
ATOM     33  C   UNL     1      34.479 -15.402 -24.818  0.00  0.00    +0.077 C 
ATOM     34  C   UNL     1      33.682 -14.255 -24.268  0.00  0.00    +0.010 C 
ATOM     35  C   UNL     1      33.269 -14.907 -25.555  0.00  0.00    +0.010 C 
ENDBRANCH  31  33
ENDBRANCH  19  27
ENDBRANCH   2  19
TORSDOF 5
ENDMDL
MODEL 6
REMARK VINA RESULT:     -10.8      1.859     10.606
REMARK  Name = 24767976
REMARK  5 active torsions:
REMARK  status: ('A' for Active; 'I' for Inactive)
REMARK    1  A    between atoms: C_1  and  N_9
REMARK    2  A    between atoms: C_2  and  O_19
REMARK    3  A    between atoms: C_10  and  C_14
REMARK    4  A    between atoms: O_19  and  C_27
REMARK    5  A    between atoms: C_31  and  C_33
REMARK                            x       y       z     vdW  Elec       q    Type
REMARK                         _______ _______ _______ _____ _____    ______ ____
ROOT
ATOM      1  C   UNL     1      34.964 -17.055 -22.631  0.00  0.00    +0.050 C 
ATOM      2  C   UNL     1      36.345 -18.642 -21.445  0.00  0.00    +0.148 C 
ATOM      3  C   UNL     1      34.645 -18.034 -23.571  0.00  0.00    -0.008 C 
ATOM      4  C   UNL     1      35.814 -17.358 -21.568  0.00  0.00    +0.052 C 
ATOM      5  C   UNL     1      35.177 -19.318 -23.448  0.00  0.00    +0.000 C 
ATOM      6  C   UNL     1      36.027 -19.622 -22.385  0.00  0.00    +0.037 C 
ATOM      7  C   UNL     1      33.737 -17.737 -24.721  0.00  0.00    +0.032 C 
ENDROOT
BRANCH   1   9
ATOM      8  O   UNL     1      34.866 -14.833 -20.620  0.00  0.00    -0.268 OA
ATOM      9  N   UNL     1      34.441 -15.763 -22.737  0.00  0.00    -0.279 N 
ATOM     10  C   UNL     1      34.421 -14.760 -21.761  0.00  0.00    +0.265 C 
ATOM     11  H   UNL     1      34.036 -15.531 -23.604  0.00  0.00    +0.155 HD
BRANCH  10  14
ATOM     12  N   UNL     1      32.676 -12.933 -21.561  0.00  0.00    -0.206 N 
ATOM     13  N   UNL     1      32.273 -11.780 -22.122  0.00  0.00    -0.182 NA
ATOM     14  C   UNL     1      33.764 -13.490 -22.167  0.00  0.00    +0.124 C 
ATOM     15  C   UNL     1      34.095 -12.643 -23.196  0.00  0.00    +0.037 C 
ATOM     16  C   UNL     1      33.144 -11.607 -23.119  0.00  0.00    +0.078 C 
ATOM     17  C   UNL     1      31.955 -13.455 -20.422  0.00  0.00    +0.140 C 
ATOM     18  C   UNL     1      33.034 -10.425 -23.990  0.00  0.00    +0.054 C 
ENDBRANCH  10  14
ENDBRANCH   1   9
BRANCH   2  19
ATOM     19  O   UNL     1      37.195 -18.946 -20.384  0.00  0.00    -0.435 OA
BRANCH  19  27
ATOM     20  N   UNL     1      34.809 -22.662 -17.392  0.00  0.00    -0.373 NA
ATOM     21  N   UNL     1      36.451 -21.223 -17.847  0.00  0.00    -0.173 N 
ATOM     22  N   UNL     1      37.182 -20.273 -18.494  0.00  0.00    -0.138 NA
ATOM     23  C   UNL     1      35.760 -22.704 -16.404  0.00  0.00    +0.187 C 
ATOM     24  C   UNL     1      36.784 -21.825 -16.662  0.00  0.00    +0.193 C 
ATOM     25  C   UNL     1      35.243 -21.764 -18.253  0.00  0.00    +0.204 C 
ATOM     26  C   UNL     1      34.697 -21.288 -19.469  0.00  0.00    +0.054 C 
ATOM     27  C   UNL     1      36.628 -19.881 -19.596  0.00  0.00    +0.245 C 
ATOM     28  C   UNL     1      35.350 -20.353 -20.170  0.00  0.00    +0.063 C 
ATOM     29  O   UNL     1      37.612 -23.077 -14.061  0.00  0.00    -0.275 OA
ATOM     30  N   UNL     1      35.663 -23.533 -15.312  0.00  0.00    -0.261 N 
ATOM     31  C   UNL     1      36.559 -23.677 -14.233  0.00  0.00    +0.227 C 
ATOM     32  H   UNL     1      34.862 -24.103 -15.280  0.00  0.00    +0.157 HD
BRANCH  31  33
ATOM     33  C   UNL     1      36.136 -24.680 -13.205  0.00  0.00    +0.077 C 
ATOM     34  C   UNL     1      35.435 -24.204 -11.966  0.00  0.00    +0.010 C 
ATOM     35  C   UNL     1      36.844 -24.711 -11.882  0.00  0.00    +0.010 C 
ENDBRANCH  31  33
ENDBRANCH  19  27
ENDBRANCH   2  19
TORSDOF 5
ENDMDL
MODEL 7
REMARK VINA RESULT:     -10.6      4.459      8.556
REMARK  Name = 24767976
REMARK  5 active torsions:
REMARK  status: ('A' for Active; 'I' for Inactive)
REMARK    1  A    between atoms: C_1  and  N_9
REMARK    2  A    between atoms: C_2  and  O_19
REMARK    3  A    between atoms: C_10  and  C_14
REMARK    4  A    between atoms: O_19  and  C_27
REMARK    5  A    between atoms: C_31  and  C_33
REMARK                            x       y       z     vdW  Elec       q    Type
REMARK                         _______ _______ _______ _____ _____    ______ ____
ROOT
ATOM      1  C   UNL     1      33.531 -14.110 -21.650  0.00  0.00    +0.050 C 
ATOM      2  C   UNL     1      33.393 -12.067 -22.932  0.00  0.00    +0.148 C 
ATOM      3  C   UNL     1      32.661 -13.575 -20.702  0.00  0.00    -0.008 C 
ATOM      4  C   UNL     1      33.898 -13.357 -22.766  0.00  0.00    +0.052 C 
ATOM      5  C   UNL     1      32.157 -12.284 -20.868  0.00  0.00    +0.000 C 
ATOM      6  C   UNL     1      32.523 -11.531 -21.983  0.00  0.00    +0.037 C 
ATOM      7  C   UNL     1      32.252 -14.359 -19.497  0.00  0.00    +0.032 C 
ENDROOT
BRANCH   1   9
ATOM      8  O   UNL     1      35.551 -15.592 -23.298  0.00  0.00    -0.268 OA
ATOM      9  N   UNL     1      34.046 -15.401 -21.502  0.00  0.00    -0.279 N 
ATOM     10  C   UNL     1      34.993 -16.047 -22.305  0.00  0.00    +0.265 C 
ATOM     11  H   UNL     1      33.700 -15.919 -20.740  0.00  0.00    +0.155 HD
BRANCH  10  14
ATOM     12  N   UNL     1      35.015 -18.562 -22.620  0.00  0.00    -0.206 N 
ATOM     13  N   UNL     1      35.423 -19.703 -22.039  0.00  0.00    -0.182 NA
ATOM     14  C   UNL     1      35.321 -17.441 -21.905  0.00  0.00    +0.124 C 
ATOM     15  C   UNL     1      35.974 -17.880 -20.779  0.00  0.00    +0.037 C 
ATOM     16  C   UNL     1      36.008 -19.281 -20.915  0.00  0.00    +0.078 C 
ATOM     17  C   UNL     1      34.323 -18.622 -23.886  0.00  0.00    +0.140 C 
ATOM     18  C   UNL     1      36.596 -20.258 -19.984  0.00  0.00    +0.054 C 
ENDBRANCH  10  14
ENDBRANCH   1   9
BRANCH   2  19
ATOM     19  O   UNL     1      33.759 -11.314 -24.045  0.00  0.00    -0.435 OA
BRANCH  19  27
ATOM     20  N   UNL     1      33.983  -6.126 -22.825  0.00  0.00    -0.373 NA
ATOM     21  N   UNL     1      32.905  -8.051 -23.154  0.00  0.00    -0.173 N 
ATOM     22  N   UNL     1      32.681  -9.364 -23.441  0.00  0.00    -0.138 NA
ATOM     23  C   UNL     1      32.638  -5.955 -22.617  0.00  0.00    +0.187 C 
ATOM     24  C   UNL     1      31.950  -7.128 -22.814  0.00  0.00    +0.193 C 
ATOM     25  C   UNL     1      34.125  -7.396 -23.148  0.00  0.00    +0.204 C 
ATOM     26  C   UNL     1      35.270  -8.160 -23.474  0.00  0.00    +0.054 C 
ATOM     27  C   UNL     1      33.767 -10.004 -23.730  0.00  0.00    +0.245 C 
ATOM     28  C   UNL     1      35.141  -9.459 -23.770  0.00  0.00    +0.063 C 
ATOM     29  O   UNL     1      29.777  -5.191 -22.078  0.00  0.00    -0.275 OA
ATOM     30  N   UNL     1      32.088  -4.747 -22.259  0.00  0.00    -0.261 N 
ATOM     31  C   UNL     1      30.735  -4.432 -22.016  0.00  0.00    +0.227 C 
ATOM     32  H   UNL     1      32.723  -4.003 -22.159  0.00  0.00    +0.157 HD
BRANCH  31  33
ATOM     33  C   UNL     1      30.488  -3.004 -21.639  0.00  0.00    +0.077 C 
ATOM     34  C   UNL     1      30.157  -2.013 -22.717  0.00  0.00    +0.010 C 
ATOM     35  C   UNL     1      31.492  -1.962 -22.034  0.00  0.00    +0.010 C 
ENDBRANCH  31  33
ENDBRANCH  19  27
ENDBRANCH   2  19
TORSDOF 5
ENDMDL
MODEL 8
REMARK VINA RESULT:     -10.4      5.024     14.587
REMARK  Name = 24767976
REMARK  5 active torsions:
REMARK  status: ('A' for Active; 'I' for Inactive)
REMARK    1  A    between atoms: C_1  and  N_9
REMARK    2  A    between atoms: C_2  and  O_19
REMARK    3  A    between atoms: C_10  and  C_14
REMARK    4  A    between atoms: O_19  and  C_27
REMARK    5  A    between atoms: C_31  and  C_33
REMARK                            x       y       z     vdW  Elec       q    Type
REMARK                         _______ _______ _______ _____ _____    ______ ____
ROOT
ATOM      1  C   UNL     1      31.841  -7.222 -21.655  0.00  0.00    +0.050 C 
ATOM      2  C   UNL     1      31.405  -9.565 -21.264  0.00  0.00    +0.148 C 
ATOM      3  C   UNL     1      32.518  -7.144 -20.439  0.00  0.00    -0.008 C 
ATOM      4  C   UNL     1      31.284  -8.432 -22.068  0.00  0.00    +0.052 C 
ATOM      5  C   UNL     1      32.639  -8.278 -19.634  0.00  0.00    +0.000 C 
ATOM      6  C   UNL     1      32.082  -9.488 -20.047  0.00  0.00    +0.037 C 
ATOM      7  C   UNL     1      33.124  -5.861 -19.971  0.00  0.00    +0.032 C 
ENDROOT
BRANCH   1   9
ATOM      8  O   UNL     1      29.733  -5.090 -21.701  0.00  0.00    -0.268 OA
ATOM      9  N   UNL     1      31.711  -6.098 -22.475  0.00  0.00    -0.279 N 
ATOM     10  C   UNL     1      30.701  -5.129 -22.454  0.00  0.00    +0.265 C 
ATOM     11  H   UNL     1      32.416  -5.972 -23.152  0.00  0.00    +0.155 HD
BRANCH  10  14
ATOM     12  N   UNL     1      30.837  -2.719 -23.226  0.00  0.00    -0.206 N 
ATOM     13  N   UNL     1      30.957  -1.960 -24.328  0.00  0.00    -0.182 NA
ATOM     14  C   UNL     1      30.823  -4.059 -23.479  0.00  0.00    +0.124 C 
ATOM     15  C   UNL     1      30.941  -4.186 -24.841  0.00  0.00    +0.037 C 
ATOM     16  C   UNL     1      31.020  -2.861 -25.312  0.00  0.00    +0.078 C 
ATOM     17  C   UNL     1      30.739  -2.079 -21.934  0.00  0.00    +0.140 C 
ATOM     18  C   UNL     1      31.159  -2.412 -26.707  0.00  0.00    +0.054 C 
ENDBRANCH  10  14
ENDBRANCH   1   9
BRANCH   2  19
ATOM     19  O   UNL     1      30.849 -10.774 -21.676  0.00  0.00    -0.435 OA
BRANCH  19  27
ATOM     20  N   UNL     1      34.735 -13.960 -23.464  0.00  0.00    -0.373 NA
ATOM     21  N   UNL     1      33.120 -13.398 -22.032  0.00  0.00    -0.173 N 
ATOM     22  N   UNL     1      32.107 -12.697 -21.451  0.00  0.00    -0.138 NA
ATOM     23  C   UNL     1      34.628 -14.908 -22.478  0.00  0.00    +0.187 C 
ATOM     24  C   UNL     1      33.638 -14.584 -21.582  0.00  0.00    +0.193 C 
ATOM     25  C   UNL     1      33.818 -13.058 -23.179  0.00  0.00    +0.204 C 
ATOM     26  C   UNL     1      33.451 -11.854 -23.826  0.00  0.00    +0.054 C 
ATOM     27  C   UNL     1      31.822 -11.609 -22.091  0.00  0.00    +0.245 C 
ATOM     28  C   UNL     1      32.465 -11.102 -23.321  0.00  0.00    +0.063 C 
ATOM     29  O   UNL     1      34.696 -17.181 -20.507  0.00  0.00    -0.275 OA
ATOM     30  N   UNL     1      35.428 -16.025 -22.430  0.00  0.00    -0.261 N 
ATOM     31  C   UNL     1      35.426 -17.069 -21.483  0.00  0.00    +0.227 C 
ATOM     32  H   UNL     1      36.091 -16.106 -23.152  0.00  0.00    +0.157 HD
BRANCH  31  33
ATOM     33  C   UNL     1      36.441 -18.140 -21.737  0.00  0.00    +0.077 C 
ATOM     34  C   UNL     1      35.982 -19.563 -21.871  0.00  0.00    +0.010 C 
ATOM     35  C   UNL     1      36.743 -19.132 -20.652  0.00  0.00    +0.010 C 
ENDBRANCH  31  33
ENDBRANCH  19  27
ENDBRANCH   2  19
TORSDOF 5
ENDMDL
MODEL 9
REMARK VINA RESULT:     -10.3      2.266     10.315
REMARK  Name = 24767976
REMARK  5 active torsions:
REMARK  status: ('A' for Active; 'I' for Inactive)
REMARK    1  A    between atoms: C_1  and  N_9
REMARK    2  A    between atoms: C_2  and  O_19
REMARK    3  A    between atoms: C_10  and  C_14
REMARK    4  A    between atoms: O_19  and  C_27
REMARK    5  A    between atoms: C_31  and  C_33
REMARK                            x       y       z     vdW  Elec       q    Type
REMARK                         _______ _______ _______ _____ _____    ______ ____
ROOT
ATOM      1  C   UNL     1      34.175 -14.968 -22.638  0.00  0.00    +0.050 C 
ATOM      2  C   UNL     1      35.509 -16.982 -22.617  0.00  0.00    +0.148 C 
ATOM      3  C   UNL     1      33.845 -15.200 -23.973  0.00  0.00    -0.008 C 
ATOM      4  C   UNL     1      35.007 -15.859 -21.960  0.00  0.00    +0.052 C 
ATOM      5  C   UNL     1      34.347 -16.324 -24.631  0.00  0.00    +0.000 C 
ATOM      6  C   UNL     1      35.179 -17.215 -23.952  0.00  0.00    +0.037 C 
ATOM      7  C   UNL     1      32.956 -14.263 -24.725  0.00  0.00    +0.032 C 
ENDROOT
BRANCH   1   9
ATOM      8  O   UNL     1      31.992 -14.745 -20.595  0.00  0.00    -0.268 OA
ATOM      9  N   UNL     1      33.681 -13.850 -21.963  0.00  0.00    -0.279 N 
ATOM     10  C   UNL     1      32.654 -13.801 -21.013  0.00  0.00    +0.265 C 
ATOM     11  H   UNL     1      34.107 -12.989 -22.182  0.00  0.00    +0.155 HD
BRANCH  10  14
ATOM     12  N   UNL     1      32.031 -11.356 -21.250  0.00  0.00    -0.206 N 
ATOM     13  N   UNL     1      31.781 -10.247 -20.533  0.00  0.00    -0.182 NA
ATOM     14  C   UNL     1      32.334 -12.447 -20.490  0.00  0.00    +0.124 C 
ATOM     15  C   UNL     1      32.278 -12.022 -19.185  0.00  0.00    +0.037 C 
ATOM     16  C   UNL     1      31.933 -10.660 -19.272  0.00  0.00    +0.078 C 
ATOM     17  C   UNL     1      31.961 -11.295 -22.692  0.00  0.00    +0.140 C 
ATOM     18  C   UNL     1      31.737  -9.712 -18.163  0.00  0.00    +0.054 C 
ENDBRANCH  10  14
ENDBRANCH   1   9
BRANCH   2  19
ATOM     19  O   UNL     1      36.340 -17.871 -21.941  0.00  0.00    -0.435 OA
BRANCH  19  27
ATOM     20  N   UNL     1      33.265 -21.507 -19.537  0.00  0.00    -0.373 NA
ATOM     21  N   UNL     1      35.130 -20.303 -19.751  0.00  0.00    -0.173 N 
ATOM     22  N   UNL     1      36.030 -19.408 -20.245  0.00  0.00    -0.138 NA
ATOM     23  C   UNL     1      34.149 -21.824 -18.536  0.00  0.00    +0.187 C 
ATOM     24  C   UNL     1      35.308 -21.095 -18.647  0.00  0.00    +0.193 C 
ATOM     25  C   UNL     1      33.874 -20.588 -20.259  0.00  0.00    +0.204 C 
ATOM     26  C   UNL     1      33.469 -19.881 -21.415  0.00  0.00    +0.054 C 
ATOM     27  C   UNL     1      35.598 -18.797 -21.300  0.00  0.00    +0.245 C 
ATOM     28  C   UNL     1      34.292 -18.981 -21.967  0.00  0.00    +0.063 C 
ATOM     29  O   UNL     1      35.803 -22.782 -16.212  0.00  0.00    -0.275 OA
ATOM     30  N   UNL     1      33.871 -22.759 -17.567  0.00  0.00    -0.261 N 
ATOM     31  C   UNL     1      34.680 -23.179 -16.491  0.00  0.00    +0.227 C 
ATOM     32  H   UNL     1      32.991 -23.193 -17.633  0.00  0.00    +0.157 HD
BRANCH  31  33
ATOM     33  C   UNL     1      34.058 -24.224 -15.618  0.00  0.00    +0.077 C 
ATOM     34  C   UNL     1      32.891 -23.849 -14.751  0.00  0.00    +0.010 C 
ATOM     35  C   UNL     1      34.229 -24.127 -14.130  0.00  0.00    +0.010 C 
ENDBRANCH  31  33
ENDBRANCH  19  27
ENDBRANCH   2  19
TORSDOF 5
ENDMDL
