MODEL 1
REMARK VINA RESULT:     -12.1      0.000      0.000
REMARK  Name = 10389239
REMARK  2 active torsions:
REMARK  status: ('A' for Active; 'I' for Inactive)
REMARK    1  A    between atoms: C_2  and  C_14
REMARK    2  A    between atoms: C_4  and  C_20
REMARK                            x       y       z     vdW  Elec       q    Type
REMARK                         _______ _______ _______ _____ _____    ______ ____
ROOT
ATOM      1  N   UNL     1      32.478 -22.503 -17.562  0.00  0.00    -0.244 NA
ATOM      2  C   UNL     1      34.436 -23.552 -15.867  0.00  0.00    +0.016 C 
ATOM      3  C   UNL     1      34.802 -22.744 -16.937  0.00  0.00    +0.020 C 
ATOM      4  C   UNL     1      33.793 -22.249 -17.748  0.00  0.00    +0.083 C 
ATOM      5  C   UNL     1      33.094 -23.839 -15.643  0.00  0.00    +0.022 C 
ATOM      6  C   UNL     1      32.162 -23.293 -16.512  0.00  0.00    +0.099 C 
ENDROOT
BRANCH   2  14
ATOM      7  O   UNL     1      36.358 -25.846 -11.123  0.00  0.00    -0.270 OA
ATOM      8  N   UNL     1      36.777 -24.097 -15.328  0.00  0.00    -0.316 N 
ATOM      9  N   UNL     1      38.439 -26.008 -12.114  0.00  0.00    -0.300 N 
ATOM     10  C   UNL     1      37.490 -24.665 -14.312  0.00  0.00    +0.031 C 
ATOM     11  C   UNL     1      38.961 -24.835 -14.265  0.00  0.00    +0.063 C 
ATOM     12  C   UNL     1      36.616 -25.038 -13.313  0.00  0.00    +0.064 C 
ATOM     13  C   UNL     1      39.268 -26.008 -13.326  0.00  0.00    +0.096 C 
ATOM     14  C   UNL     1      35.446 -24.095 -14.990  0.00  0.00    +0.048 C 
ATOM     15  C   UNL     1      35.318 -24.668 -13.740  0.00  0.00    +0.020 C 
ATOM     16  C   UNL     1      37.089 -25.662 -12.092  0.00  0.00    +0.247 C 
ATOM     17  H   UNL     1      37.155 -23.747 -16.167  0.00  0.00    +0.152 HD
ATOM     18  H   UNL     1      38.864 -26.269 -11.265  0.00  0.00    +0.150 HD
ENDBRANCH   2  14
BRANCH   4  20
ATOM     19  N   UNL     1      33.337 -20.249 -20.858  0.00  0.00    -0.244 NA
ATOM     20  C   UNL     1      34.096 -21.403 -18.878  0.00  0.00    +0.037 C 
ATOM     21  C   UNL     1      35.381 -20.928 -19.096  0.00  0.00    +0.005 C 
ATOM     22  C   UNL     1      35.651 -20.107 -20.200  0.00  0.00    +0.018 C 
ATOM     23  C   UNL     1      34.585 -19.789 -21.068  0.00  0.00    +0.081 C 
ATOM     24  C   UNL     1      33.118 -21.038 -19.782  0.00  0.00    +0.100 C 
ATOM     25  C   UNL     1      36.941 -19.609 -20.449  0.00  0.00    +0.001 C 
ATOM     26  C   UNL     1      34.854 -18.974 -22.164  0.00  0.00    +0.019 C 
ATOM     27  C   UNL     1      37.182 -18.796 -21.554  0.00  0.00    +0.000 C 
ATOM     28  C   UNL     1      36.136 -18.479 -22.412  0.00  0.00    +0.002 C 
ENDBRANCH   4  20
TORSDOF 2
ENDMDL
MODEL 2
REMARK VINA RESULT:     -11.8      6.502     11.851
REMARK  Name = 10389239
REMARK  2 active torsions:
REMARK  status: ('A' for Active; 'I' for Inactive)
REMARK    1  A    between atoms: C_2  and  C_14
REMARK    2  A    between atoms: C_4  and  C_20
REMARK                            x       y       z     vdW  Elec       q    Type
REMARK                         _______ _______ _______ _____ _____    ______ ____
ROOT
ATOM      1  N   UNL     1      35.054 -17.630 -23.855  0.00  0.00    -0.244 NA
ATOM      2  C   UNL     1      34.051 -15.129 -23.117  0.00  0.00    +0.016 C 
ATOM      3  C   UNL     1      34.429 -16.043 -22.141  0.00  0.00    +0.020 C 
ATOM      4  C   UNL     1      34.920 -17.270 -22.559  0.00  0.00    +0.083 C 
ATOM      5  C   UNL     1      34.172 -15.462 -24.461  0.00  0.00    +0.022 C 
ATOM      6  C   UNL     1      34.676 -16.715 -24.774  0.00  0.00    +0.099 C 
ENDROOT
BRANCH   2  14
ATOM      7  O   UNL     1      33.231  -9.609 -23.683  0.00  0.00    -0.270 OA
ATOM      8  N   UNL     1      32.852 -13.643 -21.560  0.00  0.00    -0.316 N 
ATOM      9  N   UNL     1      31.855  -9.683 -21.828  0.00  0.00    -0.300 N 
ATOM     10  C   UNL     1      32.490 -12.330 -21.470  0.00  0.00    +0.031 C 
ATOM     11  C   UNL     1      31.764 -11.698 -20.343  0.00  0.00    +0.063 C 
ATOM     12  C   UNL     1      32.933 -11.671 -22.598  0.00  0.00    +0.064 C 
ATOM     13  C   UNL     1      31.041 -10.461 -20.886  0.00  0.00    +0.096 C 
ATOM     14  C   UNL     1      33.533 -13.836 -22.737  0.00  0.00    +0.048 C 
ATOM     15  C   UNL     1      33.603 -12.626 -23.399  0.00  0.00    +0.020 C 
ATOM     16  C   UNL     1      32.703 -10.250 -22.779  0.00  0.00    +0.247 C 
ATOM     17  H   UNL     1      32.657 -14.338 -20.891  0.00  0.00    +0.152 HD
ATOM     18  H   UNL     1      31.798  -8.701 -21.785  0.00  0.00    +0.150 HD
ENDBRANCH   2  14
BRANCH   4  20
ATOM     19  N   UNL     1      37.090 -19.254 -20.270  0.00  0.00    -0.244 NA
ATOM     20  C   UNL     1      35.333 -18.269 -21.603  0.00  0.00    +0.037 C 
ATOM     21  C   UNL     1      34.432 -19.193 -21.093  0.00  0.00    +0.005 C 
ATOM     22  C   UNL     1      34.857 -20.154 -20.166  0.00  0.00    +0.018 C 
ATOM     23  C   UNL     1      36.213 -20.149 -19.777  0.00  0.00    +0.081 C 
ATOM     24  C   UNL     1      36.640 -18.343 -21.163  0.00  0.00    +0.100 C 
ATOM     25  C   UNL     1      33.969 -21.103 -19.630  0.00  0.00    +0.001 C 
ATOM     26  C   UNL     1      36.634 -21.104 -18.856  0.00  0.00    +0.019 C 
ATOM     27  C   UNL     1      34.418 -22.047 -18.710  0.00  0.00    +0.000 C 
ATOM     28  C   UNL     1      35.752 -22.047 -18.323  0.00  0.00    +0.002 C 
ENDBRANCH   4  20
TORSDOF 2
ENDMDL
MODEL 3
REMARK VINA RESULT:     -11.6      3.332      8.512
REMARK  Name = 10389239
REMARK  2 active torsions:
REMARK  status: ('A' for Active; 'I' for Inactive)
REMARK    1  A    between atoms: C_2  and  C_14
REMARK    2  A    between atoms: C_4  and  C_20
REMARK                            x       y       z     vdW  Elec       q    Type
REMARK                         _______ _______ _______ _____ _____    ______ ____
ROOT
ATOM      1  N   UNL     1      35.994 -23.355 -15.161  0.00  0.00    -0.244 NA
ATOM      2  C   UNL     1      36.012 -21.826 -17.500  0.00  0.00    +0.016 C 
ATOM      3  C   UNL     1      34.814 -22.327 -17.004  0.00  0.00    +0.020 C 
ATOM      4  C   UNL     1      34.858 -23.079 -15.842  0.00  0.00    +0.083 C 
ATOM      5  C   UNL     1      37.201 -22.088 -16.830  0.00  0.00    +0.022 C 
ATOM      6  C   UNL     1      37.138 -22.851 -15.674  0.00  0.00    +0.099 C 
ENDROOT
BRANCH   2  14
ATOM      7  O   UNL     1      38.297 -18.451 -21.353  0.00  0.00    -0.270 OA
ATOM      8  N   UNL     1      34.893 -20.855 -19.468  0.00  0.00    -0.316 N 
ATOM      9  N   UNL     1      36.342 -18.618 -22.574  0.00  0.00    -0.300 N 
ATOM     10  C   UNL     1      35.203 -20.066 -20.538  0.00  0.00    +0.031 C 
ATOM     11  C   UNL     1      34.263 -19.608 -21.588  0.00  0.00    +0.063 C 
ATOM     12  C   UNL     1      36.541 -19.739 -20.474  0.00  0.00    +0.064 C 
ATOM     13  C   UNL     1      35.079 -19.312 -22.852  0.00  0.00    +0.096 C 
ATOM     14  C   UNL     1      36.022 -21.036 -18.708  0.00  0.00    +0.048 C 
ATOM     15  C   UNL     1      37.060 -20.348 -19.307  0.00  0.00    +0.020 C 
ATOM     16  C   UNL     1      37.159 -18.894 -21.478  0.00  0.00    +0.247 C 
ATOM     17  H   UNL     1      34.005 -21.233 -19.274  0.00  0.00    +0.152 HD
ATOM     18  H   UNL     1      36.629 -17.915 -23.199  0.00  0.00    +0.150 HD
ENDBRANCH   2  14
BRANCH   4  20
ATOM     19  N   UNL     1      32.609 -24.967 -13.548  0.00  0.00    -0.244 NA
ATOM     20  C   UNL     1      33.655 -23.632 -15.267  0.00  0.00    +0.037 C 
ATOM     21  C   UNL     1      32.412 -23.391 -15.834  0.00  0.00    +0.005 C 
ATOM     22  C   UNL     1      31.257 -23.939 -15.258  0.00  0.00    +0.018 C 
ATOM     23  C   UNL     1      31.404 -24.732 -14.100  0.00  0.00    +0.081 C 
ATOM     24  C   UNL     1      33.698 -24.421 -14.135  0.00  0.00    +0.100 C 
ATOM     25  C   UNL     1      29.983 -23.714 -15.807  0.00  0.00    +0.001 C 
ATOM     26  C   UNL     1      30.257 -25.275 -13.529  0.00  0.00    +0.019 C 
ATOM     27  C   UNL     1      28.852 -24.270 -15.214  0.00  0.00    +0.000 C 
ATOM     28  C   UNL     1      28.990 -25.052 -14.074  0.00  0.00    +0.002 C 
ENDBRANCH   4  20
TORSDOF 2
ENDMDL
MODEL 4
REMARK VINA RESULT:     -11.2      1.357      1.957
REMARK  Name = 10389239
REMARK  2 active torsions:
REMARK  status: ('A' for Active; 'I' for Inactive)
REMARK    1  A    between atoms: C_2  and  C_14
REMARK    2  A    between atoms: C_4  and  C_20
REMARK                            x       y       z     vdW  Elec       q    Type
REMARK                         _______ _______ _______ _____ _____    ______ ____
ROOT
ATOM      1  N   UNL     1      33.065 -22.338 -18.179  0.00  0.00    -0.244 NA
ATOM      2  C   UNL     1      34.545 -23.337 -16.029  0.00  0.00    +0.016 C 
ATOM      3  C   UNL     1      35.149 -22.503 -16.963  0.00  0.00    +0.020 C 
ATOM      4  C   UNL     1      34.372 -22.035 -18.011  0.00  0.00    +0.083 C 
ATOM      5  C   UNL     1      33.203 -23.674 -16.168  0.00  0.00    +0.022 C 
ATOM      6  C   UNL     1      32.513 -23.151 -17.251  0.00  0.00    +0.099 C 
ENDROOT
BRANCH   2  14
ATOM      7  O   UNL     1      37.277 -27.286 -13.130  0.00  0.00    -0.270 OA
ATOM      8  N   UNL     1      35.594 -23.088 -13.815  0.00  0.00    -0.316 N 
ATOM      9  N   UNL     1      37.872 -25.663 -11.596  0.00  0.00    -0.300 N 
ATOM     10  C   UNL     1      36.320 -23.837 -12.934  0.00  0.00    +0.031 C 
ATOM     11  C   UNL     1      36.807 -23.397 -11.606  0.00  0.00    +0.063 C 
ATOM     12  C   UNL     1      36.510 -25.093 -13.472  0.00  0.00    +0.064 C 
ATOM     13  C   UNL     1      38.033 -24.246 -11.250  0.00  0.00    +0.096 C 
ATOM     14  C   UNL     1      35.308 -23.854 -14.918  0.00  0.00    +0.048 C 
ATOM     15  C   UNL     1      35.860 -25.105 -14.729  0.00  0.00    +0.020 C 
ATOM     16  C   UNL     1      37.241 -26.118 -12.753  0.00  0.00    +0.247 C 
ATOM     17  H   UNL     1      35.322 -22.152 -13.681  0.00  0.00    +0.152 HD
ATOM     18  H   UNL     1      38.233 -26.334 -10.972  0.00  0.00    +0.150 HD
ENDBRANCH   2  14
BRANCH   4  20
ATOM     19  N   UNL     1      36.824 -19.928 -19.863  0.00  0.00    -0.244 NA
ATOM     20  C   UNL     1      34.929 -21.165 -19.018  0.00  0.00    +0.037 C 
ATOM     21  C   UNL     1      34.166 -20.721 -20.088  0.00  0.00    +0.005 C 
ATOM     22  C   UNL     1      34.730 -19.877 -21.054  0.00  0.00    +0.018 C 
ATOM     23  C   UNL     1      36.081 -19.499 -20.900  0.00  0.00    +0.081 C 
ATOM     24  C   UNL     1      36.242 -20.741 -18.952  0.00  0.00    +0.100 C 
ATOM     25  C   UNL     1      33.984 -19.411 -22.150  0.00  0.00    +0.001 C 
ATOM     26  C   UNL     1      36.640 -18.660 -21.860  0.00  0.00    +0.019 C 
ATOM     27  C   UNL     1      34.569 -18.572 -23.095  0.00  0.00    +0.000 C 
ATOM     28  C   UNL     1      35.899 -18.197 -22.950  0.00  0.00    +0.002 C 
ENDBRANCH   4  20
TORSDOF 2
ENDMDL
MODEL 5
REMARK VINA RESULT:     -11.1      4.725     10.419
REMARK  Name = 10389239
REMARK  2 active torsions:
REMARK  status: ('A' for Active; 'I' for Inactive)
REMARK    1  A    between atoms: C_2  and  C_14
REMARK    2  A    between atoms: C_4  and  C_20
REMARK                            x       y       z     vdW  Elec       q    Type
REMARK                         _______ _______ _______ _____ _____    ______ ____
ROOT
ATOM      1  N   UNL     1      36.947 -20.260 -20.291  0.00  0.00    -0.244 NA
ATOM      2  C   UNL     1      35.785 -18.120 -21.662  0.00  0.00    +0.016 C 
ATOM      3  C   UNL     1      35.004 -18.932 -20.847  0.00  0.00    +0.020 C 
ATOM      4  C   UNL     1      35.628 -19.980 -20.190  0.00  0.00    +0.083 C 
ATOM      5  C   UNL     1      37.145 -18.376 -21.794  0.00  0.00    +0.022 C 
ATOM      6  C   UNL     1      37.673 -19.448 -21.092  0.00  0.00    +0.099 C 
ENDROOT
BRANCH   2  14
ATOM      7  O   UNL     1      33.393 -15.590 -26.059  0.00  0.00    -0.270 OA
ATOM      8  N   UNL     1      35.104 -15.758 -21.821  0.00  0.00    -0.316 N 
ATOM      9  N   UNL     1      33.106 -13.710 -24.746  0.00  0.00    -0.300 N 
ATOM     10  C   UNL     1      34.498 -14.923 -22.715  0.00  0.00    +0.031 C 
ATOM     11  C   UNL     1      34.241 -13.476 -22.526  0.00  0.00    +0.063 C 
ATOM     12  C   UNL     1      34.179 -15.644 -23.847  0.00  0.00    +0.064 C 
ATOM     13  C   UNL     1      33.055 -13.090 -23.416  0.00  0.00    +0.096 C 
ATOM     14  C   UNL     1      35.186 -17.014 -22.370  0.00  0.00    +0.048 C 
ATOM     15  C   UNL     1      34.624 -16.971 -23.631  0.00  0.00    +0.020 C 
ATOM     16  C   UNL     1      33.531 -15.016 -24.982  0.00  0.00    +0.247 C 
ATOM     17  H   UNL     1      35.430 -15.501 -20.928  0.00  0.00    +0.152 HD
ATOM     18  H   UNL     1      32.822 -13.169 -25.518  0.00  0.00    +0.150 HD
ENDBRANCH   2  14
BRANCH   4  20
ATOM     19  N   UNL     1      32.796 -21.956 -18.791  0.00  0.00    -0.244 NA
ATOM     20  C   UNL     1      34.883 -20.865 -19.327  0.00  0.00    +0.037 C 
ATOM     21  C   UNL     1      35.479 -21.473 -18.232  0.00  0.00    +0.005 C 
ATOM     22  C   UNL     1      34.734 -22.329 -17.409  0.00  0.00    +0.018 C 
ATOM     23  C   UNL     1      33.377 -22.545 -17.729  0.00  0.00    +0.081 C 
ATOM     24  C   UNL     1      33.549 -21.137 -19.560  0.00  0.00    +0.100 C 
ATOM     25  C   UNL     1      35.309 -22.960 -16.292  0.00  0.00    +0.001 C 
ATOM     26  C   UNL     1      32.639 -23.395 -16.911  0.00  0.00    +0.019 C 
ATOM     27  C   UNL     1      34.546 -23.806 -15.491  0.00  0.00    +0.000 C 
ATOM     28  C   UNL     1      33.209 -24.023 -15.801  0.00  0.00    +0.002 C 
ENDBRANCH   4  20
TORSDOF 2
ENDMDL
MODEL 6
REMARK VINA RESULT:     -11.0     10.661     14.465
REMARK  Name = 10389239
REMARK  2 active torsions:
REMARK  status: ('A' for Active; 'I' for Inactive)
REMARK    1  A    between atoms: C_2  and  C_14
REMARK    2  A    between atoms: C_4  and  C_20
REMARK                            x       y       z     vdW  Elec       q    Type
REMARK                         _______ _______ _______ _____ _____    ______ ____
ROOT
ATOM      1  N   UNL     1      31.295  -9.598 -20.249  0.00  0.00    -0.244 NA
ATOM      2  C   UNL     1      32.380 -11.832 -21.530  0.00  0.00    +0.016 C 
ATOM      3  C   UNL     1      32.207 -10.644 -22.229  0.00  0.00    +0.020 C 
ATOM      4  C   UNL     1      31.665  -9.565 -21.549  0.00  0.00    +0.083 C 
ATOM      5  C   UNL     1      32.010 -11.907 -20.192  0.00  0.00    +0.022 C 
ATOM      6  C   UNL     1      31.478 -10.771 -19.603  0.00  0.00    +0.099 C 
ENDROOT
BRANCH   2  14
ATOM      7  O   UNL     1      33.225 -15.316 -25.843  0.00  0.00    -0.270 OA
ATOM      8  N   UNL     1      33.707 -13.908 -21.519  0.00  0.00    -0.316 N 
ATOM      9  N   UNL     1      34.731 -16.479 -24.533  0.00  0.00    -0.300 N 
ATOM     10  C   UNL     1      34.091 -14.884 -22.392  0.00  0.00    +0.031 C 
ATOM     11  C   UNL     1      34.905 -16.078 -22.066  0.00  0.00    +0.063 C 
ATOM     12  C   UNL     1      33.575 -14.591 -23.638  0.00  0.00    +0.064 C 
ATOM     13  C   UNL     1      35.602 -16.536 -23.352  0.00  0.00    +0.096 C 
ATOM     14  C   UNL     1      32.940 -12.987 -22.190  0.00  0.00    +0.048 C 
ATOM     15  C   UNL     1      32.837 -13.390 -23.507  0.00  0.00    +0.020 C 
ATOM     16  C   UNL     1      33.809 -15.462 -24.774  0.00  0.00    +0.247 C 
ATOM     17  H   UNL     1      33.942 -13.869 -20.564  0.00  0.00    +0.152 HD
ATOM     18  H   UNL     1      34.803 -17.204 -25.194  0.00  0.00    +0.150 HD
ENDBRANCH   2  14
BRANCH   4  20
ATOM     19  N   UNL     1      30.898  -7.082 -24.219  0.00  0.00    -0.244 NA
ATOM     20  C   UNL     1      31.457  -8.298 -22.209  0.00  0.00    +0.037 C 
ATOM     21  C   UNL     1      31.603  -7.099 -21.527  0.00  0.00    +0.005 C 
ATOM     22  C   UNL     1      31.396  -5.882 -22.190  0.00  0.00    +0.018 C 
ATOM     23  C   UNL     1      31.040  -5.920 -23.555  0.00  0.00    +0.081 C 
ATOM     24  C   UNL     1      31.107  -8.235 -23.543  0.00  0.00    +0.100 C 
ATOM     25  C   UNL     1      31.535  -4.650 -21.527  0.00  0.00    +0.001 C 
ATOM     26  C   UNL     1      30.834  -4.711 -24.212  0.00  0.00    +0.019 C 
ATOM     27  C   UNL     1      31.323  -3.455 -22.210  0.00  0.00    +0.000 C 
ATOM     28  C   UNL     1      30.972  -3.486 -23.554  0.00  0.00    +0.002 C 
ENDBRANCH   4  20
TORSDOF 2
ENDMDL
MODEL 7
REMARK VINA RESULT:     -10.8      9.416     13.402
REMARK  Name = 10389239
REMARK  2 active torsions:
REMARK  status: ('A' for Active; 'I' for Inactive)
REMARK    1  A    between atoms: C_2  and  C_14
REMARK    2  A    between atoms: C_4  and  C_20
REMARK                            x       y       z     vdW  Elec       q    Type
REMARK                         _______ _______ _______ _____ _____    ______ ____
ROOT
ATOM      1  N   UNL     1      31.373 -10.044 -21.094  0.00  0.00    -0.244 NA
ATOM      2  C   UNL     1      32.684 -12.422 -21.753  0.00  0.00    +0.016 C 
ATOM      3  C   UNL     1      32.854 -11.291 -22.543  0.00  0.00    +0.020 C 
ATOM      4  C   UNL     1      32.182 -10.137 -22.173  0.00  0.00    +0.083 C 
ATOM      5  C   UNL     1      31.860 -12.367 -20.634  0.00  0.00    +0.022 C 
ATOM      6  C   UNL     1      31.233 -11.164 -20.350  0.00  0.00    +0.099 C 
ENDROOT
BRANCH   2  14
ATOM      7  O   UNL     1      35.644 -17.064 -20.681  0.00  0.00    -0.270 OA
ATOM      8  N   UNL     1      33.496 -14.071 -23.393  0.00  0.00    -0.316 N 
ATOM      9  N   UNL     1      35.409 -17.655 -22.903  0.00  0.00    -0.300 N 
ATOM     10  C   UNL     1      34.177 -15.254 -23.405  0.00  0.00    +0.031 C 
ATOM     11  C   UNL     1      34.558 -16.031 -24.609  0.00  0.00    +0.063 C 
ATOM     12  C   UNL     1      34.480 -15.605 -22.106  0.00  0.00    +0.064 C 
ATOM     13  C   UNL     1      34.720 -17.496 -24.189  0.00  0.00    +0.096 C 
ATOM     14  C   UNL     1      33.361 -13.651 -22.092  0.00  0.00    +0.048 C 
ATOM     15  C   UNL     1      33.968 -14.582 -21.273  0.00  0.00    +0.020 C 
ATOM     16  C   UNL     1      35.216 -16.818 -21.805  0.00  0.00    +0.247 C 
ATOM     17  H   UNL     1      33.156 -13.597 -24.186  0.00  0.00    +0.152 HD
ATOM     18  H   UNL     1      36.047 -18.400 -22.810  0.00  0.00    +0.150 HD
ENDBRANCH   2  14
BRANCH   4  20
ATOM     19  N   UNL     1      31.249  -7.082 -24.093  0.00  0.00    -0.244 NA
ATOM     20  C   UNL     1      32.309  -8.923 -22.945  0.00  0.00    +0.037 C 
ATOM     21  C   UNL     1      33.554  -8.418 -23.290  0.00  0.00    +0.005 C 
ATOM     22  C   UNL     1      33.653  -7.238 -24.039  0.00  0.00    +0.018 C 
ATOM     23  C   UNL     1      32.458  -6.594 -24.426  0.00  0.00    +0.081 C 
ATOM     24  C   UNL     1      31.197  -8.223 -23.369  0.00  0.00    +0.100 C 
ATOM     25  C   UNL     1      34.899  -6.699 -24.404  0.00  0.00    +0.001 C 
ATOM     26  C   UNL     1      32.557  -5.422 -25.170  0.00  0.00    +0.019 C 
ATOM     27  C   UNL     1      34.968  -5.525 -25.150  0.00  0.00    +0.000 C 
ATOM     28  C   UNL     1      33.795  -4.886 -25.533  0.00  0.00    +0.002 C 
ENDBRANCH   4  20
TORSDOF 2
ENDMDL
MODEL 8
REMARK VINA RESULT:     -10.8      4.210      9.215
REMARK  Name = 10389239
REMARK  2 active torsions:
REMARK  status: ('A' for Active; 'I' for Inactive)
REMARK    1  A    between atoms: C_2  and  C_14
REMARK    2  A    between atoms: C_4  and  C_20
REMARK                            x       y       z     vdW  Elec       q    Type
REMARK                         _______ _______ _______ _____ _____    ______ ____
ROOT
ATOM      1  N   UNL     1      35.679 -22.465 -17.331  0.00  0.00    -0.244 NA
ATOM      2  C   UNL     1      35.359 -20.767 -19.527  0.00  0.00    +0.016 C 
ATOM      3  C   UNL     1      34.245 -21.233 -18.838  0.00  0.00    +0.020 C 
ATOM      4  C   UNL     1      34.457 -22.073 -17.757  0.00  0.00    +0.083 C 
ATOM      5  C   UNL     1      36.633 -21.149 -19.121  0.00  0.00    +0.022 C 
ATOM      6  C   UNL     1      36.738 -21.992 -18.026  0.00  0.00    +0.099 C 
ENDROOT
BRANCH   2  14
ATOM      7  O   UNL     1      33.927 -19.469 -24.792  0.00  0.00    -0.270 OA
ATOM      8  N   UNL     1      35.618 -18.582 -20.636  0.00  0.00    -0.316 N 
ATOM      9  N   UNL     1      34.427 -17.263 -24.322  0.00  0.00    -0.300 N 
ATOM     10  C   UNL     1      35.337 -18.005 -21.840  0.00  0.00    +0.031 C 
ATOM     11  C   UNL     1      35.655 -16.613 -22.238  0.00  0.00    +0.063 C 
ATOM     12  C   UNL     1      34.723 -18.940 -22.647  0.00  0.00    +0.064 C 
ATOM     13  C   UNL     1      34.669 -16.202 -23.336  0.00  0.00    +0.096 C 
ATOM     14  C   UNL     1      35.195 -19.889 -20.661  0.00  0.00    +0.048 C 
ATOM     15  C   UNL     1      34.641 -20.139 -21.901  0.00  0.00    +0.020 C 
ATOM     16  C   UNL     1      34.316 -18.615 -24.001  0.00  0.00    +0.247 C 
ATOM     17  H   UNL     1      36.052 -18.136 -19.874  0.00  0.00    +0.152 HD
ATOM     18  H   UNL     1      34.338 -17.002 -25.267  0.00  0.00    +0.150 HD
ENDBRANCH   2  14
BRANCH   4  20
ATOM     19  N   UNL     1      30.963 -22.825 -16.705  0.00  0.00    -0.244 NA
ATOM     20  C   UNL     1      33.350 -22.596 -16.994  0.00  0.00    +0.037 C 
ATOM     21  C   UNL     1      33.558 -23.350 -15.848  0.00  0.00    +0.005 C 
ATOM     22  C   UNL     1      32.466 -23.848 -15.124  0.00  0.00    +0.018 C 
ATOM     23  C   UNL     1      31.168 -23.557 -15.594  0.00  0.00    +0.081 C 
ATOM     24  C   UNL     1      32.043 -22.363 -17.376  0.00  0.00    +0.100 C 
ATOM     25  C   UNL     1      32.643 -24.616 -13.960  0.00  0.00    +0.001 C 
ATOM     26  C   UNL     1      30.084 -24.051 -14.875  0.00  0.00    +0.019 C 
ATOM     27  C   UNL     1      31.540 -25.097 -13.259  0.00  0.00    +0.000 C 
ATOM     28  C   UNL     1      30.259 -24.814 -13.717  0.00  0.00    +0.002 C 
ENDBRANCH   4  20
TORSDOF 2
ENDMDL
MODEL 9
REMARK VINA RESULT:     -10.7      9.910     13.656
REMARK  Name = 10389239
REMARK  2 active torsions:
REMARK  status: ('A' for Active; 'I' for Inactive)
REMARK    1  A    between atoms: C_2  and  C_14
REMARK    2  A    between atoms: C_4  and  C_20
REMARK                            x       y       z     vdW  Elec       q    Type
REMARK                         _______ _______ _______ _____ _____    ______ ____
ROOT
ATOM      1  N   UNL     1      31.449 -10.067 -19.810  0.00  0.00    -0.244 NA
ATOM      2  C   UNL     1      32.676 -12.293 -20.969  0.00  0.00    +0.016 C 
ATOM      3  C   UNL     1      32.461 -11.145 -21.723  0.00  0.00    +0.020 C 
ATOM      4  C   UNL     1      31.848 -10.069 -21.101  0.00  0.00    +0.083 C 
ATOM      5  C   UNL     1      32.279 -12.331 -19.637  0.00  0.00    +0.022 C 
ATOM      6  C   UNL     1      31.676 -11.200 -19.110  0.00  0.00    +0.099 C 
ENDROOT
BRANCH   2  14
ATOM      7  O   UNL     1      35.670 -17.036 -20.949  0.00  0.00    -0.270 OA
ATOM      8  N   UNL     1      33.334 -13.637 -22.926  0.00  0.00    -0.316 N 
ATOM      9  N   UNL     1      35.246 -17.244 -23.212  0.00  0.00    -0.300 N 
ATOM     10  C   UNL     1      34.000 -14.798 -23.196  0.00  0.00    +0.031 C 
ATOM     11  C   UNL     1      34.272 -15.357 -24.541  0.00  0.00    +0.063 C 
ATOM     12  C   UNL     1      34.406 -15.362 -22.005  0.00  0.00    +0.064 C 
ATOM     13  C   UNL     1      34.454 -16.872 -24.391  0.00  0.00    +0.096 C 
ATOM     14  C   UNL     1      33.311 -13.444 -21.566  0.00  0.00    +0.048 C 
ATOM     15  C   UNL     1      33.975 -14.498 -20.970  0.00  0.00    +0.020 C 
ATOM     16  C   UNL     1      35.153 -16.605 -21.976  0.00  0.00    +0.247 C 
ATOM     17  H   UNL     1      32.934 -13.037 -23.596  0.00  0.00    +0.152 HD
ATOM     18  H   UNL     1      35.881 -17.991 -23.300  0.00  0.00    +0.150 HD
ENDBRANCH   2  14
BRANCH   4  20
ATOM     19  N   UNL     1      30.889  -7.749 -23.855  0.00  0.00    -0.244 NA
ATOM     20  C   UNL     1      31.592  -8.843 -21.820  0.00  0.00    +0.037 C 
ATOM     21  C   UNL     1      31.785  -7.606 -21.224  0.00  0.00    +0.005 C 
ATOM     22  C   UNL     1      31.529  -6.430 -21.942  0.00  0.00    +0.018 C 
ATOM     23  C   UNL     1      31.077  -6.549 -23.273  0.00  0.00    +0.081 C 
ATOM     24  C   UNL     1      31.148  -8.860 -23.128  0.00  0.00    +0.100 C 
ATOM     25  C   UNL     1      31.713  -5.161 -21.366  0.00  0.00    +0.001 C 
ATOM     26  C   UNL     1      30.823  -5.381 -23.986  0.00  0.00    +0.019 C 
ATOM     27  C   UNL     1      31.451  -4.009 -22.103  0.00  0.00    +0.000 C 
ATOM     28  C   UNL     1      31.006  -4.119 -23.414  0.00  0.00    +0.002 C 
ENDBRANCH   4  20
TORSDOF 2
ENDMDL
