MODEL 1
REMARK VINA RESULT:     -11.8      0.000      0.000
REMARK  Name = 5327153
REMARK  6 active torsions:
REMARK  status: ('A' for Active; 'I' for Inactive)
REMARK    1  A    between atoms: C_3  and  C_15
REMARK    2  A    between atoms: C_10  and  O_24
REMARK    3  A    between atoms: C_11  and  N_18
REMARK    4  A    between atoms: N_18  and  S_20
REMARK    5  A    between atoms: O_24  and  C_25
REMARK    6  A    between atoms: C_25  and  C_26
REMARK                            x       y       z     vdW  Elec       q    Type
REMARK                         _______ _______ _______ _____ _____    ______ ____
ROOT
ATOM      1  O   UNL     1      37.415 -22.087 -15.930  0.00  0.00    -0.226 OA
ATOM      2  N   UNL     1      35.284 -22.994 -15.663  0.00  0.00    -0.235 N 
ATOM      3  C   UNL     1      35.550 -23.486 -14.311  0.00  0.00    +0.159 C 
ATOM      4  C   UNL     1      34.390 -23.226 -13.355  0.00  0.00    +0.055 C 
ATOM      5  C   UNL     1      33.996 -23.331 -16.287  0.00  0.00    +0.124 C 
ATOM      6  C   UNL     1      33.049 -23.580 -13.942  0.00  0.00    -0.022 C 
ATOM      7  C   UNL     1      32.865 -23.610 -15.332  0.00  0.00    -0.005 C 
ATOM      8  C   UNL     1      31.599 -23.919 -15.849  0.00  0.00    +0.013 C 
ATOM      9  C   UNL     1      31.963 -23.832 -13.091  0.00  0.00    -0.003 C 
ATOM     10  C   UNL     1      36.319 -22.390 -16.396  0.00  0.00    +0.406 C 
ATOM     11  C   UNL     1      30.526 -24.180 -14.997  0.00  0.00    +0.065 C 
ATOM     12  C   UNL     1      30.708 -24.135 -13.618  0.00  0.00    +0.016 C 
ENDROOT
BRANCH   3  15
ATOM     13  O   UNL     1      35.423 -25.641 -15.340  0.00  0.00    -0.273 OA
ATOM     14  N   UNL     1      36.719 -25.381 -13.423  0.00  0.00    -0.301 N 
ATOM     15  C   UNL     1      35.881 -24.947 -14.436  0.00  0.00    +0.241 C 
ATOM     16  C   UNL     1      37.168 -26.750 -13.303  0.00  0.00    +0.111 C 
ATOM     17  H   UNL     1      37.022 -24.727 -12.752  0.00  0.00    +0.150 HD
ENDBRANCH   3  15
BRANCH  11  18
ATOM     18  N   UNL     1      29.243 -24.492 -15.540  0.00  0.00    -0.213 N 
ATOM     19  H   UNL     1      28.925 -25.421 -15.615  0.00  0.00    +0.174 HD
BRANCH  18  20
ATOM     20  S   UNL     1      28.273 -23.154 -16.060  0.00  0.00    +0.091 S 
ATOM     21  O   UNL     1      27.457 -23.721 -17.353  0.00  0.00    -0.050 OA
ATOM     22  O   UNL     1      27.303 -22.848 -15.024  0.00  0.00    -0.050 OA
ATOM     23  O   UNL     1      29.168 -22.117 -16.541  0.00  0.00    -0.050 OA
ENDBRANCH  18  20
ENDBRANCH  11  18
BRANCH  10  24
ATOM     24  O   UNL     1      35.978 -22.178 -17.707  0.00  0.00    -0.430 OA
BRANCH  24  25
ATOM     25  C   UNL     1      36.875 -21.361 -18.467  0.00  0.00    +0.237 C 
BRANCH  25  26
ATOM     26  C   UNL     1      36.092 -20.605 -19.499  0.00  0.00    +0.021 C 
ATOM     27  C   UNL     1      34.730 -20.844 -19.642  0.00  0.00    -0.001 C 
ATOM     28  C   UNL     1      36.735 -19.670 -20.304  0.00  0.00    -0.001 C 
ATOM     29  C   UNL     1      34.002 -20.141 -20.601  0.00  0.00    -0.000 C 
ATOM     30  C   UNL     1      36.007 -18.967 -21.263  0.00  0.00    -0.000 C 
ATOM     31  C   UNL     1      34.640 -19.202 -21.412  0.00  0.00    -0.000 C 
ENDBRANCH  25  26
ENDBRANCH  24  25
ENDBRANCH  10  24
TORSDOF 6
ENDMDL
MODEL 2
REMARK VINA RESULT:      -8.8     11.703     15.186
REMARK  Name = 5327153
REMARK  6 active torsions:
REMARK  status: ('A' for Active; 'I' for Inactive)
REMARK    1  A    between atoms: C_3  and  C_15
REMARK    2  A    between atoms: C_10  and  O_24
REMARK    3  A    between atoms: C_11  and  N_18
REMARK    4  A    between atoms: N_18  and  S_20
REMARK    5  A    between atoms: O_24  and  C_25
REMARK    6  A    between atoms: C_25  and  C_26
REMARK                            x       y       z     vdW  Elec       q    Type
REMARK                         _______ _______ _______ _____ _____    ______ ____
ROOT
ATOM      1  O   UNL     1      30.252  -7.597 -22.918  0.00  0.00    -0.226 OA
ATOM      2  N   UNL     1      31.585  -9.480 -22.584  0.00  0.00    -0.235 N 
ATOM      3  C   UNL     1      31.091  -9.717 -21.227  0.00  0.00    +0.159 C 
ATOM      4  C   UNL     1      30.808 -11.191 -20.956  0.00  0.00    +0.055 C 
ATOM      5  C   UNL     1      32.673 -10.331 -23.088  0.00  0.00    +0.124 C 
ATOM      6  C   UNL     1      31.908 -12.102 -21.433  0.00  0.00    -0.022 C 
ATOM      7  C   UNL     1      32.777 -11.695 -22.456  0.00  0.00    -0.005 C 
ATOM      8  C   UNL     1      33.777 -12.574 -22.898  0.00  0.00    +0.013 C 
ATOM      9  C   UNL     1      32.034 -13.387 -20.886  0.00  0.00    -0.003 C 
ATOM     10  C   UNL     1      31.155  -8.345 -23.289  0.00  0.00    +0.406 C 
ATOM     11  C   UNL     1      33.903 -13.845 -22.340  0.00  0.00    +0.065 C 
ATOM     12  C   UNL     1      33.030 -14.252 -21.335  0.00  0.00    +0.016 C 
ENDROOT
BRANCH   3  15
ATOM     13  O   UNL     1      32.544  -9.777 -19.329  0.00  0.00    -0.273 OA
ATOM     14  N   UNL     1      32.457  -7.842 -20.622  0.00  0.00    -0.301 N 
ATOM     15  C   UNL     1      32.110  -9.140 -20.286  0.00  0.00    +0.241 C 
ATOM     16  C   UNL     1      33.400  -7.055 -19.861  0.00  0.00    +0.111 C 
ATOM     17  H   UNL     1      32.040  -7.436 -21.416  0.00  0.00    +0.150 HD
ENDBRANCH   3  15
BRANCH  11  18
ATOM     18  N   UNL     1      34.925 -14.729 -22.801  0.00  0.00    -0.213 N 
ATOM     19  H   UNL     1      35.856 -14.651 -22.488  0.00  0.00    +0.174 HD
BRANCH  18  20
ATOM     20  S   UNL     1      34.447 -15.945 -23.938  0.00  0.00    +0.091 S 
ATOM     21  O   UNL     1      35.582 -15.878 -25.108  0.00  0.00    -0.050 OA
ATOM     22  O   UNL     1      34.546 -17.246 -23.301  0.00  0.00    -0.050 OA
ATOM     23  O   UNL     1      33.192 -15.526 -24.535  0.00  0.00    -0.050 OA
ENDBRANCH  18  20
ENDBRANCH  11  18
BRANCH  10  24
ATOM     24  O   UNL     1      31.861  -8.149 -24.448  0.00  0.00    -0.430 OA
BRANCH  24  25
ATOM     25  C   UNL     1      31.773  -6.841 -25.026  0.00  0.00    +0.237 C 
BRANCH  25  26
ATOM     26  C   UNL     1      33.157  -6.340 -25.315  0.00  0.00    +0.021 C 
ATOM     27  C   UNL     1      33.462  -5.853 -26.581  0.00  0.00    -0.001 C 
ATOM     28  C   UNL     1      34.123  -6.368 -24.315  0.00  0.00    -0.001 C 
ATOM     29  C   UNL     1      34.749  -5.386 -26.850  0.00  0.00    -0.000 C 
ATOM     30  C   UNL     1      35.410  -5.902 -24.584  0.00  0.00    -0.000 C 
ATOM     31  C   UNL     1      35.723  -5.411 -25.851  0.00  0.00    -0.000 C 
ENDBRANCH  25  26
ENDBRANCH  24  25
ENDBRANCH  10  24
TORSDOF 6
ENDMDL
