MODEL 1
REMARK VINA RESULT:     -11.7      0.000      0.000
REMARK  Name = 46861612
REMARK  7 active torsions:
REMARK  status: ('A' for Active; 'I' for Inactive)
REMARK    1  A    between atoms: C_1  and  N_2
REMARK    2  A    between atoms: C_1  and  C_17
REMARK    3  A    between atoms: N_3  and  C_11
REMARK    4  A    between atoms: C_17  and  C_18
REMARK    5  A    between atoms: C_18  and  C_19
REMARK    6  A    between atoms: C_19  and  O_20
REMARK    7  A    between atoms: O_20  and  C_24
REMARK                            x       y       z     vdW  Elec       q    Type
REMARK                         _______ _______ _______ _____ _____    ______ ____
ROOT
ATOM      1  C   UNL     1      34.804 -17.412 -24.160  0.00  0.00    -0.077 C 
ENDROOT
BRANCH   1   2
ATOM      2  N   UNL     1      34.675 -15.963 -24.017  0.00  0.00    +0.389 N 
ATOM      3  N   UNL     1      33.442 -13.524 -23.186  0.00  0.00    -0.311 N 
ATOM      4  C   UNL     1      33.453 -15.486 -24.677  0.00  0.00    -0.055 C 
ATOM      5  C   UNL     1      34.656 -15.586 -22.599  0.00  0.00    -0.055 C 
ATOM      6  C   UNL     1      34.578 -14.066 -22.434  0.00  0.00    +0.068 C 
ATOM      7  C   UNL     1      33.336 -13.964 -24.583  0.00  0.00    +0.068 C 
ATOM      8  H   UNL     1      35.482 -15.526 -24.463  0.00  0.00    -0.080 HD
BRANCH   3  11
ATOM      9 CL   UNL     1      31.909 -13.411 -20.613  0.00  0.00    -0.080 Cl
ATOM     10 CL   UNL     1      30.767 -10.485 -19.950  0.00  0.00    -0.081 Cl
ATOM     11  C   UNL     1      32.923 -12.268 -22.850  0.00  0.00    +0.059 C 
ATOM     12  C   UNL     1      32.188 -12.070 -21.681  0.00  0.00    +0.081 C 
ATOM     13  C   UNL     1      33.156 -11.201 -23.718  0.00  0.00    +0.015 C 
ATOM     14  C   UNL     1      31.686 -10.803 -21.380  0.00  0.00    +0.069 C 
ATOM     15  C   UNL     1      32.655  -9.935 -23.416  0.00  0.00    +0.002 C 
ATOM     16  C   UNL     1      31.919  -9.737 -22.248  0.00  0.00    +0.012 C 
ENDBRANCH   3  11
ENDBRANCH   1   2
BRANCH   1  17
ATOM     17  C   UNL     1      35.333 -18.030 -22.867  0.00  0.00    -0.019 C 
BRANCH  17  18
ATOM     18  C   UNL     1      34.729 -19.412 -22.626  0.00  0.00    +0.045 C 
BRANCH  18  19
ATOM     19  C   UNL     1      34.487 -19.668 -21.145  0.00  0.00    +0.205 C 
BRANCH  19  20
ATOM     20  O   UNL     1      35.628 -20.293 -20.572  0.00  0.00    -0.475 OA
BRANCH  20  24
ATOM     21  O   UNL     1      34.724 -23.442 -16.123  0.00  0.00    -0.464 OA
ATOM     22  O   UNL     1      37.988 -23.301 -14.577  0.00  0.00    -0.271 OA
ATOM     23  N   UNL     1      37.283 -22.307 -16.526  0.00  0.00    -0.278 N 
ATOM     24  C   UNL     1      35.417 -21.062 -19.457  0.00  0.00    +0.140 C 
ATOM     25  C   UNL     1      36.456 -21.278 -18.552  0.00  0.00    +0.055 C 
ATOM     26  C   UNL     1      36.233 -22.057 -17.416  0.00  0.00    +0.088 C 
ATOM     27  C   UNL     1      34.164 -21.632 -19.231  0.00  0.00    +0.040 C 
ATOM     28  C   UNL     1      34.981 -22.624 -17.187  0.00  0.00    +0.153 C 
ATOM     29  C   UNL     1      33.946 -22.420 -18.100  0.00  0.00    +0.041 C 
ATOM     30  C   UNL     1      35.626 -23.289 -15.043  0.00  0.00    +0.290 C 
ATOM     31  C   UNL     1      37.085 -23.000 -15.355  0.00  0.00    +0.271 C 
ATOM     32  H   UNL     1      38.185 -21.977 -16.743  0.00  0.00    +0.155 HD
ENDBRANCH  20  24
ENDBRANCH  19  20
ENDBRANCH  18  19
ENDBRANCH  17  18
ENDBRANCH   1  17
TORSDOF 7
ENDMDL
MODEL 2
REMARK VINA RESULT:     -11.4      1.645      2.259
REMARK  Name = 46861612
REMARK  7 active torsions:
REMARK  status: ('A' for Active; 'I' for Inactive)
REMARK    1  A    between atoms: C_1  and  N_2
REMARK    2  A    between atoms: C_1  and  C_17
REMARK    3  A    between atoms: N_3  and  C_11
REMARK    4  A    between atoms: C_17  and  C_18
REMARK    5  A    between atoms: C_18  and  C_19
REMARK    6  A    between atoms: C_19  and  O_20
REMARK    7  A    between atoms: O_20  and  C_24
REMARK                            x       y       z     vdW  Elec       q    Type
REMARK                         _______ _______ _______ _____ _____    ______ ____
ROOT
ATOM      1  C   UNL     1      35.305 -17.096 -23.670  0.00  0.00    -0.077 C 
ENDROOT
BRANCH   1   2
ATOM      2  N   UNL     1      35.015 -15.667 -23.561  0.00  0.00    +0.389 N 
ATOM      3  N   UNL     1      33.482 -13.364 -22.851  0.00  0.00    -0.311 N 
ATOM      4  C   UNL     1      33.793 -15.330 -24.302  0.00  0.00    -0.055 C 
ATOM      5  C   UNL     1      34.868 -15.278 -22.154  0.00  0.00    -0.055 C 
ATOM      6  C   UNL     1      34.620 -13.773 -22.022  0.00  0.00    +0.068 C 
ATOM      7  C   UNL     1      33.511 -13.828 -24.244  0.00  0.00    +0.068 C 
ATOM      8  H   UNL     1      35.798 -15.152 -23.965  0.00  0.00    -0.080 HD
BRANCH   3  11
ATOM      9 CL   UNL     1      31.979 -13.306 -20.259  0.00  0.00    -0.080 Cl
ATOM     10 CL   UNL     1      30.487 -10.514 -19.724  0.00  0.00    -0.081 Cl
ATOM     11  C   UNL     1      32.814 -12.166 -22.570  0.00  0.00    +0.059 C 
ATOM     12  C   UNL     1      32.074 -12.000 -21.399  0.00  0.00    +0.081 C 
ATOM     13  C   UNL     1      32.900 -11.126 -23.496  0.00  0.00    +0.015 C 
ATOM     14  C   UNL     1      31.421 -10.791 -21.154  0.00  0.00    +0.069 C 
ATOM     15  C   UNL     1      32.248  -9.919 -23.250  0.00  0.00    +0.002 C 
ATOM     16  C   UNL     1      31.507  -9.751 -22.079  0.00  0.00    +0.012 C 
ENDBRANCH   3  11
ENDBRANCH   1   2
BRANCH   1  17
ATOM     17  C   UNL     1      34.144 -17.825 -24.344  0.00  0.00    -0.019 C 
BRANCH  17  18
ATOM     18  C   UNL     1      34.154 -19.314 -24.005  0.00  0.00    +0.045 C 
BRANCH  18  19
ATOM     19  C   UNL     1      34.893 -19.589 -22.703  0.00  0.00    +0.205 C 
BRANCH  19  20
ATOM     20  O   UNL     1      33.993 -19.486 -21.607  0.00  0.00    -0.475 OA
BRANCH  20  24
ATOM     21  O   UNL     1      35.015 -22.749 -17.267  0.00  0.00    -0.464 OA
ATOM     22  O   UNL     1      31.637 -23.417 -16.170  0.00  0.00    -0.271 OA
ATOM     23  N   UNL     1      32.339 -22.129 -17.940  0.00  0.00    -0.278 N 
ATOM     24  C   UNL     1      34.229 -20.307 -20.535  0.00  0.00    +0.140 C 
ATOM     25  C   UNL     1      33.160 -20.811 -19.794  0.00  0.00    +0.055 C 
ATOM     26  C   UNL     1      33.407 -21.651 -18.707  0.00  0.00    +0.088 C 
ATOM     27  C   UNL     1      35.539 -20.631 -20.181  0.00  0.00    +0.040 C 
ATOM     28  C   UNL     1      34.715 -21.980 -18.355  0.00  0.00    +0.153 C 
ATOM     29  C   UNL     1      35.784 -21.462 -19.087  0.00  0.00    +0.041 C 
ATOM     30  C   UNL     1      33.949 -23.567 -16.823  0.00  0.00    +0.290 C 
ATOM     31  C   UNL     1      32.533 -23.022 -16.913  0.00  0.00    +0.271 C 
ATOM     32  H   UNL     1      31.427 -21.819 -18.142  0.00  0.00    +0.155 HD
ENDBRANCH  20  24
ENDBRANCH  19  20
ENDBRANCH  18  19
ENDBRANCH  17  18
ENDBRANCH   1  17
TORSDOF 7
ENDMDL
MODEL 3
REMARK VINA RESULT:     -11.2      4.778     10.669
REMARK  Name = 46861612
REMARK  7 active torsions:
REMARK  status: ('A' for Active; 'I' for Inactive)
REMARK    1  A    between atoms: C_1  and  N_2
REMARK    2  A    between atoms: C_1  and  C_17
REMARK    3  A    between atoms: N_3  and  C_11
REMARK    4  A    between atoms: C_17  and  C_18
REMARK    5  A    between atoms: C_18  and  C_19
REMARK    6  A    between atoms: C_19  and  O_20
REMARK    7  A    between atoms: O_20  and  C_24
REMARK                            x       y       z     vdW  Elec       q    Type
REMARK                         _______ _______ _______ _____ _____    ______ ____
ROOT
ATOM      1  C   UNL     1      34.758 -16.380 -24.379  0.00  0.00    -0.077 C 
ENDROOT
BRANCH   1   2
ATOM      2  N   UNL     1      35.276 -17.421 -23.492  0.00  0.00    +0.389 N 
ATOM      3  N   UNL     1      35.194 -19.271 -21.318  0.00  0.00    -0.311 N 
ATOM      4  C   UNL     1      35.322 -16.940 -22.106  0.00  0.00    -0.055 C 
ATOM      5  C   UNL     1      34.445 -18.627 -23.575  0.00  0.00    -0.055 C 
ATOM      6  C   UNL     1      35.008 -19.745 -22.693  0.00  0.00    +0.068 C 
ATOM      7  C   UNL     1      35.915 -18.000 -21.176  0.00  0.00    +0.068 C 
ATOM      8  H   UNL     1      36.223 -17.652 -23.792  0.00  0.00    -0.080 HD
BRANCH   3  11
ATOM      9 CL   UNL     1      32.577 -20.363 -20.351  0.00  0.00    -0.080 Cl
ATOM     10 CL   UNL     1      32.895 -22.470 -17.950  0.00  0.00    -0.081 Cl
ATOM     11  C   UNL     1      35.279 -20.197 -20.271  0.00  0.00    +0.059 C 
ATOM     12  C   UNL     1      34.139 -20.785 -19.722  0.00  0.00    +0.081 C 
ATOM     13  C   UNL     1      36.542 -20.525 -19.778  0.00  0.00    +0.015 C 
ATOM     14  C   UNL     1      34.263 -21.702 -18.678  0.00  0.00    +0.069 C 
ATOM     15  C   UNL     1      36.665 -21.443 -18.735  0.00  0.00    +0.002 C 
ATOM     16  C   UNL     1      35.526 -22.031 -18.185  0.00  0.00    +0.012 C 
ENDBRANCH   3  11
ENDBRANCH   1   2
BRANCH   1  17
ATOM     17  C   UNL     1      34.241 -15.196 -23.566  0.00  0.00    -0.019 C 
BRANCH  17  18
ATOM     18  C   UNL     1      33.299 -14.324 -24.394  0.00  0.00    +0.045 C 
BRANCH  18  19
ATOM     19  C   UNL     1      33.039 -12.982 -23.723  0.00  0.00    +0.205 C 
BRANCH  19  20
ATOM     20  O   UNL     1      32.069 -13.137 -22.697  0.00  0.00    -0.475 OA
BRANCH  20  24
ATOM     21  O   UNL     1      32.074  -9.359 -18.665  0.00  0.00    -0.464 OA
ATOM     22  O   UNL     1      31.993  -6.331 -20.636  0.00  0.00    -0.271 OA
ATOM     23  N   UNL     1      32.021  -8.512 -21.363  0.00  0.00    -0.278 N 
ATOM     24  C   UNL     1      32.058 -12.187 -21.708  0.00  0.00    +0.140 C 
ATOM     25  C   UNL     1      32.029 -10.833 -22.042  0.00  0.00    +0.055 C 
ATOM     26  C   UNL     1      32.011  -9.871 -21.031  0.00  0.00    +0.088 C 
ATOM     27  C   UNL     1      32.081 -12.576 -20.368  0.00  0.00    +0.040 C 
ATOM     28  C   UNL     1      32.031 -10.258 -19.692  0.00  0.00    +0.153 C 
ATOM     29  C   UNL     1      32.075 -11.612 -19.359  0.00  0.00    +0.041 C 
ATOM     30  C   UNL     1      31.619  -8.064 -19.008  0.00  0.00    +0.290 C 
ATOM     31  C   UNL     1      31.922  -7.535 -20.400  0.00  0.00    +0.271 C 
ATOM     32  H   UNL     1      32.098  -8.249 -22.308  0.00  0.00    +0.155 HD
ENDBRANCH  20  24
ENDBRANCH  19  20
ENDBRANCH  18  19
ENDBRANCH  17  18
ENDBRANCH   1  17
TORSDOF 7
ENDMDL
MODEL 4
REMARK VINA RESULT:     -11.0      2.893      5.172
REMARK  Name = 46861612
REMARK  7 active torsions:
REMARK  status: ('A' for Active; 'I' for Inactive)
REMARK    1  A    between atoms: C_1  and  N_2
REMARK    2  A    between atoms: C_1  and  C_17
REMARK    3  A    between atoms: N_3  and  C_11
REMARK    4  A    between atoms: C_17  and  C_18
REMARK    5  A    between atoms: C_18  and  C_19
REMARK    6  A    between atoms: C_19  and  O_20
REMARK    7  A    between atoms: O_20  and  C_24
REMARK                            x       y       z     vdW  Elec       q    Type
REMARK                         _______ _______ _______ _____ _____    ______ ____
ROOT
ATOM      1  C   UNL     1      35.881 -21.497 -19.357  0.00  0.00    -0.077 C 
ENDROOT
BRANCH   1   2
ATOM      2  N   UNL     1      35.782 -20.595 -20.504  0.00  0.00    +0.389 N 
ATOM      3  N   UNL     1      35.168 -18.157 -21.858  0.00  0.00    -0.311 N 
ATOM      4  C   UNL     1      34.386 -20.205 -20.734  0.00  0.00    -0.055 C 
ATOM      5  C   UNL     1      36.606 -19.399 -20.290  0.00  0.00    -0.055 C 
ATOM      6  C   UNL     1      36.556 -18.473 -21.508  0.00  0.00    +0.068 C 
ATOM      7  C   UNL     1      34.262 -19.308 -21.966  0.00  0.00    +0.068 C 
ATOM      8  H   UNL     1      36.126 -21.090 -21.327  0.00  0.00    -0.080 HD
BRANCH   3  11
ATOM      9 CL   UNL     1      34.858 -15.600 -20.327  0.00  0.00    -0.080 Cl
ATOM     10 CL   UNL     1      34.216 -13.074 -22.201  0.00  0.00    -0.081 Cl
ATOM     11  C   UNL     1      34.888 -17.024 -22.631  0.00  0.00    +0.059 C 
ATOM     12  C   UNL     1      34.717 -15.767 -22.050  0.00  0.00    +0.081 C 
ATOM     13  C   UNL     1      34.779 -17.175 -24.013  0.00  0.00    +0.015 C 
ATOM     14  C   UNL     1      34.438 -14.660 -22.852  0.00  0.00    +0.069 C 
ATOM     15  C   UNL     1      34.500 -16.068 -24.815  0.00  0.00    +0.002 C 
ATOM     16  C   UNL     1      34.329 -14.811 -24.234  0.00  0.00    +0.012 C 
ENDBRANCH   3  11
ENDBRANCH   1   2
BRANCH   1  17
ATOM     17  C   UNL     1      34.512 -21.683 -18.706  0.00  0.00    -0.019 C 
BRANCH  17  18
ATOM     18  C   UNL     1      34.152 -23.162 -18.586  0.00  0.00    +0.045 C 
BRANCH  18  19
ATOM     19  C   UNL     1      33.639 -23.505 -17.194  0.00  0.00    +0.205 C 
BRANCH  19  20
ATOM     20  O   UNL     1      34.212 -22.622 -16.239  0.00  0.00    -0.475 OA
BRANCH  20  24
ATOM     21  O   UNL     1      38.646 -24.400 -13.462  0.00  0.00    -0.464 OA
ATOM     22  O   UNL     1      37.074 -26.727 -11.188  0.00  0.00    -0.271 OA
ATOM     23  N   UNL     1      36.091 -25.419 -12.803  0.00  0.00    -0.278 N 
ATOM     24  C   UNL     1      35.303 -23.082 -15.548  0.00  0.00    +0.140 C 
ATOM     25  C   UNL     1      35.140 -24.029 -14.537  0.00  0.00    +0.055 C 
ATOM     26  C   UNL     1      36.256 -24.498 -13.842  0.00  0.00    +0.088 C 
ATOM     27  C   UNL     1      36.576 -22.599 -15.854  0.00  0.00    +0.040 C 
ATOM     28  C   UNL     1      37.528 -24.019 -14.149  0.00  0.00    +0.153 C 
ATOM     29  C   UNL     1      37.688 -23.061 -15.151  0.00  0.00    +0.041 C 
ATOM     30  C   UNL     1      38.513 -25.630 -12.775  0.00  0.00    +0.290 C 
ATOM     31  C   UNL     1      37.170 -25.967 -12.149  0.00  0.00    +0.271 C 
ATOM     32  H   UNL     1      35.182 -25.683 -12.534  0.00  0.00    +0.155 HD
ENDBRANCH  20  24
ENDBRANCH  19  20
ENDBRANCH  18  19
ENDBRANCH  17  18
ENDBRANCH   1  17
TORSDOF 7
ENDMDL
MODEL 5
REMARK VINA RESULT:     -11.0      1.326      1.804
REMARK  Name = 46861612
REMARK  7 active torsions:
REMARK  status: ('A' for Active; 'I' for Inactive)
REMARK    1  A    between atoms: C_1  and  N_2
REMARK    2  A    between atoms: C_1  and  C_17
REMARK    3  A    between atoms: N_3  and  C_11
REMARK    4  A    between atoms: C_17  and  C_18
REMARK    5  A    between atoms: C_18  and  C_19
REMARK    6  A    between atoms: C_19  and  O_20
REMARK    7  A    between atoms: O_20  and  C_24
REMARK                            x       y       z     vdW  Elec       q    Type
REMARK                         _______ _______ _______ _____ _____    ______ ____
ROOT
ATOM      1  C   UNL     1      35.689 -18.566 -22.492  0.00  0.00    -0.077 C 
ENDROOT
BRANCH   1   2
ATOM      2  N   UNL     1      35.535 -17.117 -22.621  0.00  0.00    +0.389 N 
ATOM      3  N   UNL     1      34.120 -14.637 -22.642  0.00  0.00    -0.311 N 
ATOM      4  C   UNL     1      34.625 -16.791 -23.725  0.00  0.00    -0.055 C 
ATOM      5  C   UNL     1      35.029 -16.540 -21.370  0.00  0.00    -0.055 C 
ATOM      6  C   UNL     1      34.917 -15.017 -21.472  0.00  0.00    +0.068 C 
ATOM      7  C   UNL     1      34.501 -15.277 -23.907  0.00  0.00    +0.068 C 
ATOM      8  H   UNL     1      36.452 -16.717 -22.820  0.00  0.00    -0.080 HD
BRANCH   3  11
ATOM      9 CL   UNL     1      32.112 -14.052 -20.496  0.00  0.00    -0.080 Cl
ATOM     10 CL   UNL     1      30.831 -11.117 -20.728  0.00  0.00    -0.081 Cl
ATOM     11  C   UNL     1      33.532 -13.367 -22.699  0.00  0.00    +0.059 C 
ATOM     12  C   UNL     1      32.580 -12.961 -21.763  0.00  0.00    +0.081 C 
ATOM     13  C   UNL     1      33.919 -12.502 -23.722  0.00  0.00    +0.015 C 
ATOM     14  C   UNL     1      32.016 -11.688 -21.852  0.00  0.00    +0.069 C 
ATOM     15  C   UNL     1      33.355 -11.230 -23.810  0.00  0.00    +0.002 C 
ATOM     16  C   UNL     1      32.403 -10.823 -22.875  0.00  0.00    +0.012 C 
ENDBRANCH   3  11
ENDBRANCH   1   2
BRANCH   1  17
ATOM     17  C   UNL     1      35.786 -18.961 -21.020  0.00  0.00    -0.019 C 
BRANCH  17  18
ATOM     18  C   UNL     1      34.798 -20.075 -20.679  0.00  0.00    +0.045 C 
BRANCH  18  19
ATOM     19  C   UNL     1      35.296 -20.936 -19.526  0.00  0.00    +0.205 C 
BRANCH  19  20
ATOM     20  O   UNL     1      34.297 -21.879 -19.163  0.00  0.00    -0.475 OA
BRANCH  20  24
ATOM     21  O   UNL     1      34.517 -24.017 -14.073  0.00  0.00    -0.464 OA
ATOM     22  O   UNL     1      37.980 -23.370 -13.266  0.00  0.00    -0.271 OA
ATOM     23  N   UNL     1      36.843 -22.866 -15.199  0.00  0.00    -0.278 N 
ATOM     24  C   UNL     1      34.366 -22.395 -17.895  0.00  0.00    +0.140 C 
ATOM     25  C   UNL     1      35.568 -22.353 -17.189  0.00  0.00    +0.055 C 
ATOM     26  C   UNL     1      35.629 -22.873 -15.895  0.00  0.00    +0.088 C 
ATOM     27  C   UNL     1      33.233 -22.966 -17.313  0.00  0.00    +0.040 C 
ATOM     28  C   UNL     1      34.498 -23.441 -15.312  0.00  0.00    +0.153 C 
ATOM     29  C   UNL     1      33.300 -23.496 -16.024  0.00  0.00    +0.041 C 
ATOM     30  C   UNL     1      35.583 -23.584 -13.248  0.00  0.00    +0.290 C 
ATOM     31  C   UNL     1      36.927 -23.295 -13.895  0.00  0.00    +0.271 C 
ATOM     32  H   UNL     1      37.655 -22.546 -15.653  0.00  0.00    +0.155 HD
ENDBRANCH  20  24
ENDBRANCH  19  20
ENDBRANCH  18  19
ENDBRANCH  17  18
ENDBRANCH   1  17
TORSDOF 7
ENDMDL
MODEL 6
REMARK VINA RESULT:     -10.9      2.082      2.877
REMARK  Name = 46861612
REMARK  7 active torsions:
REMARK  status: ('A' for Active; 'I' for Inactive)
REMARK    1  A    between atoms: C_1  and  N_2
REMARK    2  A    between atoms: C_1  and  C_17
REMARK    3  A    between atoms: N_3  and  C_11
REMARK    4  A    between atoms: C_17  and  C_18
REMARK    5  A    between atoms: C_18  and  C_19
REMARK    6  A    between atoms: C_19  and  O_20
REMARK    7  A    between atoms: O_20  and  C_24
REMARK                            x       y       z     vdW  Elec       q    Type
REMARK                         _______ _______ _______ _____ _____    ______ ____
ROOT
ATOM      1  C   UNL     1      35.719 -18.538 -22.483  0.00  0.00    -0.077 C 
ENDROOT
BRANCH   1   2
ATOM      2  N   UNL     1      35.553 -17.091 -22.606  0.00  0.00    +0.389 N 
ATOM      3  N   UNL     1      34.114 -14.624 -22.634  0.00  0.00    -0.311 N 
ATOM      4  C   UNL     1      34.658 -16.767 -23.722  0.00  0.00    -0.055 C 
ATOM      5  C   UNL     1      35.022 -16.527 -21.360  0.00  0.00    -0.055 C 
ATOM      6  C   UNL     1      34.897 -15.004 -21.454  0.00  0.00    +0.068 C 
ATOM      7  C   UNL     1      34.522 -15.253 -23.897  0.00  0.00    +0.068 C 
ATOM      8  H   UNL     1      36.470 -16.681 -22.788  0.00  0.00    -0.080 HD
BRANCH   3  11
ATOM      9 CL   UNL     1      32.105 -14.053 -20.485  0.00  0.00    -0.080 Cl
ATOM     10 CL   UNL     1      30.797 -11.131 -20.721  0.00  0.00    -0.081 Cl
ATOM     11  C   UNL     1      33.515 -13.360 -22.692  0.00  0.00    +0.059 C 
ATOM     12  C   UNL     1      32.561 -12.960 -21.756  0.00  0.00    +0.081 C 
ATOM     13  C   UNL     1      33.893 -12.494 -23.718  0.00  0.00    +0.015 C 
ATOM     14  C   UNL     1      31.985 -11.693 -21.846  0.00  0.00    +0.069 C 
ATOM     15  C   UNL     1      33.317 -11.227 -23.807  0.00  0.00    +0.002 C 
ATOM     16  C   UNL     1      32.363 -10.827 -22.872  0.00  0.00    +0.012 C 
ENDBRANCH   3  11
ENDBRANCH   1   2
BRANCH   1  17
ATOM     17  C   UNL     1      35.966 -18.924 -21.026  0.00  0.00    -0.019 C 
BRANCH  17  18
ATOM     18  C   UNL     1      35.140 -20.146 -20.630  0.00  0.00    +0.045 C 
BRANCH  18  19
ATOM     19  C   UNL     1      35.756 -20.882 -19.447  0.00  0.00    +0.205 C 
BRANCH  19  20
ATOM     20  O   UNL     1      35.098 -22.128 -19.259  0.00  0.00    -0.475 OA
BRANCH  20  24
ATOM     21  O   UNL     1      33.728 -23.379 -14.055  0.00  0.00    -0.464 OA
ATOM     22  O   UNL     1      30.220 -24.129 -14.489  0.00  0.00    -0.271 OA
ATOM     23  N   UNL     1      31.751 -23.480 -16.075  0.00  0.00    -0.278 N 
ATOM     24  C   UNL     1      34.744 -22.452 -17.975  0.00  0.00    +0.140 C 
ATOM     25  C   UNL     1      33.429 -22.815 -17.685  0.00  0.00    +0.055 C 
ATOM     26  C   UNL     1      33.077 -23.151 -16.377  0.00  0.00    +0.088 C 
ATOM     27  C   UNL     1      35.700 -22.414 -16.959  0.00  0.00    +0.040 C 
ATOM     28  C   UNL     1      34.031 -23.117 -15.361  0.00  0.00    +0.153 C 
ATOM     29  C   UNL     1      35.343 -22.739 -15.650  0.00  0.00    +0.041 C 
ATOM     30  C   UNL     1      32.547 -24.137 -13.874  0.00  0.00    +0.290 C 
ATOM     31  C   UNL     1      31.381 -23.894 -14.817  0.00  0.00    +0.271 C 
ATOM     32  H   UNL     1      31.068 -23.414 -16.780  0.00  0.00    +0.155 HD
ENDBRANCH  20  24
ENDBRANCH  19  20
ENDBRANCH  18  19
ENDBRANCH  17  18
ENDBRANCH   1  17
TORSDOF 7
ENDMDL
MODEL 7
REMARK VINA RESULT:     -10.8      2.657      4.314
REMARK  Name = 46861612
REMARK  7 active torsions:
REMARK  status: ('A' for Active; 'I' for Inactive)
REMARK    1  A    between atoms: C_1  and  N_2
REMARK    2  A    between atoms: C_1  and  C_17
REMARK    3  A    between atoms: N_3  and  C_11
REMARK    4  A    between atoms: C_17  and  C_18
REMARK    5  A    between atoms: C_18  and  C_19
REMARK    6  A    between atoms: C_19  and  O_20
REMARK    7  A    between atoms: O_20  and  C_24
REMARK                            x       y       z     vdW  Elec       q    Type
REMARK                         _______ _______ _______ _____ _____    ______ ____
ROOT
ATOM      1  C   UNL     1      33.376 -13.951 -23.974  0.00  0.00    -0.077 C 
ENDROOT
BRANCH   1   2
ATOM      2  N   UNL     1      33.376 -12.715 -23.193  0.00  0.00    +0.389 N 
ATOM      3  N   UNL     1      32.497 -10.102 -22.446  0.00  0.00    -0.311 N 
ATOM      4  C   UNL     1      33.663 -11.561 -24.053  0.00  0.00    -0.055 C 
ATOM      5  C   UNL     1      32.083 -12.529 -22.523  0.00  0.00    -0.055 C 
ATOM      6  C   UNL     1      32.089 -11.268 -21.656  0.00  0.00    +0.068 C 
ATOM      7  C   UNL     1      33.723 -10.269 -23.238  0.00  0.00    +0.068 C 
ATOM      8  H   UNL     1      34.107 -12.788 -22.484  0.00  0.00    -0.080 HD
BRANCH   3  11
ATOM      9 CL   UNL     1      31.509  -8.228 -24.565  0.00  0.00    -0.080 Cl
ATOM     10 CL   UNL     1      30.790  -5.310 -23.437  0.00  0.00    -0.081 Cl
ATOM     11  C   UNL     1      32.169  -8.815 -22.004  0.00  0.00    +0.059 C 
ATOM     12  C   UNL     1      31.697  -7.840 -22.883  0.00  0.00    +0.081 C 
ATOM     13  C   UNL     1      32.325  -8.519 -20.650  0.00  0.00    +0.015 C 
ATOM     14  C   UNL     1      31.380  -6.567 -22.406  0.00  0.00    +0.069 C 
ATOM     15  C   UNL     1      32.008  -7.247 -20.174  0.00  0.00    +0.002 C 
ATOM     16  C   UNL     1      31.536  -6.271 -21.052  0.00  0.00    +0.012 C 
ENDBRANCH   3  11
ENDBRANCH   1   2
BRANCH   1  17
ATOM     17  C   UNL     1      34.277 -14.996 -23.317  0.00  0.00    -0.019 C 
BRANCH  17  18
ATOM     18  C   UNL     1      34.647 -16.104 -24.300  0.00  0.00    +0.045 C 
BRANCH  18  19
ATOM     19  C   UNL     1      34.851 -17.437 -23.593  0.00  0.00    +0.205 C 
BRANCH  19  20
ATOM     20  O   UNL     1      35.618 -17.243 -22.412  0.00  0.00    -0.475 OA
BRANCH  20  24
ATOM     21  O   UNL     1      36.023 -21.483 -18.893  0.00  0.00    -0.464 OA
ATOM     22  O   UNL     1      32.529 -22.322 -18.510  0.00  0.00    -0.271 OA
ATOM     23  N   UNL     1      33.470 -20.658 -19.788  0.00  0.00    -0.278 N 
ATOM     24  C   UNL     1      35.702 -18.304 -21.548  0.00  0.00    +0.140 C 
ATOM     25  C   UNL     1      34.541 -18.949 -21.122  0.00  0.00    +0.055 C 
ATOM     26  C   UNL     1      34.634 -20.033 -20.247  0.00  0.00    +0.088 C 
ATOM     27  C   UNL     1      36.949 -18.734 -21.093  0.00  0.00    +0.040 C 
ATOM     28  C   UNL     1      35.879 -20.466 -19.794  0.00  0.00    +0.153 C 
ATOM     29  C   UNL     1      37.038 -19.810 -20.210  0.00  0.00    +0.041 C 
ATOM     30  C   UNL     1      34.915 -22.360 -18.825  0.00  0.00    +0.290 C 
ATOM     31  C   UNL     1      33.521 -21.778 -18.991  0.00  0.00    +0.271 C 
ATOM     32  H   UNL     1      32.594 -20.289 -20.042  0.00  0.00    +0.155 HD
ENDBRANCH  20  24
ENDBRANCH  19  20
ENDBRANCH  18  19
ENDBRANCH  17  18
ENDBRANCH   1  17
TORSDOF 7
ENDMDL
MODEL 8
REMARK VINA RESULT:     -10.8      3.300      6.196
REMARK  Name = 46861612
REMARK  7 active torsions:
REMARK  status: ('A' for Active; 'I' for Inactive)
REMARK    1  A    between atoms: C_1  and  N_2
REMARK    2  A    between atoms: C_1  and  C_17
REMARK    3  A    between atoms: N_3  and  C_11
REMARK    4  A    between atoms: C_17  and  C_18
REMARK    5  A    between atoms: C_18  and  C_19
REMARK    6  A    between atoms: C_19  and  O_20
REMARK    7  A    between atoms: O_20  and  C_24
REMARK                            x       y       z     vdW  Elec       q    Type
REMARK                         _______ _______ _______ _____ _____    ______ ____
ROOT
ATOM      1  C   UNL     1      35.778 -21.724 -18.722  0.00  0.00    -0.077 C 
ENDROOT
BRANCH   1   2
ATOM      2  N   UNL     1      35.737 -20.900 -19.930  0.00  0.00    +0.389 N 
ATOM      3  N   UNL     1      35.249 -18.538 -21.459  0.00  0.00    -0.311 N 
ATOM      4  C   UNL     1      34.363 -20.471 -20.215  0.00  0.00    -0.055 C 
ATOM      5  C   UNL     1      36.605 -19.726 -19.781  0.00  0.00    -0.055 C 
ATOM      6  C   UNL     1      36.617 -18.885 -21.060  0.00  0.00    +0.068 C 
ATOM      7  C   UNL     1      34.298 -19.656 -21.508  0.00  0.00    +0.068 C 
ATOM      8  H   UNL     1      36.075 -21.463 -20.710  0.00  0.00    -0.080 HD
BRANCH   3  11
ATOM      9 CL   UNL     1      34.942 -15.881 -20.107  0.00  0.00    -0.080 Cl
ATOM     10 CL   UNL     1      34.444 -13.466 -22.163  0.00  0.00    -0.081 Cl
ATOM     11  C   UNL     1      35.031 -17.451 -22.314  0.00  0.00    +0.059 C 
ATOM     12  C   UNL     1      34.869 -16.155 -21.821  0.00  0.00    +0.081 C 
ATOM     13  C   UNL     1      34.975 -17.687 -23.687  0.00  0.00    +0.015 C 
ATOM     14  C   UNL     1      34.652 -15.097 -22.703  0.00  0.00    +0.069 C 
ATOM     15  C   UNL     1      34.758 -16.628 -24.568  0.00  0.00    +0.002 C 
ATOM     16  C   UNL     1      34.596 -15.333 -24.076  0.00  0.00    +0.012 C 
ENDBRANCH   3  11
ENDBRANCH   1   2
BRANCH   1  17
ATOM     17  C   UNL     1      36.787 -21.158 -17.726  0.00  0.00    -0.019 C 
BRANCH  17  18
ATOM     18  C   UNL     1      36.774 -21.945 -16.417  0.00  0.00    +0.045 C 
BRANCH  18  19
ATOM     19  C   UNL     1      35.552 -22.848 -16.317  0.00  0.00    +0.205 C 
BRANCH  19  20
ATOM     20  O   UNL     1      35.039 -22.817 -14.992  0.00  0.00    -0.475 OA
BRANCH  20  24
ATOM     21  O   UNL     1      29.820 -24.462 -14.224  0.00  0.00    -0.464 OA
ATOM     22  O   UNL     1      28.198 -22.699 -16.930  0.00  0.00    -0.271 OA
ATOM     23  N   UNL     1      30.422 -22.694 -16.348  0.00  0.00    -0.278 N 
ATOM     24  C   UNL     1      33.741 -23.225 -14.822  0.00  0.00    +0.140 C 
ATOM     25  C   UNL     1      32.746 -22.762 -15.683  0.00  0.00    +0.055 C 
ATOM     26  C   UNL     1      31.428 -23.186 -15.509  0.00  0.00    +0.088 C 
ATOM     27  C   UNL     1      33.415 -24.099 -13.784  0.00  0.00    +0.040 C 
ATOM     28  C   UNL     1      31.102 -24.062 -14.476  0.00  0.00    +0.153 C 
ATOM     29  C   UNL     1      32.095 -24.513 -13.606  0.00  0.00    +0.041 C 
ATOM     30  C   UNL     1      28.945 -24.333 -15.329  0.00  0.00    +0.290 C 
ATOM     31  C   UNL     1      29.127 -23.148 -16.262  0.00  0.00    +0.271 C 
ATOM     32  H   UNL     1      30.647 -22.008 -17.016  0.00  0.00    +0.155 HD
ENDBRANCH  20  24
ENDBRANCH  19  20
ENDBRANCH  18  19
ENDBRANCH  17  18
ENDBRANCH   1  17
TORSDOF 7
ENDMDL
MODEL 9
REMARK VINA RESULT:     -10.5      2.143      2.913
REMARK  Name = 46861612
REMARK  7 active torsions:
REMARK  status: ('A' for Active; 'I' for Inactive)
REMARK    1  A    between atoms: C_1  and  N_2
REMARK    2  A    between atoms: C_1  and  C_17
REMARK    3  A    between atoms: N_3  and  C_11
REMARK    4  A    between atoms: C_17  and  C_18
REMARK    5  A    between atoms: C_18  and  C_19
REMARK    6  A    between atoms: C_19  and  O_20
REMARK    7  A    between atoms: O_20  and  C_24
REMARK                            x       y       z     vdW  Elec       q    Type
REMARK                         _______ _______ _______ _____ _____    ______ ____
ROOT
ATOM      1  C   UNL     1      34.752 -16.389 -23.826  0.00  0.00    -0.077 C 
ENDROOT
BRANCH   1   2
ATOM      2  N   UNL     1      33.899 -15.247 -23.498  0.00  0.00    +0.389 N 
ATOM      3  N   UNL     1      33.262 -12.487 -23.134  0.00  0.00    -0.311 N 
ATOM      4  C   UNL     1      34.448 -14.503 -22.359  0.00  0.00    -0.055 C 
ATOM      5  C   UNL     1      33.763 -14.357 -24.657  0.00  0.00    -0.055 C 
ATOM      6  C   UNL     1      32.826 -13.188 -24.346  0.00  0.00    +0.068 C 
ATOM      7  C   UNL     1      33.533 -13.340 -21.969  0.00  0.00    +0.068 C 
ATOM      8  H   UNL     1      32.976 -15.603 -23.246  0.00  0.00    -0.080 HD
BRANCH   3  11
ATOM      9 CL   UNL     1      35.156 -10.350 -24.044  0.00  0.00    -0.080 Cl
ATOM     10 CL   UNL     1      34.087  -7.380 -23.459  0.00  0.00    -0.081 Cl
ATOM     11  C   UNL     1      32.841 -11.173 -22.903  0.00  0.00    +0.059 C 
ATOM     12  C   UNL     1      33.623 -10.078 -23.274  0.00  0.00    +0.081 C 
ATOM     13  C   UNL     1      31.607 -10.971 -22.284  0.00  0.00    +0.015 C 
ATOM     14  C   UNL     1      33.170  -8.782 -23.026  0.00  0.00    +0.069 C 
ATOM     15  C   UNL     1      31.155  -9.674 -22.038  0.00  0.00    +0.002 C 
ATOM     16  C   UNL     1      31.937  -8.580 -22.408  0.00  0.00    +0.012 C 
ENDBRANCH   3  11
ENDBRANCH   1   2
BRANCH   1  17
ATOM     17  C   UNL     1      35.485 -16.880 -22.579  0.00  0.00    -0.019 C 
BRANCH  17  18
ATOM     18  C   UNL     1      35.651 -18.398 -22.596  0.00  0.00    +0.045 C 
BRANCH  18  19
ATOM     19  C   UNL     1      35.651 -18.980 -21.189  0.00  0.00    +0.205 C 
BRANCH  19  20
ATOM     20  O   UNL     1      34.836 -20.143 -21.149  0.00  0.00    -0.475 OA
BRANCH  20  24
ATOM     21  O   UNL     1      34.965 -23.026 -16.438  0.00  0.00    -0.464 OA
ATOM     22  O   UNL     1      31.430 -23.585 -15.942  0.00  0.00    -0.271 OA
ATOM     23  N   UNL     1      32.475 -22.456 -17.650  0.00  0.00    -0.278 N 
ATOM     24  C   UNL     1      34.851 -20.870 -19.987  0.00  0.00    +0.140 C 
ATOM     25  C   UNL     1      33.653 -21.305 -19.421  0.00  0.00    +0.055 C 
ATOM     26  C   UNL     1      33.676 -22.050 -18.240  0.00  0.00    +0.088 C 
ATOM     27  C   UNL     1      36.066 -21.168 -19.368  0.00  0.00    +0.040 C 
ATOM     28  C   UNL     1      34.889 -22.352 -17.623  0.00  0.00    +0.153 C 
ATOM     29  C   UNL     1      36.086 -21.903 -18.182  0.00  0.00    +0.041 C 
ATOM     30  C   UNL     1      33.819 -23.799 -16.134  0.00  0.00    +0.290 C 
ATOM     31  C   UNL     1      32.456 -23.259 -16.534  0.00  0.00    +0.271 C 
ATOM     32  H   UNL     1      31.623 -22.161 -18.044  0.00  0.00    +0.155 HD
ENDBRANCH  20  24
ENDBRANCH  19  20
ENDBRANCH  18  19
ENDBRANCH  17  18
ENDBRANCH   1  17
TORSDOF 7
ENDMDL
