MODEL 1
REMARK VINA RESULT:     -11.2      0.000      0.000
REMARK  Name = 6918852
REMARK  5 active torsions:
REMARK  status: ('A' for Active; 'I' for Inactive)
REMARK    1  A    between atoms: N_1  and  C_13
REMARK    2  A    between atoms: C_7  and  C_23
REMARK    3  A    between atoms: N_12  and  S_18
REMARK    4  A    between atoms: C_23  and  C_26
REMARK    5  A    between atoms: C_27  and  O_32
REMARK                            x       y       z     vdW  Elec       q    Type
REMARK                         _______ _______ _______ _____ _____    ______ ____
ROOT
ATOM      1  N   UNL     1      35.894 -17.774 -21.158  0.00  0.00    -0.270 N 
ATOM      2  N   UNL     1      34.271 -19.308 -20.434  0.00  0.00    -0.323 NA
ATOM      3  N   UNL     1      36.618 -19.721 -20.067  0.00  0.00    -0.170 NA
ATOM      4  N   UNL     1      32.652 -20.872 -19.692  0.00  0.00    -0.332 N 
ATOM      5  C   UNL     1      35.585 -18.970 -20.534  0.00  0.00    +0.146 C 
ATOM      6  C   UNL     1      34.008 -20.480 -19.819  0.00  0.00    +0.194 C 
ATOM      7  C   UNL     1      34.981 -21.315 -19.310  0.00  0.00    +0.103 C 
ATOM      8  C   UNL     1      36.282 -20.880 -19.463  0.00  0.00    +0.119 C 
ATOM      9  H   UNL     1      36.841 -17.520 -21.235  0.00  0.00    +0.159 HD
ATOM     10  H   UNL     1      31.937 -20.295 -20.047  0.00  0.00    +0.145 HD
ATOM     11  H   UNL     1      32.424 -21.721 -19.249  0.00  0.00    +0.145 HD
ENDROOT
BRANCH   1  13
ATOM     12  N   UNL     1      34.281 -14.289 -22.880  0.00  0.00    -0.159 NA
ATOM     13  C   UNL     1      34.897 -16.878 -21.704  0.00  0.00    +0.082 C 
ATOM     14  C   UNL     1      34.836 -15.599 -20.865  0.00  0.00    +0.039 C 
ATOM     15  C   UNL     1      35.241 -16.544 -23.158  0.00  0.00    +0.039 C 
ATOM     16  C   UNL     1      33.874 -14.583 -21.474  0.00  0.00    +0.097 C 
ATOM     17  C   UNL     1      34.274 -15.514 -23.733  0.00  0.00    +0.097 C 
BRANCH  12  18
ATOM     18  S   UNL     1      33.550 -12.907 -23.579  0.00  0.00    +0.046 S 
ATOM     19  O   UNL     1      32.958 -13.285 -24.843  0.00  0.00    -0.157 OA
ATOM     20  O   UNL     1      34.464 -11.792 -23.469  0.00  0.00    -0.157 OA
ATOM     21  C   UNL     1      32.238 -12.660 -22.412  0.00  0.00    +0.196 C 
ENDBRANCH  12  18
ENDBRANCH   1  13
BRANCH   7  23
ATOM     22  O   UNL     1      34.490 -23.602 -19.316  0.00  0.00    -0.286 OA
ATOM     23  C   UNL     1      34.698 -22.579 -18.647  0.00  0.00    +0.206 C 
BRANCH  23  26
ATOM     24  F   UNL     1      37.010 -22.472 -17.087  0.00  0.00    -0.202 F 
ATOM     25  F   UNL     1      36.942 -22.708 -14.374  0.00  0.00    -0.202 F 
ATOM     26  C   UNL     1      34.647 -22.710 -17.161  0.00  0.00    +0.103 C 
ATOM     27  C   UNL     1      33.431 -22.888 -16.540  0.00  0.00    +0.144 C 
ATOM     28  C   UNL     1      35.834 -22.646 -16.466  0.00  0.00    +0.173 C 
ATOM     29  C   UNL     1      33.401 -23.008 -15.150  0.00  0.00    +0.039 C 
ATOM     30  C   UNL     1      35.803 -22.766 -15.077  0.00  0.00    +0.168 C 
ATOM     31  C   UNL     1      34.587 -22.947 -14.419  0.00  0.00    +0.035 C 
BRANCH  27  32
ATOM     32  O   UNL     1      32.261 -22.949 -17.236  0.00  0.00    -0.471 OA
ATOM     33  C   UNL     1      31.056 -22.777 -16.494  0.00  0.00    +0.252 C 
ENDBRANCH  27  32
ENDBRANCH  23  26
ENDBRANCH   7  23
TORSDOF 5
ENDMDL
MODEL 2
REMARK VINA RESULT:     -11.1      1.569      2.199
REMARK  Name = 6918852
REMARK  5 active torsions:
REMARK  status: ('A' for Active; 'I' for Inactive)
REMARK    1  A    between atoms: N_1  and  C_13
REMARK    2  A    between atoms: C_7  and  C_23
REMARK    3  A    between atoms: N_12  and  S_18
REMARK    4  A    between atoms: C_23  and  C_26
REMARK    5  A    between atoms: C_27  and  O_32
REMARK                            x       y       z     vdW  Elec       q    Type
REMARK                         _______ _______ _______ _____ _____    ______ ____
ROOT
ATOM      1  N   UNL     1      35.834 -17.877 -21.016  0.00  0.00    -0.270 N 
ATOM      2  N   UNL     1      34.166 -19.408 -20.398  0.00  0.00    -0.323 NA
ATOM      3  N   UNL     1      36.484 -19.824 -19.880  0.00  0.00    -0.170 NA
ATOM      4  N   UNL     1      32.500 -20.969 -19.761  0.00  0.00    -0.332 N 
ATOM      5  C   UNL     1      35.485 -19.072 -20.413  0.00  0.00    +0.146 C 
ATOM      6  C   UNL     1      33.862 -20.580 -19.801  0.00  0.00    +0.194 C 
ATOM      7  C   UNL     1      34.799 -21.416 -19.230  0.00  0.00    +0.103 C 
ATOM      8  C   UNL     1      36.107 -20.982 -19.300  0.00  0.00    +0.119 C 
ATOM      9  H   UNL     1      36.785 -17.624 -21.032  0.00  0.00    +0.159 HD
ATOM     10  H   UNL     1      31.811 -20.391 -20.162  0.00  0.00    +0.145 HD
ATOM     11  H   UNL     1      32.243 -21.818 -19.334  0.00  0.00    +0.145 HD
ENDROOT
BRANCH   1  13
ATOM     12  N   UNL     1      34.347 -14.398 -22.860  0.00  0.00    -0.159 NA
ATOM     13  C   UNL     1      34.877 -16.979 -21.625  0.00  0.00    +0.082 C 
ATOM     14  C   UNL     1      34.780 -15.690 -20.805  0.00  0.00    +0.039 C 
ATOM     15  C   UNL     1      35.302 -16.664 -23.061  0.00  0.00    +0.039 C 
ATOM     16  C   UNL     1      33.862 -14.673 -21.476  0.00  0.00    +0.097 C 
ATOM     17  C   UNL     1      34.377 -15.632 -23.699  0.00  0.00    +0.097 C 
BRANCH  12  18
ATOM     18  S   UNL     1      33.666 -13.018 -23.613  0.00  0.00    +0.046 S 
ATOM     19  O   UNL     1      33.118 -13.411 -24.892  0.00  0.00    -0.157 OA
ATOM     20  O   UNL     1      34.594 -11.917 -23.488  0.00  0.00    -0.157 OA
ATOM     21  C   UNL     1      32.314 -12.728 -22.502  0.00  0.00    +0.196 C 
ENDBRANCH  12  18
ENDBRANCH   1  13
BRANCH   7  23
ATOM     22  O   UNL     1      34.343 -23.710 -19.265  0.00  0.00    -0.286 OA
ATOM     23  C   UNL     1      34.472 -22.679 -18.587  0.00  0.00    +0.206 C 
BRANCH  23  26
ATOM     24  F   UNL     1      31.932 -22.899 -17.452  0.00  0.00    -0.202 F 
ATOM     25  F   UNL     1      31.557 -23.121 -14.764  0.00  0.00    -0.202 F 
ATOM     26  C   UNL     1      34.281 -22.801 -17.111  0.00  0.00    +0.103 C 
ATOM     27  C   UNL     1      35.383 -22.805 -16.286  0.00  0.00    +0.144 C 
ATOM     28  C   UNL     1      32.994 -22.904 -16.634  0.00  0.00    +0.173 C 
ATOM     29  C   UNL     1      35.187 -22.919 -14.909  0.00  0.00    +0.039 C 
ATOM     30  C   UNL     1      32.799 -23.019 -15.257  0.00  0.00    +0.168 C 
ATOM     31  C   UNL     1      33.894 -23.026 -14.395  0.00  0.00    +0.035 C 
BRANCH  27  32
ATOM     32  O   UNL     1      36.653 -22.702 -16.768  0.00  0.00    -0.471 OA
ATOM     33  C   UNL     1      37.664 -22.294 -15.849  0.00  0.00    +0.252 C 
ENDBRANCH  27  32
ENDBRANCH  23  26
ENDBRANCH   7  23
TORSDOF 5
ENDMDL
MODEL 3
REMARK VINA RESULT:     -10.0      6.865     12.090
REMARK  Name = 6918852
REMARK  5 active torsions:
REMARK  status: ('A' for Active; 'I' for Inactive)
REMARK    1  A    between atoms: N_1  and  C_13
REMARK    2  A    between atoms: C_7  and  C_23
REMARK    3  A    between atoms: N_12  and  S_18
REMARK    4  A    between atoms: C_23  and  C_26
REMARK    5  A    between atoms: C_27  and  O_32
REMARK                            x       y       z     vdW  Elec       q    Type
REMARK                         _______ _______ _______ _____ _____    ______ ____
ROOT
ATOM      1  N   UNL     1      34.565 -13.420 -23.530  0.00  0.00    -0.270 N 
ATOM      2  N   UNL     1      32.639 -12.525 -22.530  0.00  0.00    -0.323 NA
ATOM      3  N   UNL     1      34.093 -11.148 -23.873  0.00  0.00    -0.170 NA
ATOM      4  N   UNL     1      30.700 -11.597 -21.532  0.00  0.00    -0.332 N 
ATOM      5  C   UNL     1      33.741 -12.332 -23.305  0.00  0.00    +0.146 C 
ATOM      6  C   UNL     1      31.859 -11.442 -22.332  0.00  0.00    +0.194 C 
ATOM      7  C   UNL     1      32.125 -10.197 -22.864  0.00  0.00    +0.103 C 
ATOM      8  C   UNL     1      33.267 -10.108 -23.634  0.00  0.00    +0.119 C 
ATOM      9  H   UNL     1      35.364 -13.292 -24.090  0.00  0.00    +0.159 HD
ATOM     10  H   UNL     1      30.486 -12.475 -21.140  0.00  0.00    +0.145 HD
ATOM     11  H   UNL     1      30.109 -10.828 -21.367  0.00  0.00    +0.145 HD
ENDROOT
BRANCH   1  13
ATOM     12  N   UNL     1      35.399 -17.231 -21.949  0.00  0.00    -0.159 NA
ATOM     13  C   UNL     1      34.314 -14.738 -22.986  0.00  0.00    +0.082 C 
ATOM     14  C   UNL     1      34.924 -15.802 -23.902  0.00  0.00    +0.039 C 
ATOM     15  C   UNL     1      34.912 -14.841 -21.580  0.00  0.00    +0.039 C 
ATOM     16  C   UNL     1      34.776 -17.198 -23.306  0.00  0.00    +0.097 C 
ATOM     17  C   UNL     1      34.765 -16.251 -21.018  0.00  0.00    +0.097 C 
BRANCH  12  18
ATOM     18  S   UNL     1      35.656 -18.796 -21.301  0.00  0.00    +0.046 S 
ATOM     19  O   UNL     1      34.636 -19.060 -20.310  0.00  0.00    -0.157 OA
ATOM     20  O   UNL     1      37.063 -18.950 -21.005  0.00  0.00    -0.157 OA
ATOM     21  C   UNL     1      35.286 -19.763 -22.740  0.00  0.00    +0.196 C 
ENDBRANCH  12  18
ENDBRANCH   1  13
BRANCH   7  23
ATOM     22  O   UNL     1      30.117  -9.015 -23.066  0.00  0.00    -0.286 OA
ATOM     23  C   UNL     1      31.285  -9.028 -22.651  0.00  0.00    +0.206 C 
BRANCH  23  26
ATOM     24  F   UNL     1      31.304  -6.520 -23.875  0.00  0.00    -0.202 F 
ATOM     25  F   UNL     1      32.188  -4.286 -22.593  0.00  0.00    -0.202 F 
ATOM     26  C   UNL     1      31.773  -7.811 -21.936  0.00  0.00    +0.103 C 
ATOM     27  C   UNL     1      32.225  -7.924 -20.641  0.00  0.00    +0.144 C 
ATOM     28  C   UNL     1      31.748  -6.613 -22.613  0.00  0.00    +0.173 C 
ATOM     29  C   UNL     1      32.677  -6.777 -19.988  0.00  0.00    +0.039 C 
ATOM     30  C   UNL     1      32.200  -5.466 -21.960  0.00  0.00    +0.168 C 
ATOM     31  C   UNL     1      32.664  -5.548 -20.648  0.00  0.00    +0.035 C 
BRANCH  27  32
ATOM     32  O   UNL     1      32.245  -9.115 -19.979  0.00  0.00    -0.471 OA
ATOM     33  C   UNL     1      31.491  -9.198 -18.772  0.00  0.00    +0.252 C 
ENDBRANCH  27  32
ENDBRANCH  23  26
ENDBRANCH   7  23
TORSDOF 5
ENDMDL
MODEL 4
REMARK VINA RESULT:     -10.0      3.808      6.018
REMARK  Name = 6918852
REMARK  5 active torsions:
REMARK  status: ('A' for Active; 'I' for Inactive)
REMARK    1  A    between atoms: N_1  and  C_13
REMARK    2  A    between atoms: C_7  and  C_23
REMARK    3  A    between atoms: N_12  and  S_18
REMARK    4  A    between atoms: C_23  and  C_26
REMARK    5  A    between atoms: C_27  and  O_32
REMARK                            x       y       z     vdW  Elec       q    Type
REMARK                         _______ _______ _______ _____ _____    ______ ____
ROOT
ATOM      1  N   UNL     1      32.893 -22.532 -18.338  0.00  0.00    -0.270 N 
ATOM      2  N   UNL     1      34.719 -22.710 -16.874  0.00  0.00    -0.323 NA
ATOM      3  N   UNL     1      32.537 -23.511 -16.236  0.00  0.00    -0.170 NA
ATOM      4  N   UNL     1      36.548 -22.902 -15.378  0.00  0.00    -0.332 N 
ATOM      5  C   UNL     1      33.398 -22.930 -17.113  0.00  0.00    +0.146 C 
ATOM      6  C   UNL     1      35.177 -23.111 -15.670  0.00  0.00    +0.194 C 
ATOM      7  C   UNL     1      34.388 -23.711 -14.710  0.00  0.00    +0.103 C 
ATOM      8  C   UNL     1      33.063 -23.888 -15.052  0.00  0.00    +0.119 C 
ATOM      9  H   UNL     1      31.939 -22.687 -18.521  0.00  0.00    +0.159 HD
ATOM     10  H   UNL     1      37.134 -22.476 -16.046  0.00  0.00    +0.145 HD
ATOM     11  H   UNL     1      36.915 -23.183 -14.509  0.00  0.00    +0.145 HD
ENDROOT
BRANCH   1  13
ATOM     12  N   UNL     1      35.189 -19.563 -20.243  0.00  0.00    -0.159 NA
ATOM     13  C   UNL     1      33.694 -21.899 -19.364  0.00  0.00    +0.082 C 
ATOM     14  C   UNL     1      32.998 -20.626 -19.852  0.00  0.00    +0.039 C 
ATOM     15  C   UNL     1      35.081 -21.567 -18.809  0.00  0.00    +0.039 C 
ATOM     16  C   UNL     1      33.864 -19.872 -20.857  0.00  0.00    +0.097 C 
ATOM     17  C   UNL     1      35.916 -20.799 -19.828  0.00  0.00    +0.097 C 
BRANCH  12  18
ATOM     18  S   UNL     1      36.132 -18.406 -21.084  0.00  0.00    +0.046 S 
ATOM     19  O   UNL     1      37.529 -18.744 -20.925  0.00  0.00    -0.157 OA
ATOM     20  O   UNL     1      35.628 -17.086 -20.777  0.00  0.00    -0.157 OA
ATOM     21  C   UNL     1      35.656 -18.806 -22.744  0.00  0.00    +0.196 C 
ENDBRANCH  12  18
ENDBRANCH   1  13
BRANCH   7  23
ATOM     22  O   UNL     1      34.164 -24.037 -12.405  0.00  0.00    -0.286 OA
ATOM     23  C   UNL     1      34.880 -24.144 -13.411  0.00  0.00    +0.206 C 
BRANCH  23  26
ATOM     24  F   UNL     1      35.677 -26.458 -14.752  0.00  0.00    -0.202 F 
ATOM     25  F   UNL     1      38.155 -27.542 -14.430  0.00  0.00    -0.202 F 
ATOM     26  C   UNL     1      36.242 -24.727 -13.225  0.00  0.00    +0.103 C 
ATOM     27  C   UNL     1      37.129 -24.112 -12.371  0.00  0.00    +0.144 C 
ATOM     28  C   UNL     1      36.554 -25.871 -13.924  0.00  0.00    +0.173 C 
ATOM     29  C   UNL     1      38.398 -24.671 -12.209  0.00  0.00    +0.039 C 
ATOM     30  C   UNL     1      37.823 -26.429 -13.762  0.00  0.00    +0.168 C 
ATOM     31  C   UNL     1      38.744 -25.829 -12.905  0.00  0.00    +0.035 C 
BRANCH  27  32
ATOM     32  O   UNL     1      36.811 -22.980 -11.683  0.00  0.00    -0.471 OA
ATOM     33  C   UNL     1      36.697 -23.093 -10.267  0.00  0.00    +0.252 C 
ENDBRANCH  27  32
ENDBRANCH  23  26
ENDBRANCH   7  23
TORSDOF 5
ENDMDL
MODEL 5
REMARK VINA RESULT:      -9.7      3.664      5.947
REMARK  Name = 6918852
REMARK  5 active torsions:
REMARK  status: ('A' for Active; 'I' for Inactive)
REMARK    1  A    between atoms: N_1  and  C_13
REMARK    2  A    between atoms: C_7  and  C_23
REMARK    3  A    between atoms: N_12  and  S_18
REMARK    4  A    between atoms: C_23  and  C_26
REMARK    5  A    between atoms: C_27  and  O_32
REMARK                            x       y       z     vdW  Elec       q    Type
REMARK                         _______ _______ _______ _____ _____    ______ ____
ROOT
ATOM      1  N   UNL     1      32.913 -22.597 -18.296  0.00  0.00    -0.270 N 
ATOM      2  N   UNL     1      34.703 -22.760 -16.786  0.00  0.00    -0.323 NA
ATOM      3  N   UNL     1      32.507 -23.563 -16.197  0.00  0.00    -0.170 NA
ATOM      4  N   UNL     1      36.495 -22.937 -15.244  0.00  0.00    -0.332 N 
ATOM      5  C   UNL     1      33.388 -22.985 -17.056  0.00  0.00    +0.146 C 
ATOM      6  C   UNL     1      35.132 -23.151 -15.568  0.00  0.00    +0.194 C 
ATOM      7  C   UNL     1      34.320 -23.747 -14.624  0.00  0.00    +0.103 C 
ATOM      8  C   UNL     1      33.004 -23.930 -14.997  0.00  0.00    +0.119 C 
ATOM      9  H   UNL     1      31.964 -22.756 -18.501  0.00  0.00    +0.159 HD
ATOM     10  H   UNL     1      37.095 -22.514 -15.899  0.00  0.00    +0.145 HD
ATOM     11  H   UNL     1      36.840 -23.211 -14.364  0.00  0.00    +0.145 HD
ENDROOT
BRANCH   1  13
ATOM     12  N   UNL     1      35.205 -19.616 -20.187  0.00  0.00    -0.159 NA
ATOM     13  C   UNL     1      33.737 -21.968 -19.306  0.00  0.00    +0.082 C 
ATOM     14  C   UNL     1      33.029 -20.727 -19.855  0.00  0.00    +0.039 C 
ATOM     15  C   UNL     1      35.092 -21.585 -18.706  0.00  0.00    +0.039 C 
ATOM     16  C   UNL     1      33.914 -19.976 -20.844  0.00  0.00    +0.097 C 
ATOM     17  C   UNL     1      35.947 -20.820 -19.711  0.00  0.00    +0.097 C 
BRANCH  12  18
ATOM     18  S   UNL     1      36.151 -18.456 -21.020  0.00  0.00    +0.046 S 
ATOM     19  O   UNL     1      37.548 -18.786 -20.847  0.00  0.00    -0.157 OA
ATOM     20  O   UNL     1      35.637 -17.137 -20.721  0.00  0.00    -0.157 OA
ATOM     21  C   UNL     1      35.694 -18.861 -22.685  0.00  0.00    +0.196 C 
ENDBRANCH  12  18
ENDBRANCH   1  13
BRANCH   7  23
ATOM     22  O   UNL     1      34.001 -24.174 -12.346  0.00  0.00    -0.286 OA
ATOM     23  C   UNL     1      34.781 -24.170 -13.310  0.00  0.00    +0.206 C 
BRANCH  23  26
ATOM     24  F   UNL     1      36.459 -22.791 -11.557  0.00  0.00    -0.202 F 
ATOM     25  F   UNL     1      39.022 -23.578 -11.080  0.00  0.00    -0.202 F 
ATOM     26  C   UNL     1      36.185 -24.612 -13.058  0.00  0.00    +0.103 C 
ATOM     27  C   UNL     1      36.668 -25.727 -13.705  0.00  0.00    +0.144 C 
ATOM     28  C   UNL     1      36.945 -23.875 -12.178  0.00  0.00    +0.173 C 
ATOM     29  C   UNL     1      37.982 -26.127 -13.458  0.00  0.00    +0.039 C 
ATOM     30  C   UNL     1      38.259 -24.275 -11.932  0.00  0.00    +0.168 C 
ATOM     31  C   UNL     1      38.776 -25.401 -12.571  0.00  0.00    +0.035 C 
BRANCH  27  32
ATOM     32  O   UNL     1      35.907 -26.451 -14.574  0.00  0.00    -0.471 OA
ATOM     33  C   UNL     1      36.599 -27.254 -15.526  0.00  0.00    +0.252 C 
ENDBRANCH  27  32
ENDBRANCH  23  26
ENDBRANCH   7  23
TORSDOF 5
ENDMDL
MODEL 6
REMARK VINA RESULT:      -9.7      6.236     12.154
REMARK  Name = 6918852
REMARK  5 active torsions:
REMARK  status: ('A' for Active; 'I' for Inactive)
REMARK    1  A    between atoms: N_1  and  C_13
REMARK    2  A    between atoms: C_7  and  C_23
REMARK    3  A    between atoms: N_12  and  S_18
REMARK    4  A    between atoms: C_23  and  C_26
REMARK    5  A    between atoms: C_27  and  O_32
REMARK                            x       y       z     vdW  Elec       q    Type
REMARK                         _______ _______ _______ _____ _____    ______ ____
ROOT
ATOM      1  N   UNL     1      34.561 -13.415 -23.517  0.00  0.00    -0.270 N 
ATOM      2  N   UNL     1      32.617 -12.536 -22.539  0.00  0.00    -0.323 NA
ATOM      3  N   UNL     1      34.078 -11.144 -23.858  0.00  0.00    -0.170 NA
ATOM      4  N   UNL     1      30.659 -11.625 -21.562  0.00  0.00    -0.332 N 
ATOM      5  C   UNL     1      33.727 -12.333 -23.299  0.00  0.00    +0.146 C 
ATOM      6  C   UNL     1      31.827 -11.459 -22.347  0.00  0.00    +0.194 C 
ATOM      7  C   UNL     1      32.092 -10.210 -22.871  0.00  0.00    +0.103 C 
ATOM      8  C   UNL     1      33.242 -10.111 -23.626  0.00  0.00    +0.119 C 
ATOM      9  H   UNL     1      35.366 -13.278 -24.066  0.00  0.00    +0.159 HD
ATOM     10  H   UNL     1      30.446 -12.506 -21.177  0.00  0.00    +0.145 HD
ATOM     11  H   UNL     1      30.060 -10.860 -21.402  0.00  0.00    +0.145 HD
ENDROOT
BRANCH   1  13
ATOM     12  N   UNL     1      35.401 -17.232 -21.956  0.00  0.00    -0.159 NA
ATOM     13  C   UNL     1      34.313 -14.736 -22.981  0.00  0.00    +0.082 C 
ATOM     14  C   UNL     1      34.928 -15.793 -23.902  0.00  0.00    +0.039 C 
ATOM     15  C   UNL     1      34.907 -14.845 -21.575  0.00  0.00    +0.039 C 
ATOM     16  C   UNL     1      34.782 -17.193 -23.314  0.00  0.00    +0.097 C 
ATOM     17  C   UNL     1      34.763 -16.259 -21.021  0.00  0.00    +0.097 C 
BRANCH  12  18
ATOM     18  S   UNL     1      35.660 -18.799 -21.316  0.00  0.00    +0.046 S 
ATOM     19  O   UNL     1      34.628 -19.079 -20.343  0.00  0.00    -0.157 OA
ATOM     20  O   UNL     1      37.064 -18.945 -21.000  0.00  0.00    -0.157 OA
ATOM     21  C   UNL     1      35.320 -19.758 -22.768  0.00  0.00    +0.196 C 
ENDBRANCH  12  18
ENDBRANCH   1  13
BRANCH   7  23
ATOM     22  O   UNL     1      30.036  -9.097 -22.953  0.00  0.00    -0.286 OA
ATOM     23  C   UNL     1      31.241  -9.048 -22.664  0.00  0.00    +0.206 C 
BRANCH  23  26
ATOM     24  F   UNL     1      32.225  -8.877 -20.058  0.00  0.00    -0.202 F 
ATOM     25  F   UNL     1      33.178  -6.549 -19.016  0.00  0.00    -0.202 F 
ATOM     26  C   UNL     1      31.761  -7.765 -22.106  0.00  0.00    +0.103 C 
ATOM     27  C   UNL     1      31.756  -6.635 -22.892  0.00  0.00    +0.144 C 
ATOM     28  C   UNL     1      32.228  -7.767 -20.810  0.00  0.00    +0.173 C 
ATOM     29  C   UNL     1      32.246  -5.444 -22.354  0.00  0.00    +0.039 C 
ATOM     30  C   UNL     1      32.717  -6.576 -20.274  0.00  0.00    +0.168 C 
ATOM     31  C   UNL     1      32.726  -5.415 -21.045  0.00  0.00    +0.035 C 
BRANCH  27  32
ATOM     32  O   UNL     1      31.293  -6.642 -24.173  0.00  0.00    -0.471 OA
ATOM     33  C   UNL     1      32.265  -6.607 -25.214  0.00  0.00    +0.252 C 
ENDBRANCH  27  32
ENDBRANCH  23  26
ENDBRANCH   7  23
TORSDOF 5
ENDMDL
MODEL 7
REMARK VINA RESULT:      -9.5      4.313      9.426
REMARK  Name = 6918852
REMARK  5 active torsions:
REMARK  status: ('A' for Active; 'I' for Inactive)
REMARK    1  A    between atoms: N_1  and  C_13
REMARK    2  A    between atoms: C_7  and  C_23
REMARK    3  A    between atoms: N_12  and  S_18
REMARK    4  A    between atoms: C_23  and  C_26
REMARK    5  A    between atoms: C_27  and  O_32
REMARK                            x       y       z     vdW  Elec       q    Type
REMARK                         _______ _______ _______ _____ _____    ______ ____
ROOT
ATOM      1  N   UNL     1      32.914 -22.059 -18.701  0.00  0.00    -0.270 N 
ATOM      2  N   UNL     1      34.976 -21.061 -19.212  0.00  0.00    -0.323 NA
ATOM      3  N   UNL     1      32.959 -20.394 -20.353  0.00  0.00    -0.170 NA
ATOM      4  N   UNL     1      37.046 -20.038 -19.747  0.00  0.00    -0.332 N 
ATOM      5  C   UNL     1      33.638 -21.144 -19.444  0.00  0.00    +0.146 C 
ATOM      6  C   UNL     1      35.650 -20.158 -19.955  0.00  0.00    +0.194 C 
ATOM      7  C   UNL     1      35.057 -19.349 -20.902  0.00  0.00    +0.103 C 
ATOM      8  C   UNL     1      33.696 -19.512 -21.059  0.00  0.00    +0.119 C 
ATOM      9  H   UNL     1      31.946 -22.126 -18.860  0.00  0.00    +0.159 HD
ATOM     10  H   UNL     1      37.494 -20.604 -19.077  0.00  0.00    +0.145 HD
ATOM     11  H   UNL     1      37.568 -19.389 -20.272  0.00  0.00    +0.145 HD
ENDROOT
BRANCH   1  13
ATOM     12  N   UNL     1      34.451 -23.258 -14.971  0.00  0.00    -0.159 NA
ATOM     13  C   UNL     1      33.506 -22.924 -17.702  0.00  0.00    +0.082 C 
ATOM     14  C   UNL     1      34.833 -22.330 -17.223  0.00  0.00    +0.039 C 
ATOM     15  C   UNL     1      32.542 -23.090 -16.524  0.00  0.00    +0.039 C 
ATOM     16  C   UNL     1      35.434 -23.157 -16.090  0.00  0.00    +0.097 C 
ATOM     17  C   UNL     1      33.177 -23.904 -15.401  0.00  0.00    +0.097 C 
BRANCH  12  18
ATOM     18  S   UNL     1      35.092 -23.822 -13.485  0.00  0.00    +0.046 S 
ATOM     19  O   UNL     1      33.996 -24.111 -12.587  0.00  0.00    -0.157 OA
ATOM     20  O   UNL     1      36.189 -22.963 -13.098  0.00  0.00    -0.157 OA
ATOM     21  C   UNL     1      35.770 -25.365 -14.037  0.00  0.00    +0.196 C 
ENDBRANCH  12  18
ENDBRANCH   1  13
BRANCH   7  23
ATOM     22  O   UNL     1      36.946 -18.605 -22.065  0.00  0.00    -0.286 OA
ATOM     23  C   UNL     1      35.782 -18.375 -21.704  0.00  0.00    +0.206 C 
BRANCH  23  26
ATOM     24  F   UNL     1      35.418 -16.274 -19.903  0.00  0.00    -0.202 F 
ATOM     25  F   UNL     1      34.317 -13.897 -20.649  0.00  0.00    -0.202 F 
ATOM     26  C   UNL     1      35.177 -17.077 -22.127  0.00  0.00    +0.103 C 
ATOM     27  C   UNL     1      34.788 -16.908 -23.436  0.00  0.00    +0.144 C 
ATOM     28  C   UNL     1      35.033 -16.092 -21.175  0.00  0.00    +0.173 C 
ATOM     29  C   UNL     1      34.224 -15.688 -23.814  0.00  0.00    +0.039 C 
ATOM     30  C   UNL     1      34.470 -14.873 -21.554  0.00  0.00    +0.168 C 
ATOM     31  C   UNL     1      34.066 -14.672 -22.873  0.00  0.00    +0.035 C 
BRANCH  27  32
ATOM     32  O   UNL     1      34.935 -17.888 -24.371  0.00  0.00    -0.471 OA
ATOM     33  C   UNL     1      33.818 -18.745 -24.592  0.00  0.00    +0.252 C 
ENDBRANCH  27  32
ENDBRANCH  23  26
ENDBRANCH   7  23
TORSDOF 5
ENDMDL
MODEL 8
REMARK VINA RESULT:      -9.2      6.960     10.050
REMARK  Name = 6918852
REMARK  5 active torsions:
REMARK  status: ('A' for Active; 'I' for Inactive)
REMARK    1  A    between atoms: N_1  and  C_13
REMARK    2  A    between atoms: C_7  and  C_23
REMARK    3  A    between atoms: N_12  and  S_18
REMARK    4  A    between atoms: C_23  and  C_26
REMARK    5  A    between atoms: C_27  and  O_32
REMARK                            x       y       z     vdW  Elec       q    Type
REMARK                         _______ _______ _______ _____ _____    ______ ____
ROOT
ATOM      1  N   UNL     1      33.773  -8.153 -23.282  0.00  0.00    -0.270 N 
ATOM      2  N   UNL     1      32.425 -10.050 -22.976  0.00  0.00    -0.323 NA
ATOM      3  N   UNL     1      34.687 -10.255 -23.782  0.00  0.00    -0.170 NA
ATOM      4  N   UNL     1      31.083 -11.981 -22.674  0.00  0.00    -0.332 N 
ATOM      5  C   UNL     1      33.624  -9.527 -23.349  0.00  0.00    +0.146 C 
ATOM      6  C   UNL     1      32.315 -11.393 -23.053  0.00  0.00    +0.194 C 
ATOM      7  C   UNL     1      33.333 -12.222 -23.478  0.00  0.00    +0.103 C 
ATOM      8  C   UNL     1      34.508 -11.591 -23.833  0.00  0.00    +0.119 C 
ATOM      9  H   UNL     1      34.637  -7.765 -23.549  0.00  0.00    +0.159 HD
ATOM     10  H   UNL     1      30.341 -11.412 -22.366  0.00  0.00    +0.145 HD
ATOM     11  H   UNL     1      30.970 -12.958 -22.718  0.00  0.00    +0.145 HD
ENDROOT
BRANCH   1  13
ATOM     12  N   UNL     1      31.728  -4.531 -22.642  0.00  0.00    -0.159 NA
ATOM     13  C   UNL     1      32.725  -7.257 -22.842  0.00  0.00    +0.082 C 
ATOM     14  C   UNL     1      33.289  -6.258 -21.829  0.00  0.00    +0.039 C 
ATOM     15  C   UNL     1      32.137  -6.517 -24.047  0.00  0.00    +0.039 C 
ATOM     16  C   UNL     1      32.241  -5.226 -21.425  0.00  0.00    +0.097 C 
ATOM     17  C   UNL     1      31.105  -5.481 -23.610  0.00  0.00    +0.097 C 
BRANCH  12  18
ATOM     18  S   UNL     1      30.834  -3.100 -22.344  0.00  0.00    +0.046 S 
ATOM     19  O   UNL     1      31.750  -2.058 -21.936  0.00  0.00    -0.157 OA
ATOM     20  O   UNL     1      29.667  -3.437 -21.561  0.00  0.00    -0.157 OA
ATOM     21  C   UNL     1      30.304  -2.747 -24.000  0.00  0.00    +0.196 C 
ENDBRANCH  12  18
ENDBRANCH   1  13
BRANCH   7  23
ATOM     22  O   UNL     1      32.518 -14.190 -24.444  0.00  0.00    -0.286 OA
ATOM     23  C   UNL     1      33.217 -13.670 -23.562  0.00  0.00    +0.206 C 
BRANCH  23  26
ATOM     24  F   UNL     1      34.688 -15.864 -24.464  0.00  0.00    -0.202 F 
ATOM     25  F   UNL     1      35.977 -17.548 -22.756  0.00  0.00    -0.202 F 
ATOM     26  C   UNL     1      33.919 -14.585 -22.614  0.00  0.00    +0.103 C 
ATOM     27  C   UNL     1      33.842 -14.345 -21.261  0.00  0.00    +0.144 C 
ATOM     28  C   UNL     1      34.623 -15.645 -23.142  0.00  0.00    +0.173 C 
ATOM     29  C   UNL     1      34.504 -15.210 -20.389  0.00  0.00    +0.039 C 
ATOM     30  C   UNL     1      35.285 -16.509 -22.270  0.00  0.00    +0.168 C 
ATOM     31  C   UNL     1      35.226 -16.292 -20.895  0.00  0.00    +0.035 C 
BRANCH  27  32
ATOM     32  O   UNL     1      33.144 -13.294 -20.747  0.00  0.00    -0.471 OA
ATOM     33  C   UNL     1      32.217 -13.580 -19.703  0.00  0.00    +0.252 C 
ENDBRANCH  27  32
ENDBRANCH  23  26
ENDBRANCH   7  23
TORSDOF 5
ENDMDL
MODEL 9
REMARK VINA RESULT:      -9.1      4.579      9.623
REMARK  Name = 6918852
REMARK  5 active torsions:
REMARK  status: ('A' for Active; 'I' for Inactive)
REMARK    1  A    between atoms: N_1  and  C_13
REMARK    2  A    between atoms: C_7  and  C_23
REMARK    3  A    between atoms: N_12  and  S_18
REMARK    4  A    between atoms: C_23  and  C_26
REMARK    5  A    between atoms: C_27  and  O_32
REMARK                            x       y       z     vdW  Elec       q    Type
REMARK                         _______ _______ _______ _____ _____    ______ ____
ROOT
ATOM      1  N   UNL     1      32.698 -22.497 -18.008  0.00  0.00    -0.270 N 
ATOM      2  N   UNL     1      34.831 -21.621 -18.441  0.00  0.00    -0.323 NA
ATOM      3  N   UNL     1      32.911 -20.887 -19.701  0.00  0.00    -0.170 NA
ATOM      4  N   UNL     1      36.976 -20.719 -18.897  0.00  0.00    -0.332 N 
ATOM      5  C   UNL     1      33.504 -21.643 -18.738  0.00  0.00    +0.146 C 
ATOM      6  C   UNL     1      35.588 -20.776 -19.173  0.00  0.00    +0.194 C 
ATOM      7  C   UNL     1      35.085 -19.966 -20.171  0.00  0.00    +0.103 C 
ATOM      8  C   UNL     1      33.727 -20.065 -20.393  0.00  0.00    +0.119 C 
ATOM      9  H   UNL     1      31.736 -22.520 -18.214  0.00  0.00    +0.159 HD
ATOM     10  H   UNL     1      37.360 -21.287 -18.189  0.00  0.00    +0.145 HD
ATOM     11  H   UNL     1      37.557 -20.114 -19.412  0.00  0.00    +0.145 HD
ENDROOT
BRANCH   1  13
ATOM     12  N   UNL     1      34.358 -23.601 -14.301  0.00  0.00    -0.159 NA
ATOM     13  C   UNL     1      33.193 -23.360 -16.956  0.00  0.00    +0.082 C 
ATOM     14  C   UNL     1      34.668 -23.052 -16.686  0.00  0.00    +0.039 C 
ATOM     15  C   UNL     1      32.365 -23.155 -15.685  0.00  0.00    +0.039 C 
ATOM     16  C   UNL     1      35.197 -23.865 -15.508  0.00  0.00    +0.097 C 
ATOM     17  C   UNL     1      32.928 -23.966 -14.522  0.00  0.00    +0.097 C 
BRANCH  12  18
ATOM     18  S   UNL     1      35.028 -24.130 -12.816  0.00  0.00    +0.046 S 
ATOM     19  O   UNL     1      33.972 -24.701 -12.009  0.00  0.00    -0.157 OA
ATOM     20  O   UNL     1      35.902 -23.097 -12.307  0.00  0.00    -0.157 OA
ATOM     21  C   UNL     1      36.037 -25.458 -13.418  0.00  0.00    +0.196 C 
ENDBRANCH  12  18
ENDBRANCH   1  13
BRANCH   7  23
ATOM     22  O   UNL     1      37.122 -18.986 -20.772  0.00  0.00    -0.286 OA
ATOM     23  C   UNL     1      35.899 -19.055 -20.961  0.00  0.00    +0.206 C 
BRANCH  23  26
ATOM     24  F   UNL     1      35.193 -20.052 -23.470  0.00  0.00    -0.202 F 
ATOM     25  F   UNL     1      34.132 -18.469 -25.416  0.00  0.00    -0.202 F 
ATOM     26  C   UNL     1      35.318 -18.175 -22.019  0.00  0.00    +0.103 C 
ATOM     27  C   UNL     1      35.124 -16.839 -21.754  0.00  0.00    +0.144 C 
ATOM     28  C   UNL     1      34.998 -18.748 -23.229  0.00  0.00    +0.173 C 
ATOM     29  C   UNL     1      34.580 -16.031 -22.753  0.00  0.00    +0.039 C 
ATOM     30  C   UNL     1      34.453 -17.940 -24.228  0.00  0.00    +0.168 C 
ATOM     31  C   UNL     1      34.245 -16.582 -23.990  0.00  0.00    +0.035 C 
BRANCH  27  32
ATOM     32  O   UNL     1      35.443 -16.281 -20.553  0.00  0.00    -0.471 OA
ATOM     33  C   UNL     1      34.667 -15.163 -20.130  0.00  0.00    +0.252 C 
ENDBRANCH  27  32
ENDBRANCH  23  26
ENDBRANCH   7  23
TORSDOF 5
ENDMDL
