MODEL 1
REMARK VINA RESULT:     -14.2      0.000      0.000
REMARK  Name = 89670174
REMARK  4 active torsions:
REMARK  status: ('A' for Active; 'I' for Inactive)
REMARK    1  A    between atoms: C_3  and  C_13
REMARK    2  A    between atoms: C_9  and  O_26
REMARK    3  A    between atoms: C_18  and  C_25
REMARK    4  A    between atoms: O_26  and  C_30
REMARK                            x       y       z     vdW  Elec       q    Type
REMARK                         _______ _______ _______ _____ _____    ______ ____
ROOT
ATOM      1  O   UNL     1      34.894 -19.614 -23.306  0.00  0.00    -0.479 OA
ATOM      2  C   UNL     1      35.655 -18.760 -21.145  0.00  0.00    +0.072 C 
ATOM      3  C   UNL     1      34.640 -19.826 -20.761  0.00  0.00    +0.085 C 
ATOM      4  C   UNL     1      35.479 -20.004 -22.008  0.00  0.00    +0.174 C 
ATOM      5  C   UNL     1      35.281 -17.675 -22.088  0.00  0.00    +0.018 C 
ATOM      6  C   UNL     1      34.865 -18.228 -23.306  0.00  0.00    +0.135 C 
ATOM      7  C   UNL     1      35.289 -16.297 -21.933  0.00  0.00    +0.036 C 
ATOM      8  C   UNL     1      34.451 -17.459 -24.376  0.00  0.00    +0.040 C 
ATOM      9  C   UNL     1      34.877 -15.497 -23.004  0.00  0.00    +0.145 C 
ATOM     10  C   UNL     1      34.462 -16.074 -24.216  0.00  0.00    +0.041 C 
ENDROOT
BRANCH   3  13
ATOM     11  N   UNL     1      36.100 -20.790 -18.912  0.00  0.00    -0.318 N 
ATOM     12  N   UNL     1      33.980 -21.454 -18.987  0.00  0.00    -0.318 N 
ATOM     13  C   UNL     1      34.894 -20.697 -19.550  0.00  0.00    +0.148 C 
ATOM     14  C   UNL     1      35.954 -21.666 -17.867  0.00  0.00    +0.059 C 
ATOM     15  C   UNL     1      34.623 -22.067 -17.934  0.00  0.00    +0.059 C 
ATOM     16  C   UNL     1      36.846 -22.129 -16.898  0.00  0.00    +0.019 C 
ATOM     17  C   UNL     1      34.135 -22.983 -16.987  0.00  0.00    +0.016 C 
ATOM     18  C   UNL     1      36.343 -23.040 -15.964  0.00  0.00    +0.073 C 
ATOM     19  C   UNL     1      35.012 -23.460 -16.006  0.00  0.00    +0.005 C 
ATOM     20  H   UNL     1      36.925 -20.314 -19.159  0.00  0.00    +0.148 HD
ATOM     21  H   UNL     1      33.040 -21.561 -19.257  0.00  0.00    +0.148 HD
BRANCH  18  25
ATOM     22  F   UNL     1      37.073 -22.966 -13.688  0.00  0.00    -0.166 F 
ATOM     23  F   UNL     1      37.089 -24.903 -14.662  0.00  0.00    -0.166 F 
ATOM     24  F   UNL     1      38.566 -23.404 -15.207  0.00  0.00    -0.166 F 
ATOM     25  C   UNL     1      37.248 -23.569 -14.901  0.00  0.00    +0.419 C 
ENDBRANCH  18  25
ENDBRANCH   3  13
BRANCH   9  26
ATOM     26  O   UNL     1      34.877 -14.120 -22.868  0.00  0.00    -0.454 OA
BRANCH  26  30
ATOM     27  O   UNL     1      31.654  -8.737 -23.763  0.00  0.00    -0.275 OA
ATOM     28  N   UNL     1      31.627 -10.595 -22.413  0.00  0.00    -0.270 N 
ATOM     29  N   UNL     1      31.599 -12.447 -20.942  0.00  0.00    -0.229 NA
ATOM     30  C   UNL     1      33.816 -13.546 -22.235  0.00  0.00    +0.146 C 
ATOM     31  C   UNL     1      33.293 -12.324 -22.662  0.00  0.00    +0.045 C 
ATOM     32  C   UNL     1      33.820 -11.629 -23.880  0.00  0.00    +0.042 C 
ATOM     33  C   UNL     1      33.242 -14.205 -21.154  0.00  0.00    +0.058 C 
ATOM     34  C   UNL     1      32.188 -11.813 -21.984  0.00  0.00    +0.133 C 
ATOM     35  C   UNL     1      33.607 -10.127 -23.780  0.00  0.00    +0.090 C 
ATOM     36  C   UNL     1      32.198  -9.763 -23.355  0.00  0.00    +0.227 C 
ATOM     37  C   UNL     1      32.144 -13.620 -20.550  0.00  0.00    +0.103 C 
ATOM     38  H   UNL     1      30.771 -10.317 -22.014  0.00  0.00    +0.156 HD
ENDBRANCH  26  30
ENDBRANCH   9  26
TORSDOF 4
ENDMDL
MODEL 2
REMARK VINA RESULT:     -12.8      5.855     11.444
REMARK  Name = 89670174
REMARK  4 active torsions:
REMARK  status: ('A' for Active; 'I' for Inactive)
REMARK    1  A    between atoms: C_3  and  C_13
REMARK    2  A    between atoms: C_9  and  O_26
REMARK    3  A    between atoms: C_18  and  C_25
REMARK    4  A    between atoms: O_26  and  C_30
REMARK                            x       y       z     vdW  Elec       q    Type
REMARK                         _______ _______ _______ _____ _____    ______ ____
ROOT
ATOM      1  O   UNL     1      37.189 -19.442 -20.820  0.00  0.00    -0.479 OA
ATOM      2  C   UNL     1      34.833 -18.947 -21.245  0.00  0.00    +0.072 C 
ATOM      3  C   UNL     1      35.435 -17.575 -20.985  0.00  0.00    +0.085 C 
ATOM      4  C   UNL     1      36.269 -18.645 -21.656  0.00  0.00    +0.174 C 
ATOM      5  C   UNL     1      35.018 -20.045 -20.262  0.00  0.00    +0.018 C 
ATOM      6  C   UNL     1      36.385 -20.286 -20.071  0.00  0.00    +0.135 C 
ATOM      7  C   UNL     1      34.089 -20.802 -19.565  0.00  0.00    +0.036 C 
ATOM      8  C   UNL     1      36.862 -21.251 -19.206  0.00  0.00    +0.040 C 
ATOM      9  C   UNL     1      34.548 -21.788 -18.686  0.00  0.00    +0.145 C 
ATOM     10  C   UNL     1      35.925 -22.010 -18.508  0.00  0.00    +0.041 C 
ENDROOT
BRANCH   3  13
ATOM     11  N   UNL     1      34.832 -15.120 -21.275  0.00  0.00    -0.318 N 
ATOM     12  N   UNL     1      34.597 -16.442 -23.046  0.00  0.00    -0.318 N 
ATOM     13  C   UNL     1      34.952 -16.384 -21.783  0.00  0.00    +0.148 C 
ATOM     14  C   UNL     1      34.368 -14.308 -22.279  0.00  0.00    +0.059 C 
ATOM     15  C   UNL     1      34.230 -15.156 -23.374  0.00  0.00    +0.059 C 
ATOM     16  C   UNL     1      34.067 -12.946 -22.321  0.00  0.00    +0.019 C 
ATOM     17  C   UNL     1      33.765 -14.632 -24.591  0.00  0.00    +0.016 C 
ATOM     18  C   UNL     1      33.605 -12.441 -23.541  0.00  0.00    +0.073 C 
ATOM     19  C   UNL     1      33.457 -13.268 -24.657  0.00  0.00    +0.005 C 
ATOM     20  H   UNL     1      35.040 -14.842 -20.354  0.00  0.00    +0.148 HD
ATOM     21  H   UNL     1      34.594 -17.233 -23.632  0.00  0.00    +0.148 HD
BRANCH  18  25
ATOM     22  F   UNL     1      32.595 -10.673 -24.795  0.00  0.00    -0.166 F 
ATOM     23  F   UNL     1      32.483 -10.534 -22.633  0.00  0.00    -0.166 F 
ATOM     24  F   UNL     1      34.378 -10.196 -23.644  0.00  0.00    -0.166 F 
ATOM     25  C   UNL     1      33.270 -10.991 -23.651  0.00  0.00    +0.419 C 
ENDBRANCH  18  25
ENDBRANCH   3  13
BRANCH   9  26
ATOM     26  O   UNL     1      33.637 -22.554 -17.980  0.00  0.00    -0.454 OA
BRANCH  26  30
ATOM     27  O   UNL     1      30.171 -24.373 -12.995  0.00  0.00    -0.275 OA
ATOM     28  N   UNL     1      32.365 -24.015 -13.570  0.00  0.00    -0.270 N 
ATOM     29  N   UNL     1      34.635 -23.585 -14.081  0.00  0.00    -0.229 NA
ATOM     30  C   UNL     1      33.943 -22.875 -16.692  0.00  0.00    +0.146 C 
ATOM     31  C   UNL     1      32.952 -23.258 -15.786  0.00  0.00    +0.045 C 
ATOM     32  C   UNL     1      31.523 -23.412 -16.207  0.00  0.00    +0.042 C 
ATOM     33  C   UNL     1      35.272 -22.830 -16.286  0.00  0.00    +0.058 C 
ATOM     34  C   UNL     1      33.344 -23.601 -14.493  0.00  0.00    +0.133 C 
ATOM     35  C   UNL     1      30.585 -23.180 -15.033  0.00  0.00    +0.090 C 
ATOM     36  C   UNL     1      31.004 -23.940 -13.791  0.00  0.00    +0.227 C 
ATOM     37  C   UNL     1      35.562 -23.195 -14.984  0.00  0.00    +0.103 C 
ATOM     38  H   UNL     1      32.671 -24.381 -12.709  0.00  0.00    +0.156 HD
ENDBRANCH  26  30
ENDBRANCH   9  26
TORSDOF 4
ENDMDL
MODEL 3
REMARK VINA RESULT:     -12.6      5.754     11.374
REMARK  Name = 89670174
REMARK  4 active torsions:
REMARK  status: ('A' for Active; 'I' for Inactive)
REMARK    1  A    between atoms: C_3  and  C_13
REMARK    2  A    between atoms: C_9  and  O_26
REMARK    3  A    between atoms: C_18  and  C_25
REMARK    4  A    between atoms: O_26  and  C_30
REMARK                            x       y       z     vdW  Elec       q    Type
REMARK                         _______ _______ _______ _____ _____    ______ ____
ROOT
ATOM      1  O   UNL     1      37.250 -19.557 -19.730  0.00  0.00    -0.479 OA
ATOM      2  C   UNL     1      35.110 -19.413 -20.905  0.00  0.00    +0.072 C 
ATOM      3  C   UNL     1      35.371 -17.976 -20.479  0.00  0.00    +0.085 C 
ATOM      4  C   UNL     1      36.535 -18.877 -20.830  0.00  0.00    +0.174 C 
ATOM      5  C   UNL     1      35.138 -20.508 -19.903  0.00  0.00    +0.018 C 
ATOM      6  C   UNL     1      36.390 -20.544 -19.274  0.00  0.00    +0.135 C 
ATOM      7  C   UNL     1      34.166 -21.427 -19.538  0.00  0.00    +0.036 C 
ATOM      8  C   UNL     1      36.709 -21.459 -18.290  0.00  0.00    +0.040 C 
ATOM      9  C   UNL     1      34.467 -22.366 -18.545  0.00  0.00    +0.145 C 
ATOM     10  C   UNL     1      35.729 -22.381 -17.926  0.00  0.00    +0.041 C 
ENDROOT
BRANCH   3  13
ATOM     11  N   UNL     1      34.869 -15.538 -21.008  0.00  0.00    -0.318 N 
ATOM     12  N   UNL     1      34.733 -16.993 -22.683  0.00  0.00    -0.318 N 
ATOM     13  C   UNL     1      34.989 -16.841 -21.404  0.00  0.00    +0.148 C 
ATOM     14  C   UNL     1      34.511 -14.799 -22.107  0.00  0.00    +0.059 C 
ATOM     15  C   UNL     1      34.433 -15.728 -23.139  0.00  0.00    +0.059 C 
ATOM     16  C   UNL     1      34.257 -13.437 -22.280  0.00  0.00    +0.019 C 
ATOM     17  C   UNL     1      34.082 -15.293 -24.428  0.00  0.00    +0.016 C 
ATOM     18  C   UNL     1      33.908 -13.021 -23.569  0.00  0.00    +0.073 C 
ATOM     19  C   UNL     1      33.823 -13.931 -24.625  0.00  0.00    +0.005 C 
ATOM     20  H   UNL     1      35.012 -15.192 -20.098  0.00  0.00    +0.148 HD
ATOM     21  H   UNL     1      34.752 -17.828 -23.204  0.00  0.00    +0.148 HD
BRANCH  18  25
ATOM     22  F   UNL     1      34.744 -10.847 -24.108  0.00  0.00    -0.166 F 
ATOM     23  F   UNL     1      32.778 -11.358 -24.865  0.00  0.00    -0.166 F 
ATOM     24  F   UNL     1      33.054 -10.963 -22.745  0.00  0.00    -0.166 F 
ATOM     25  C   UNL     1      33.627 -11.577 -23.819  0.00  0.00    +0.419 C 
ENDBRANCH  18  25
ENDBRANCH   3  13
BRANCH   9  26
ATOM     26  O   UNL     1      33.510 -23.290 -18.166  0.00  0.00    -0.454 OA
BRANCH  26  30
ATOM     27  O   UNL     1      35.143 -24.395 -12.142  0.00  0.00    -0.275 OA
ATOM     28  N   UNL     1      33.415 -23.491 -13.354  0.00  0.00    -0.270 N 
ATOM     29  N   UNL     1      31.571 -22.620 -14.553  0.00  0.00    -0.229 NA
ATOM     30  C   UNL     1      32.881 -23.097 -16.973  0.00  0.00    +0.146 C 
ATOM     31  C   UNL     1      33.497 -23.435 -15.766  0.00  0.00    +0.045 C 
ATOM     32  C   UNL     1      34.903 -23.948 -15.722  0.00  0.00    +0.042 C 
ATOM     33  C   UNL     1      31.607 -22.539 -16.967  0.00  0.00    +0.058 C 
ATOM     34  C   UNL     1      32.803 -23.182 -14.584  0.00  0.00    +0.133 C 
ATOM     35  C   UNL     1      35.120 -24.828 -14.500  0.00  0.00    +0.090 C 
ATOM     36  C   UNL     1      34.594 -24.198 -13.226  0.00  0.00    +0.227 C 
ATOM     37  C   UNL     1      31.004 -22.321 -15.742  0.00  0.00    +0.103 C 
ATOM     38  H   UNL     1      32.973 -23.182 -12.530  0.00  0.00    +0.156 HD
ENDBRANCH  26  30
ENDBRANCH   9  26
TORSDOF 4
ENDMDL
MODEL 4
REMARK VINA RESULT:     -12.3      2.456      4.116
REMARK  Name = 89670174
REMARK  4 active torsions:
REMARK  status: ('A' for Active; 'I' for Inactive)
REMARK    1  A    between atoms: C_3  and  C_13
REMARK    2  A    between atoms: C_9  and  O_26
REMARK    3  A    between atoms: C_18  and  C_25
REMARK    4  A    between atoms: O_26  and  C_30
REMARK                            x       y       z     vdW  Elec       q    Type
REMARK                         _______ _______ _______ _____ _____    ______ ____
ROOT
ATOM      1  O   UNL     1      33.067 -22.001 -19.631  0.00  0.00    -0.479 OA
ATOM      2  C   UNL     1      35.364 -21.780 -18.824  0.00  0.00    +0.072 C 
ATOM      3  C   UNL     1      34.558 -21.932 -17.543  0.00  0.00    +0.085 C 
ATOM      4  C   UNL     1      34.107 -22.642 -18.801  0.00  0.00    +0.174 C 
ATOM      5  C   UNL     1      35.005 -20.735 -19.816  0.00  0.00    +0.018 C 
ATOM      6  C   UNL     1      33.684 -20.923 -20.246  0.00  0.00    +0.135 C 
ATOM      7  C   UNL     1      35.746 -19.683 -20.333  0.00  0.00    +0.036 C 
ATOM      8  C   UNL     1      33.071 -20.097 -21.167  0.00  0.00    +0.040 C 
ATOM      9  C   UNL     1      35.147 -18.835 -21.270  0.00  0.00    +0.145 C 
ATOM     10  C   UNL     1      33.820 -19.041 -21.684  0.00  0.00    +0.041 C 
ENDROOT
BRANCH   3  13
ATOM     11  N   UNL     1      36.449 -22.718 -16.032  0.00  0.00    -0.318 N 
ATOM     12  N   UNL     1      34.416 -23.514 -15.617  0.00  0.00    -0.318 N 
ATOM     13  C   UNL     1      35.130 -22.728 -16.391  0.00  0.00    +0.148 C 
ATOM     14  C   UNL     1      36.596 -23.552 -14.954  0.00  0.00    +0.059 C 
ATOM     15  C   UNL     1      35.314 -24.036 -14.713  0.00  0.00    +0.059 C 
ATOM     16  C   UNL     1      37.708 -23.914 -14.191  0.00  0.00    +0.019 C 
ATOM     17  C   UNL     1      35.108 -24.936 -13.654  0.00  0.00    +0.016 C 
ATOM     18  C   UNL     1      37.485 -24.810 -13.140  0.00  0.00    +0.073 C 
ATOM     19  C   UNL     1      36.209 -25.312 -12.875  0.00  0.00    +0.005 C 
ATOM     20  H   UNL     1      37.166 -22.204 -16.470  0.00  0.00    +0.148 HD
ATOM     21  H   UNL     1      33.449 -23.690 -15.670  0.00  0.00    +0.148 HD
BRANCH  18  25
ATOM     22  F   UNL     1      38.378 -26.349 -11.543  0.00  0.00    -0.166 F 
ATOM     23  F   UNL     1      39.763 -25.527 -12.995  0.00  0.00    -0.166 F 
ATOM     24  F   UNL     1      39.002 -24.271 -11.392  0.00  0.00    -0.166 F 
ATOM     25  C   UNL     1      38.634 -25.233 -12.286  0.00  0.00    +0.419 C 
ENDBRANCH  18  25
ENDBRANCH   3  13
BRANCH   9  26
ATOM     26  O   UNL     1      35.870 -17.779 -21.796  0.00  0.00    -0.454 OA
BRANCH  26  30
ATOM     27  O   UNL     1      32.743 -12.462 -20.336  0.00  0.00    -0.275 OA
ATOM     28  N   UNL     1      33.349 -13.692 -22.178  0.00  0.00    -0.270 N 
ATOM     29  N   UNL     1      33.876 -14.959 -24.105  0.00  0.00    -0.229 NA
ATOM     30  C   UNL     1      35.194 -16.855 -22.535  0.00  0.00    +0.146 C 
ATOM     31  C   UNL     1      34.591 -15.748 -21.935  0.00  0.00    +0.045 C 
ATOM     32  C   UNL     1      34.727 -15.481 -20.467  0.00  0.00    +0.042 C 
ATOM     33  C   UNL     1      35.121 -17.021 -23.914  0.00  0.00    +0.058 C 
ATOM     34  C   UNL     1      33.942 -14.829 -22.759  0.00  0.00    +0.133 C 
ATOM     35  C   UNL     1      33.536 -14.691 -19.949  0.00  0.00    +0.090 C 
ATOM     36  C   UNL     1      33.203 -13.497 -20.820  0.00  0.00    +0.227 C 
ATOM     37  C   UNL     1      34.460 -16.051 -24.646  0.00  0.00    +0.103 C 
ATOM     38  H   UNL     1      33.015 -12.989 -22.782  0.00  0.00    +0.156 HD
ENDBRANCH  26  30
ENDBRANCH   9  26
TORSDOF 4
ENDMDL
MODEL 5
REMARK VINA RESULT:     -12.2      5.843     11.264
REMARK  Name = 89670174
REMARK  4 active torsions:
REMARK  status: ('A' for Active; 'I' for Inactive)
REMARK    1  A    between atoms: C_3  and  C_13
REMARK    2  A    between atoms: C_9  and  O_26
REMARK    3  A    between atoms: C_18  and  C_25
REMARK    4  A    between atoms: O_26  and  C_30
REMARK                            x       y       z     vdW  Elec       q    Type
REMARK                         _______ _______ _______ _____ _____    ______ ____
ROOT
ATOM      1  O   UNL     1      37.006 -18.549 -21.413  0.00  0.00    -0.479 OA
ATOM      2  C   UNL     1      34.616 -18.154 -21.084  0.00  0.00    +0.072 C 
ATOM      3  C   UNL     1      35.247 -16.831 -20.679  0.00  0.00    +0.085 C 
ATOM      4  C   UNL     1      35.883 -17.660 -21.773  0.00  0.00    +0.174 C 
ATOM      5  C   UNL     1      35.075 -19.424 -20.466  0.00  0.00    +0.018 C 
ATOM      6  C   UNL     1      36.446 -19.596 -20.698  0.00  0.00    +0.135 C 
ATOM      7  C   UNL     1      34.380 -20.384 -19.747  0.00  0.00    +0.036 C 
ATOM      8  C   UNL     1      37.154 -20.688 -20.235  0.00  0.00    +0.040 C 
ATOM      9  C   UNL     1      35.074 -21.501 -19.271  0.00  0.00    +0.145 C 
ATOM     10  C   UNL     1      36.451 -21.652 -19.513  0.00  0.00    +0.041 C 
ENDROOT
BRANCH   3  13
ATOM     11  N   UNL     1      34.822 -14.791 -22.140  0.00  0.00    -0.318 N 
ATOM     12  N   UNL     1      33.610 -14.987 -20.286  0.00  0.00    -0.318 N 
ATOM     13  C   UNL     1      34.549 -15.534 -21.024  0.00  0.00    +0.148 C 
ATOM     14  C   UNL     1      34.002 -13.691 -22.120  0.00  0.00    +0.059 C 
ATOM     15  C   UNL     1      33.255 -13.836 -20.954  0.00  0.00    +0.059 C 
ATOM     16  C   UNL     1      33.855 -12.614 -22.995  0.00  0.00    +0.019 C 
ATOM     17  C   UNL     1      32.300 -12.860 -20.626  0.00  0.00    +0.016 C 
ATOM     18  C   UNL     1      32.900 -11.651 -22.653  0.00  0.00    +0.073 C 
ATOM     19  C   UNL     1      32.135 -11.770 -21.491  0.00  0.00    +0.005 C 
ATOM     20  H   UNL     1      35.487 -15.006 -22.832  0.00  0.00    +0.148 HD
ATOM     21  H   UNL     1      33.238 -15.326 -19.440  0.00  0.00    +0.148 HD
BRANCH  18  25
ATOM     22  F   UNL     1      33.681  -9.538 -23.457  0.00  0.00    -0.166 F 
ATOM     23  F   UNL     1      32.637 -10.804 -24.875  0.00  0.00    -0.166 F 
ATOM     24  F   UNL     1      31.530  -9.815 -23.287  0.00  0.00    -0.166 F 
ATOM     25  C   UNL     1      32.693 -10.477 -23.551  0.00  0.00    +0.419 C 
ENDBRANCH  18  25
ENDBRANCH   3  13
BRANCH   9  26
ATOM     26  O   UNL     1      34.399 -22.470 -18.550  0.00  0.00    -0.454 OA
BRANCH  26  30
ATOM     27  O   UNL     1      30.837 -23.684 -13.449  0.00  0.00    -0.275 OA
ATOM     28  N   UNL     1      33.032 -23.303 -14.007  0.00  0.00    -0.270 N 
ATOM     29  N   UNL     1      35.296 -22.839 -14.510  0.00  0.00    -0.229 NA
ATOM     30  C   UNL     1      34.671 -22.574 -17.219  0.00  0.00    +0.146 C 
ATOM     31  C   UNL     1      33.666 -22.865 -16.295  0.00  0.00    +0.045 C 
ATOM     32  C   UNL     1      32.262 -23.156 -16.730  0.00  0.00    +0.042 C 
ATOM     33  C   UNL     1      35.980 -22.398 -16.785  0.00  0.00    +0.058 C 
ATOM     34  C   UNL     1      34.025 -22.985 -14.953  0.00  0.00    +0.133 C 
ATOM     35  C   UNL     1      31.271 -22.796 -15.634  0.00  0.00    +0.090 C 
ATOM     36  C   UNL     1      31.679 -23.335 -14.277  0.00  0.00    +0.227 C 
ATOM     37  C   UNL     1      36.237 -22.543 -15.434  0.00  0.00    +0.103 C 
ATOM     38  H   UNL     1      33.322 -23.517 -13.091  0.00  0.00    +0.156 HD
ENDBRANCH  26  30
ENDBRANCH   9  26
TORSDOF 4
ENDMDL
MODEL 6
REMARK VINA RESULT:     -11.8      6.062     11.754
REMARK  Name = 89670174
REMARK  4 active torsions:
REMARK  status: ('A' for Active; 'I' for Inactive)
REMARK    1  A    between atoms: C_3  and  C_13
REMARK    2  A    between atoms: C_9  and  O_26
REMARK    3  A    between atoms: C_18  and  C_25
REMARK    4  A    between atoms: O_26  and  C_30
REMARK                            x       y       z     vdW  Elec       q    Type
REMARK                         _______ _______ _______ _____ _____    ______ ____
ROOT
ATOM      1  O   UNL     1      33.443 -15.066 -25.250  0.00  0.00    -0.479 OA
ATOM      2  C   UNL     1      33.681 -14.147 -22.997  0.00  0.00    +0.072 C 
ATOM      3  C   UNL     1      34.286 -13.066 -23.880  0.00  0.00    +0.085 C 
ATOM      4  C   UNL     1      33.134 -13.900 -24.398  0.00  0.00    +0.174 C 
ATOM      5  C   UNL     1      34.160 -15.549 -23.094  0.00  0.00    +0.018 C 
ATOM      6  C   UNL     1      33.987 -16.019 -24.403  0.00  0.00    +0.135 C 
ATOM      7  C   UNL     1      34.710 -16.387 -22.137  0.00  0.00    +0.036 C 
ATOM      8  C   UNL     1      34.347 -17.293 -24.796  0.00  0.00    +0.040 C 
ATOM      9  C   UNL     1      35.080 -17.683 -22.510  0.00  0.00    +0.145 C 
ATOM     10  C   UNL     1      34.900 -18.133 -23.830  0.00  0.00    +0.041 C 
ENDROOT
BRANCH   3  13
ATOM     11  N   UNL     1      32.952 -11.130 -22.907  0.00  0.00    -0.318 N 
ATOM     12  N   UNL     1      34.930 -10.655 -23.802  0.00  0.00    -0.318 N 
ATOM     13  C   UNL     1      34.068 -11.610 -23.534  0.00  0.00    +0.148 C 
ATOM     14  C   UNL     1      33.104  -9.775 -22.761  0.00  0.00    +0.059 C 
ATOM     15  C   UNL     1      34.346  -9.503 -23.326  0.00  0.00    +0.059 C 
ATOM     16  C   UNL     1      32.286  -8.793 -22.198  0.00  0.00    +0.019 C 
ATOM     17  C   UNL     1      34.817  -8.179 -23.341  0.00  0.00    +0.016 C 
ATOM     18  C   UNL     1      32.770  -7.481 -22.222  0.00  0.00    +0.073 C 
ATOM     19  C   UNL     1      34.013  -7.178 -22.782  0.00  0.00    +0.005 C 
ATOM     20  H   UNL     1      32.177 -11.662 -22.614  0.00  0.00    +0.148 HD
ATOM     21  H   UNL     1      35.805 -10.744 -24.245  0.00  0.00    +0.148 HD
BRANCH  18  25
ATOM     22  F   UNL     1      32.542  -5.162 -21.687  0.00  0.00    -0.166 F 
ATOM     23  F   UNL     1      30.736  -6.222 -22.250  0.00  0.00    -0.166 F 
ATOM     24  F   UNL     1      31.657  -6.599 -20.317  0.00  0.00    -0.166 F 
ATOM     25  C   UNL     1      31.943  -6.387 -21.634  0.00  0.00    +0.419 C 
ENDBRANCH  18  25
ENDBRANCH   3  13
BRANCH   9  26
ATOM     26  O   UNL     1      35.633 -18.535 -21.569  0.00  0.00    -0.454 OA
BRANCH  26  30
ATOM     27  O   UNL     1      36.423 -22.695 -16.854  0.00  0.00    -0.275 OA
ATOM     28  N   UNL     1      34.768 -21.897 -18.231  0.00  0.00    -0.270 N 
ATOM     29  N   UNL     1      33.040 -21.170 -19.675  0.00  0.00    -0.229 NA
ATOM     30  C   UNL     1      34.802 -19.420 -20.951  0.00  0.00    +0.146 C 
ATOM     31  C   UNL     1      35.255 -20.229 -19.907  0.00  0.00    +0.045 C 
ATOM     32  C   UNL     1      36.647 -20.106 -19.367  0.00  0.00    +0.042 C 
ATOM     33  C   UNL     1      33.478 -19.500 -21.365  0.00  0.00    +0.058 C 
ATOM     34  C   UNL     1      34.340 -21.090 -19.303  0.00  0.00    +0.133 C 
ATOM     35  C   UNL     1      37.112 -21.422 -18.765  0.00  0.00    +0.090 C 
ATOM     36  C   UNL     1      36.083 -22.037 -17.837  0.00  0.00    +0.227 C 
ATOM     37  C   UNL     1      32.646 -20.381 -20.698  0.00  0.00    +0.103 C 
ATOM     38  H   UNL     1      34.083 -22.396 -17.729  0.00  0.00    +0.156 HD
ENDBRANCH  26  30
ENDBRANCH   9  26
TORSDOF 4
ENDMDL
MODEL 7
REMARK VINA RESULT:     -11.8      6.591     12.457
REMARK  Name = 89670174
REMARK  4 active torsions:
REMARK  status: ('A' for Active; 'I' for Inactive)
REMARK    1  A    between atoms: C_3  and  C_13
REMARK    2  A    between atoms: C_9  and  O_26
REMARK    3  A    between atoms: C_18  and  C_25
REMARK    4  A    between atoms: O_26  and  C_30
REMARK                            x       y       z     vdW  Elec       q    Type
REMARK                         _______ _______ _______ _____ _____    ______ ____
ROOT
ATOM      1  O   UNL     1      31.289 -23.665 -16.058  0.00  0.00    -0.479 OA
ATOM      2  C   UNL     1      33.405 -22.459 -15.845  0.00  0.00    +0.072 C 
ATOM      3  C   UNL     1      33.410 -22.918 -17.295  0.00  0.00    +0.085 C 
ATOM      4  C   UNL     1      32.100 -22.568 -16.624  0.00  0.00    +0.174 C 
ATOM      5  C   UNL     1      33.194 -23.440 -14.749  0.00  0.00    +0.018 C 
ATOM      6  C   UNL     1      31.964 -24.087 -14.923  0.00  0.00    +0.135 C 
ATOM      7  C   UNL     1      33.991 -23.771 -13.664  0.00  0.00    +0.036 C 
ATOM      8  C   UNL     1      31.498 -25.058 -14.058  0.00  0.00    +0.040 C 
ATOM      9  C   UNL     1      33.540 -24.749 -12.772  0.00  0.00    +0.145 C 
ATOM     10  C   UNL     1      32.303 -25.387 -12.967  0.00  0.00    +0.041 C 
ENDROOT
BRANCH   3  13
ATOM     11  N   UNL     1      33.224 -21.395 -19.325  0.00  0.00    -0.318 N 
ATOM     12  N   UNL     1      35.253 -21.720 -18.479  0.00  0.00    -0.318 N 
ATOM     13  C   UNL     1      33.977 -22.010 -18.364  0.00  0.00    +0.148 C 
ATOM     14  C   UNL     1      34.071 -20.659 -20.113  0.00  0.00    +0.059 C 
ATOM     15  C   UNL     1      35.332 -20.877 -19.565  0.00  0.00    +0.059 C 
ATOM     16  C   UNL     1      33.849 -19.844 -21.225  0.00  0.00    +0.019 C 
ATOM     17  C   UNL     1      36.449 -20.255 -20.146  0.00  0.00    +0.016 C 
ATOM     18  C   UNL     1      34.973 -19.233 -21.791  0.00  0.00    +0.073 C 
ATOM     19  C   UNL     1      36.250 -19.434 -21.263  0.00  0.00    +0.005 C 
ATOM     20  H   UNL     1      32.248 -21.468 -19.433  0.00  0.00    +0.148 HD
ATOM     21  H   UNL     1      35.994 -22.036 -17.912  0.00  0.00    +0.148 HD
BRANCH  18  25
ATOM     22  F   UNL     1      33.799 -18.749 -23.817  0.00  0.00    -0.166 F 
ATOM     23  F   UNL     1      34.502 -17.055 -22.661  0.00  0.00    -0.166 F 
ATOM     24  F   UNL     1      35.923 -18.286 -23.753  0.00  0.00    -0.166 F 
ATOM     25  C   UNL     1      34.800 -18.348 -22.981  0.00  0.00    +0.419 C 
ENDBRANCH  18  25
ENDBRANCH   3  13
BRANCH   9  26
ATOM     26  O   UNL     1      34.321 -25.095 -11.683  0.00  0.00    -0.454 OA
BRANCH  26  30
ATOM     27  O   UNL     1      39.778 -26.561 -14.554  0.00  0.00    -0.275 OA
ATOM     28  N   UNL     1      38.929 -25.017 -13.080  0.00  0.00    -0.270 N 
ATOM     29  N   UNL     1      38.131 -23.450 -11.499  0.00  0.00    -0.229 NA
ATOM     30  C   UNL     1      35.581 -24.582 -11.620  0.00  0.00    +0.146 C 
ATOM     31  C   UNL     1      36.618 -25.111 -12.390  0.00  0.00    +0.045 C 
ATOM     32  C   UNL     1      36.377 -26.212 -13.378  0.00  0.00    +0.042 C 
ATOM     33  C   UNL     1      35.825 -23.501 -10.779  0.00  0.00    +0.058 C 
ATOM     34  C   UNL     1      37.875 -24.516 -12.294  0.00  0.00    +0.133 C 
ATOM     35  C   UNL     1      37.637 -27.037 -13.585  0.00  0.00    +0.090 C 
ATOM     36  C   UNL     1      38.865 -26.181 -13.820  0.00  0.00    +0.227 C 
ATOM     37  C   UNL     1      37.104 -22.976 -10.759  0.00  0.00    +0.103 C 
ATOM     38  H   UNL     1      39.770 -24.504 -13.104  0.00  0.00    +0.156 HD
ENDBRANCH  26  30
ENDBRANCH   9  26
TORSDOF 4
ENDMDL
MODEL 8
REMARK VINA RESULT:     -11.6      5.170      9.085
REMARK  Name = 89670174
REMARK  4 active torsions:
REMARK  status: ('A' for Active; 'I' for Inactive)
REMARK    1  A    between atoms: C_3  and  C_13
REMARK    2  A    between atoms: C_9  and  O_26
REMARK    3  A    between atoms: C_18  and  C_25
REMARK    4  A    between atoms: O_26  and  C_30
REMARK                            x       y       z     vdW  Elec       q    Type
REMARK                         _______ _______ _______ _____ _____    ______ ____
ROOT
ATOM      1  O   UNL     1      31.246 -10.089 -21.511  0.00  0.00    -0.479 OA
ATOM      2  C   UNL     1      32.842 -10.630 -23.283  0.00  0.00    +0.072 C 
ATOM      3  C   UNL     1      33.208 -11.605 -22.175  0.00  0.00    +0.085 C 
ATOM      4  C   UNL     1      31.766 -11.183 -22.356  0.00  0.00    +0.174 C 
ATOM      5  C   UNL     1      32.770  -9.172 -23.005  0.00  0.00    +0.018 C 
ATOM      6  C   UNL     1      31.834  -8.929 -21.991  0.00  0.00    +0.135 C 
ATOM      7  C   UNL     1      33.452  -8.107 -23.572  0.00  0.00    +0.036 C 
ATOM      8  C   UNL     1      31.555  -7.662 -21.517  0.00  0.00    +0.040 C 
ATOM      9  C   UNL     1      33.185  -6.814 -23.110  0.00  0.00    +0.145 C 
ATOM     10  C   UNL     1      32.243  -6.594 -22.090  0.00  0.00    +0.041 C 
ENDROOT
BRANCH   3  13
ATOM     11  N   UNL     1      34.178 -13.896 -21.638  0.00  0.00    -0.318 N 
ATOM     12  N   UNL     1      33.522 -13.532 -23.730  0.00  0.00    -0.318 N 
ATOM     13  C   UNL     1      33.633 -13.013 -22.529  0.00  0.00    +0.148 C 
ATOM     14  C   UNL     1      34.436 -15.063 -22.311  0.00  0.00    +0.059 C 
ATOM     15  C   UNL     1      34.018 -14.812 -23.614  0.00  0.00    +0.059 C 
ATOM     16  C   UNL     1      34.983 -16.281 -21.902  0.00  0.00    +0.019 C 
ATOM     17  C   UNL     1      34.145 -15.822 -24.581  0.00  0.00    +0.016 C 
ATOM     18  C   UNL     1      35.102 -17.276 -22.878  0.00  0.00    +0.073 C 
ATOM     19  C   UNL     1      34.691 -17.052 -24.194  0.00  0.00    +0.005 C 
ATOM     20  H   UNL     1      34.354 -13.724 -20.685  0.00  0.00    +0.148 HD
ATOM     21  H   UNL     1      33.162 -13.101 -24.539  0.00  0.00    +0.148 HD
BRANCH  18  25
ATOM     22  F   UNL     1      35.333 -19.607 -23.360  0.00  0.00    -0.166 F 
ATOM     23  F   UNL     1      37.041 -18.614 -22.466  0.00  0.00    -0.166 F 
ATOM     24  F   UNL     1      35.271 -19.016 -21.268  0.00  0.00    -0.166 F 
ATOM     25  C   UNL     1      35.677 -18.601 -22.503  0.00  0.00    +0.419 C 
ENDBRANCH  18  25
ENDBRANCH   3  13
BRANCH   9  26
ATOM     26  O   UNL     1      33.857  -5.738 -23.663  0.00  0.00    -0.454 OA
BRANCH  26  30
ATOM     27  O   UNL     1      35.921  -5.066 -29.617  0.00  0.00    -0.275 OA
ATOM     28  N   UNL     1      34.069  -4.607 -28.339  0.00  0.00    -0.270 N 
ATOM     29  N   UNL     1      32.166  -4.037 -27.055  0.00  0.00    -0.229 NA
ATOM     30  C   UNL     1      33.327  -5.167 -24.780  0.00  0.00    +0.146 C 
ATOM     31  C   UNL     1      34.019  -5.170 -25.993  0.00  0.00    +0.045 C 
ATOM     32  C   UNL     1      35.335  -5.871 -26.142  0.00  0.00    +0.042 C 
ATOM     33  C   UNL     1      32.067  -4.583 -24.703  0.00  0.00    +0.058 C 
ATOM     34  C   UNL     1      33.401  -4.592 -27.100  0.00  0.00    +0.133 C 
ATOM     35  C   UNL     1      36.169  -5.227 -27.238  0.00  0.00    +0.090 C 
ATOM     36  C   UNL     1      35.382  -4.997 -28.513  0.00  0.00    +0.227 C 
ATOM     37  C   UNL     1      31.536  -4.041 -25.859  0.00  0.00    +0.103 C 
ATOM     38  H   UNL     1      33.567  -4.319 -29.136  0.00  0.00    +0.156 HD
ENDBRANCH  26  30
ENDBRANCH   9  26
TORSDOF 4
ENDMDL
MODEL 9
REMARK VINA RESULT:     -11.5      5.119      8.997
REMARK  Name = 89670174
REMARK  4 active torsions:
REMARK  status: ('A' for Active; 'I' for Inactive)
REMARK    1  A    between atoms: C_3  and  C_13
REMARK    2  A    between atoms: C_9  and  O_26
REMARK    3  A    between atoms: C_18  and  C_25
REMARK    4  A    between atoms: O_26  and  C_30
REMARK                            x       y       z     vdW  Elec       q    Type
REMARK                         _______ _______ _______ _____ _____    ______ ____
ROOT
ATOM      1  O   UNL     1      31.428 -10.126 -21.377  0.00  0.00    -0.479 OA
ATOM      2  C   UNL     1      32.955 -10.692 -23.200  0.00  0.00    +0.072 C 
ATOM      3  C   UNL     1      33.346 -11.670 -22.102  0.00  0.00    +0.085 C 
ATOM      4  C   UNL     1      31.905 -11.229 -22.235  0.00  0.00    +0.174 C 
ATOM      5  C   UNL     1      32.912  -9.234 -22.925  0.00  0.00    +0.018 C 
ATOM      6  C   UNL     1      32.015  -8.975 -21.880  0.00  0.00    +0.135 C 
ATOM      7  C   UNL     1      33.589  -8.179 -23.518  0.00  0.00    +0.036 C 
ATOM      8  C   UNL     1      31.769  -7.703 -21.400  0.00  0.00    +0.040 C 
ATOM      9  C   UNL     1      33.354  -6.882 -23.052  0.00  0.00    +0.145 C 
ATOM     10  C   UNL     1      32.451  -6.646 -22.001  0.00  0.00    +0.041 C 
ENDROOT
BRANCH   3  13
ATOM     11  N   UNL     1      34.286 -13.978 -21.587  0.00  0.00    -0.318 N 
ATOM     12  N   UNL     1      33.598 -13.599 -23.667  0.00  0.00    -0.318 N 
ATOM     13  C   UNL     1      33.740 -13.084 -22.467  0.00  0.00    +0.148 C 
ATOM     14  C   UNL     1      34.511 -15.148 -22.267  0.00  0.00    +0.059 C 
ATOM     15  C   UNL     1      34.074 -14.887 -23.562  0.00  0.00    +0.059 C 
ATOM     16  C   UNL     1      35.044 -16.376 -21.870  0.00  0.00    +0.019 C 
ATOM     17  C   UNL     1      34.165 -15.898 -24.533  0.00  0.00    +0.016 C 
ATOM     18  C   UNL     1      35.128 -17.371 -22.850  0.00  0.00    +0.073 C 
ATOM     19  C   UNL     1      34.697 -17.138 -24.158  0.00  0.00    +0.005 C 
ATOM     20  H   UNL     1      34.482 -13.811 -20.637  0.00  0.00    +0.148 HD
ATOM     21  H   UNL     1      33.231 -13.160 -24.468  0.00  0.00    +0.148 HD
BRANCH  18  25
ATOM     22  F   UNL     1      35.324 -19.128 -21.240  0.00  0.00    -0.166 F 
ATOM     23  F   UNL     1      35.298 -19.709 -23.329  0.00  0.00    -0.166 F 
ATOM     24  F   UNL     1      37.050 -18.724 -22.499  0.00  0.00    -0.166 F 
ATOM     25  C   UNL     1      35.686 -18.707 -22.487  0.00  0.00    +0.419 C 
ENDBRANCH  18  25
ENDBRANCH   3  13
BRANCH   9  26
ATOM     26  O   UNL     1      34.021  -5.816 -23.630  0.00  0.00    -0.454 OA
BRANCH  26  30
ATOM     27  O   UNL     1      29.559  -1.786 -25.634  0.00  0.00    -0.275 OA
ATOM     28  N   UNL     1      31.217  -3.130 -26.480  0.00  0.00    -0.270 N 
ATOM     29  N   UNL     1      32.857  -4.557 -27.414  0.00  0.00    -0.229 NA
ATOM     30  C   UNL     1      33.612  -5.407 -24.864  0.00  0.00    +0.146 C 
ATOM     31  C   UNL     1      32.581  -4.478 -25.014  0.00  0.00    +0.045 C 
ATOM     32  C   UNL     1      31.934  -3.828 -23.829  0.00  0.00    +0.042 C 
ATOM     33  C   UNL     1      34.249  -5.922 -25.987  0.00  0.00    +0.058 C 
ATOM     34  C   UNL     1      32.237  -4.085 -26.306  0.00  0.00    +0.133 C 
ATOM     35  C   UNL     1      30.507  -3.415 -24.152  0.00  0.00    +0.090 C 
ATOM     36  C   UNL     1      30.397  -2.672 -25.469  0.00  0.00    +0.227 C 
ATOM     37  C   UNL     1      33.840  -5.465 -27.227  0.00  0.00    +0.103 C 
ATOM     38  H   UNL     1      31.080  -2.764 -27.384  0.00  0.00    +0.156 HD
ENDBRANCH  26  30
ENDBRANCH   9  26
TORSDOF 4
ENDMDL
