MODEL 1
REMARK VINA RESULT:     -10.5      0.000      0.000
REMARK  Name = 21078798
REMARK  5 active torsions:
REMARK  status: ('A' for Active; 'I' for Inactive)
REMARK    1  A    between atoms: C_1  and  C_22
REMARK    2  A    between atoms: C_4  and  C_7
REMARK    3  A    between atoms: C_10  and  C_17
REMARK    4  A    between atoms: N_21  and  C_24
REMARK    5  A    between atoms: C_24  and  C_25
REMARK                            x       y       z     vdW  Elec       q    Type
REMARK                         _______ _______ _______ _____ _____    ______ ____
ROOT
ATOM      1  C   UNL     1      34.460 -15.880 -23.460  0.00  0.00    +0.053 C 
ATOM      2  C   UNL     1      34.571 -17.165 -23.990  0.00  0.00    +0.005 C 
ATOM      3  C   UNL     1      34.744 -15.653 -22.114  0.00  0.00    +0.005 C 
ATOM      4  C   UNL     1      35.251 -17.998 -21.827  0.00  0.00    -0.000 C 
ATOM      5  C   UNL     1      34.967 -18.225 -23.174  0.00  0.00    +0.000 C 
ATOM      6  C   UNL     1      35.141 -16.713 -21.296  0.00  0.00    +0.000 C 
ENDROOT
BRANCH   4   7
ATOM      7  C   UNL     1      35.660 -19.097 -20.978  0.00  0.00    -0.004 C 
ATOM      8  C   UNL     1      37.005 -19.440 -20.844  0.00  0.00    -0.022 C 
ATOM      9  C   UNL     1      34.685 -19.818 -20.290  0.00  0.00    +0.004 C 
ATOM     10  C   UNL     1      35.055 -20.881 -19.467  0.00  0.00    +0.055 C 
ATOM     11  C   UNL     1      37.375 -20.504 -20.021  0.00  0.00    -0.004 C 
ATOM     12  C   UNL     1      36.400 -21.224 -19.333  0.00  0.00    +0.004 C 
ATOM     13  C   UNL     1      38.079 -18.690 -21.567  0.00  0.00    +0.031 C 
BRANCH  10  17
ATOM     14  O   UNL     1      34.478 -22.325 -17.668  0.00  0.00    -0.420 OA
ATOM     15  N   UNL     1      32.759 -21.749 -18.979  0.00  0.00    -0.107 NA
ATOM     16  N   UNL     1      32.279 -22.583 -17.986  0.00  0.00    -0.111 NA
ATOM     17  C   UNL     1      34.047 -21.626 -18.753  0.00  0.00    +0.250 A 
ATOM     18  C   UNL     1      33.317 -22.894 -17.245  0.00  0.00    +0.227 A 
ATOM     19  C   UNL     1      33.394 -23.749 -16.053  0.00  0.00    +0.097 C 
ENDBRANCH  10  17
ENDBRANCH   4   7
BRANCH   1  22
ATOM     20  O   UNL     1      33.800 -14.964 -25.515  0.00  0.00    -0.270 OA
ATOM     21  N   UNL     1      33.928 -13.517 -23.706  0.00  0.00    -0.301 N 
ATOM     22  C   UNL     1      34.048 -14.774 -24.311  0.00  0.00    +0.246 C 
ATOM     23  H   UNL     1      34.140 -13.440 -22.748  0.00  0.00    +0.150 HD
BRANCH  21  24
ATOM     24  C   UNL     1      33.507 -12.328 -24.413  0.00  0.00    +0.090 C 
BRANCH  24  25
ATOM     25  C   UNL     1      33.567 -11.129 -23.528  0.00  0.00    +0.020 C 
ATOM     26  C   UNL     1      32.424 -10.847 -22.598  0.00  0.00    +0.002 C 
ATOM     27  C   UNL     1      32.648  -9.973 -23.798  0.00  0.00    +0.002 C 
ENDBRANCH  24  25
ENDBRANCH  21  24
ENDBRANCH   1  22
TORSDOF 5
ENDMDL
MODEL 2
REMARK VINA RESULT:     -10.4      3.013      5.360
REMARK  Name = 21078798
REMARK  5 active torsions:
REMARK  status: ('A' for Active; 'I' for Inactive)
REMARK    1  A    between atoms: C_1  and  C_22
REMARK    2  A    between atoms: C_4  and  C_7
REMARK    3  A    between atoms: C_10  and  C_17
REMARK    4  A    between atoms: N_21  and  C_24
REMARK    5  A    between atoms: C_24  and  C_25
REMARK                            x       y       z     vdW  Elec       q    Type
REMARK                         _______ _______ _______ _____ _____    ______ ____
ROOT
ATOM      1  C   UNL     1      32.821 -11.283 -22.248  0.00  0.00    +0.053 C 
ATOM      2  C   UNL     1      32.332 -12.373 -21.528  0.00  0.00    +0.005 C 
ATOM      3  C   UNL     1      33.718 -11.484 -23.296  0.00  0.00    +0.005 C 
ATOM      4  C   UNL     1      33.637 -13.867 -22.906  0.00  0.00    -0.000 C 
ATOM      5  C   UNL     1      32.739 -13.665 -21.857  0.00  0.00    +0.000 C 
ATOM      6  C   UNL     1      34.126 -12.777 -23.626  0.00  0.00    +0.000 C 
ENDROOT
BRANCH   4   7
ATOM      7  C   UNL     1      34.062 -15.208 -23.248  0.00  0.00    -0.004 C 
ATOM      8  C   UNL     1      33.902 -15.705 -24.541  0.00  0.00    -0.022 C 
ATOM      9  C   UNL     1      34.637 -16.006 -22.260  0.00  0.00    +0.004 C 
ATOM     10  C   UNL     1      35.053 -17.302 -22.565  0.00  0.00    +0.055 C 
ATOM     11  C   UNL     1      34.319 -17.002 -24.846  0.00  0.00    -0.004 C 
ATOM     12  C   UNL     1      34.895 -17.799 -23.858  0.00  0.00    +0.004 C 
ATOM     13  C   UNL     1      33.289 -14.879 -25.626  0.00  0.00    +0.031 C 
BRANCH  10  17
ATOM     14  O   UNL     1      34.991 -19.282 -21.250  0.00  0.00    -0.420 OA
ATOM     15  N   UNL     1      36.740 -17.951 -20.834  0.00  0.00    -0.107 NA
ATOM     16  N   UNL     1      36.834 -19.052 -20.003  0.00  0.00    -0.111 NA
ATOM     17  C   UNL     1      35.650 -18.128 -21.543  0.00  0.00    +0.250 A 
ATOM     18  C   UNL     1      35.793 -19.801 -20.280  0.00  0.00    +0.227 A 
ATOM     19  C   UNL     1      35.385 -21.089 -19.703  0.00  0.00    +0.097 C 
ENDBRANCH  10  17
ENDBRANCH   4   7
BRANCH   1  22
ATOM     20  O   UNL     1      31.527  -9.748 -21.035  0.00  0.00    -0.270 OA
ATOM     21  N   UNL     1      33.022  -8.879 -22.580  0.00  0.00    -0.301 N 
ATOM     22  C   UNL     1      32.396  -9.934 -21.905  0.00  0.00    +0.246 C 
ATOM     23  H   UNL     1      33.702  -9.099 -23.258  0.00  0.00    +0.150 HD
BRANCH  21  24
ATOM     24  C   UNL     1      32.725  -7.486 -22.335  0.00  0.00    +0.090 C 
BRANCH  24  25
ATOM     25  C   UNL     1      33.937  -6.638 -22.526  0.00  0.00    +0.020 C 
ATOM     26  C   UNL     1      34.421  -6.352 -23.917  0.00  0.00    +0.002 C 
ATOM     27  C   UNL     1      35.204  -7.271 -23.024  0.00  0.00    +0.002 C 
ENDBRANCH  24  25
ENDBRANCH  21  24
ENDBRANCH   1  22
TORSDOF 5
ENDMDL
MODEL 3
REMARK VINA RESULT:     -10.4      2.850      5.019
REMARK  Name = 21078798
REMARK  5 active torsions:
REMARK  status: ('A' for Active; 'I' for Inactive)
REMARK    1  A    between atoms: C_1  and  C_22
REMARK    2  A    between atoms: C_4  and  C_7
REMARK    3  A    between atoms: C_10  and  C_17
REMARK    4  A    between atoms: N_21  and  C_24
REMARK    5  A    between atoms: C_24  and  C_25
REMARK                            x       y       z     vdW  Elec       q    Type
REMARK                         _______ _______ _______ _____ _____    ______ ____
ROOT
ATOM      1  C   UNL     1      34.616 -19.963 -21.164  0.00  0.00    +0.053 C 
ATOM      2  C   UNL     1      35.702 -20.525 -20.493  0.00  0.00    +0.005 C 
ATOM      3  C   UNL     1      33.324 -20.133 -20.668  0.00  0.00    +0.005 C 
ATOM      4  C   UNL     1      34.203 -21.429 -18.828  0.00  0.00    -0.000 C 
ATOM      5  C   UNL     1      35.496 -21.258 -19.325  0.00  0.00    +0.000 C 
ATOM      6  C   UNL     1      33.117 -20.867 -19.498  0.00  0.00    +0.000 C 
ENDROOT
BRANCH   4   7
ATOM      7  C   UNL     1      33.988 -22.191 -17.616  0.00  0.00    -0.004 C 
ATOM      8  C   UNL     1      35.056 -22.552 -16.795  0.00  0.00    -0.022 C 
ATOM      9  C   UNL     1      32.689 -22.567 -17.277  0.00  0.00    +0.004 C 
ATOM     10  C   UNL     1      32.457 -23.302 -16.115  0.00  0.00    +0.055 C 
ATOM     11  C   UNL     1      34.823 -23.288 -15.632  0.00  0.00    -0.004 C 
ATOM     12  C   UNL     1      33.524 -23.662 -15.293  0.00  0.00    +0.004 C 
ATOM     13  C   UNL     1      36.462 -22.168 -17.127  0.00  0.00    +0.031 C 
BRANCH  10  17
ATOM     14  O   UNL     1      30.115 -22.941 -16.305  0.00  0.00    -0.420 OA
ATOM     15  N   UNL     1      30.681 -24.659 -14.989  0.00  0.00    -0.107 NA
ATOM     16  N   UNL     1      29.301 -24.569 -15.004  0.00  0.00    -0.111 NA
ATOM     17  C   UNL     1      31.113 -23.690 -15.762  0.00  0.00    +0.250 A 
ATOM     18  C   UNL     1      29.016 -23.553 -15.784  0.00  0.00    +0.227 A 
ATOM     19  C   UNL     1      27.709 -23.001 -16.162  0.00  0.00    +0.097 C 
ENDBRANCH  10  17
ENDBRANCH   4   7
BRANCH   1  22
ATOM     20  O   UNL     1      34.881 -19.768 -23.486  0.00  0.00    -0.270 OA
ATOM     21  N   UNL     1      34.952 -17.808 -22.247  0.00  0.00    -0.301 N 
ATOM     22  C   UNL     1      34.830 -19.197 -22.383  0.00  0.00    +0.246 C 
ATOM     23  H   UNL     1      34.903 -17.423 -21.343  0.00  0.00    +0.150 HD
BRANCH  21  24
ATOM     24  C   UNL     1      35.146 -16.911 -23.364  0.00  0.00    +0.090 C 
BRANCH  24  25
ATOM     25  C   UNL     1      35.188 -15.492 -22.911  0.00  0.00    +0.020 C 
ATOM     26  C   UNL     1      34.577 -15.124 -21.591  0.00  0.00    +0.002 C 
ATOM     27  C   UNL     1      33.915 -14.697 -22.869  0.00  0.00    +0.002 C 
ENDBRANCH  24  25
ENDBRANCH  21  24
ENDBRANCH   1  22
TORSDOF 5
ENDMDL
MODEL 4
REMARK VINA RESULT:     -10.2      3.175      5.260
REMARK  Name = 21078798
REMARK  5 active torsions:
REMARK  status: ('A' for Active; 'I' for Inactive)
REMARK    1  A    between atoms: C_1  and  C_22
REMARK    2  A    between atoms: C_4  and  C_7
REMARK    3  A    between atoms: C_10  and  C_17
REMARK    4  A    between atoms: N_21  and  C_24
REMARK    5  A    between atoms: C_24  and  C_25
REMARK                            x       y       z     vdW  Elec       q    Type
REMARK                         _______ _______ _______ _____ _____    ______ ____
ROOT
ATOM      1  C   UNL     1      32.578 -11.610 -21.708  0.00  0.00    +0.053 C 
ATOM      2  C   UNL     1      33.395 -11.696 -22.835  0.00  0.00    +0.005 C 
ATOM      3  C   UNL     1      32.262 -12.760 -20.985  0.00  0.00    +0.005 C 
ATOM      4  C   UNL     1      33.583 -14.084 -22.514  0.00  0.00    -0.000 C 
ATOM      5  C   UNL     1      33.898 -12.933 -23.238  0.00  0.00    +0.000 C 
ATOM      6  C   UNL     1      32.766 -13.997 -21.387  0.00  0.00    +0.000 C 
ENDROOT
BRANCH   4   7
ATOM      7  C   UNL     1      34.103 -15.368 -22.933  0.00  0.00    -0.004 C 
ATOM      8  C   UNL     1      34.020 -15.778 -24.263  0.00  0.00    -0.022 C 
ATOM      9  C   UNL     1      34.693 -16.200 -21.981  0.00  0.00    +0.004 C 
ATOM     10  C   UNL     1      35.201 -17.442 -22.361  0.00  0.00    +0.055 C 
ATOM     11  C   UNL     1      34.528 -17.022 -24.642  0.00  0.00    -0.004 C 
ATOM     12  C   UNL     1      35.118 -17.852 -23.691  0.00  0.00    +0.004 C 
ATOM     13  C   UNL     1      33.393 -14.914 -25.310  0.00  0.00    +0.031 C 
BRANCH  10  17
ATOM     14  O   UNL     1      35.107 -19.415 -21.037  0.00  0.00    -0.420 OA
ATOM     15  N   UNL     1      36.957 -18.191 -20.742  0.00  0.00    -0.107 NA
ATOM     16  N   UNL     1      37.039 -19.296 -19.915  0.00  0.00    -0.111 NA
ATOM     17  C   UNL     1      35.813 -18.302 -21.378  0.00  0.00    +0.250 A 
ATOM     18  C   UNL     1      35.939 -19.981 -20.120  0.00  0.00    +0.227 A 
ATOM     19  C   UNL     1      35.494 -21.242 -19.513  0.00  0.00    +0.097 C 
ENDBRANCH  10  17
ENDBRANCH   4   7
BRANCH   1  22
ATOM     20  O   UNL     1      31.593 -10.170 -20.141  0.00  0.00    -0.270 OA
ATOM     21  N   UNL     1      32.114  -9.275 -22.217  0.00  0.00    -0.301 N 
ATOM     22  C   UNL     1      32.053 -10.320 -21.287  0.00  0.00    +0.246 C 
ATOM     23  H   UNL     1      32.490  -9.465 -23.106  0.00  0.00    +0.150 HD
BRANCH  21  24
ATOM     24  C   UNL     1      31.654  -7.932 -21.940  0.00  0.00    +0.090 C 
BRANCH  24  25
ATOM     25  C   UNL     1      32.765  -7.080 -21.427  0.00  0.00    +0.020 C 
ATOM     26  C   UNL     1      32.972  -6.957 -19.946  0.00  0.00    +0.002 C 
ATOM     27  C   UNL     1      32.438  -5.792 -20.729  0.00  0.00    +0.002 C 
ENDBRANCH  24  25
ENDBRANCH  21  24
ENDBRANCH   1  22
TORSDOF 5
ENDMDL
MODEL 5
REMARK VINA RESULT:     -10.0      3.802      7.044
REMARK  Name = 21078798
REMARK  5 active torsions:
REMARK  status: ('A' for Active; 'I' for Inactive)
REMARK    1  A    between atoms: C_1  and  C_22
REMARK    2  A    between atoms: C_4  and  C_7
REMARK    3  A    between atoms: C_10  and  C_17
REMARK    4  A    between atoms: N_21  and  C_24
REMARK    5  A    between atoms: C_24  and  C_25
REMARK                            x       y       z     vdW  Elec       q    Type
REMARK                         _______ _______ _______ _____ _____    ______ ____
ROOT
ATOM      1  C   UNL     1      35.179 -20.923 -19.522  0.00  0.00    +0.053 C 
ATOM      2  C   UNL     1      33.951 -21.526 -19.248  0.00  0.00    +0.005 C 
ATOM      3  C   UNL     1      36.249 -21.089 -18.645  0.00  0.00    +0.005 C 
ATOM      4  C   UNL     1      34.866 -22.464 -17.219  0.00  0.00    -0.000 C 
ATOM      5  C   UNL     1      33.795 -22.297 -18.097  0.00  0.00    +0.000 C 
ATOM      6  C   UNL     1      36.094 -21.861 -17.492  0.00  0.00    +0.000 C 
ENDROOT
BRANCH   4   7
ATOM      7  C   UNL     1      34.704 -23.262 -16.022  0.00  0.00    -0.004 C 
ATOM      8  C   UNL     1      33.446 -23.462 -15.456  0.00  0.00    -0.022 C 
ATOM      9  C   UNL     1      35.832 -23.833 -15.434  0.00  0.00    +0.004 C 
ATOM     10  C   UNL     1      35.702 -24.605 -14.280  0.00  0.00    +0.055 C 
ATOM     11  C   UNL     1      33.315 -24.235 -14.302  0.00  0.00    -0.004 C 
ATOM     12  C   UNL     1      34.443 -24.807 -13.715  0.00  0.00    +0.004 C 
ATOM     13  C   UNL     1      32.214 -22.865 -16.058  0.00  0.00    +0.031 C 
BRANCH  10  17
ATOM     14  O   UNL     1      38.032 -25.069 -14.365  0.00  0.00    -0.420 OA
ATOM     15  N   UNL     1      36.999 -25.854 -12.542  0.00  0.00    -0.107 NA
ATOM     16  N   UNL     1      38.336 -26.196 -12.456  0.00  0.00    -0.111 NA
ATOM     17  C   UNL     1      36.868 -25.198 -13.672  0.00  0.00    +0.250 A 
ATOM     18  C   UNL     1      38.899 -25.719 -13.541  0.00  0.00    +0.227 A 
ATOM     19  C   UNL     1      40.301 -25.786 -13.975  0.00  0.00    +0.097 C 
ENDBRANCH  10  17
ENDBRANCH   4   7
BRANCH   1  22
ATOM     20  O   UNL     1      34.744 -20.422 -21.772  0.00  0.00    -0.270 OA
ATOM     21  N   UNL     1      36.177 -18.999 -20.630  0.00  0.00    -0.301 N 
ATOM     22  C   UNL     1      35.343 -20.119 -20.724  0.00  0.00    +0.246 C 
ATOM     23  H   UNL     1      36.619 -18.819 -19.769  0.00  0.00    +0.150 HD
BRANCH  21  24
ATOM     24  C   UNL     1      36.422 -18.092 -21.728  0.00  0.00    +0.090 C 
BRANCH  24  25
ATOM     25  C   UNL     1      35.173 -17.380 -22.125  0.00  0.00    +0.020 C 
ATOM     26  C   UNL     1      34.884 -17.161 -23.582  0.00  0.00    +0.002 C 
ATOM     27  C   UNL     1      35.270 -16.001 -22.711  0.00  0.00    +0.002 C 
ENDBRANCH  24  25
ENDBRANCH  21  24
ENDBRANCH   1  22
TORSDOF 5
ENDMDL
MODEL 6
REMARK VINA RESULT:     -10.0      1.427      9.214
REMARK  Name = 21078798
REMARK  5 active torsions:
REMARK  status: ('A' for Active; 'I' for Inactive)
REMARK    1  A    between atoms: C_1  and  C_22
REMARK    2  A    between atoms: C_4  and  C_7
REMARK    3  A    between atoms: C_10  and  C_17
REMARK    4  A    between atoms: N_21  and  C_24
REMARK    5  A    between atoms: C_24  and  C_25
REMARK                            x       y       z     vdW  Elec       q    Type
REMARK                         _______ _______ _______ _____ _____    ______ ____
ROOT
ATOM      1  C   UNL     1      35.482 -21.044 -19.059  0.00  0.00    +0.053 C 
ATOM      2  C   UNL     1      36.560 -20.320 -19.570  0.00  0.00    +0.005 C 
ATOM      3  C   UNL     1      34.208 -20.873 -19.598  0.00  0.00    +0.005 C 
ATOM      4  C   UNL     1      35.086 -19.254 -21.161  0.00  0.00    -0.000 C 
ATOM      5  C   UNL     1      36.362 -19.426 -20.621  0.00  0.00    +0.000 C 
ATOM      6  C   UNL     1      34.009 -19.978 -20.650  0.00  0.00    +0.000 C 
ENDROOT
BRANCH   4   7
ATOM      7  C   UNL     1      34.880 -18.324 -22.250  0.00  0.00    -0.004 C 
ATOM      8  C   UNL     1      34.804 -18.768 -23.570  0.00  0.00    -0.022 C 
ATOM      9  C   UNL     1      34.759 -16.965 -21.964  0.00  0.00    +0.004 C 
ATOM     10  C   UNL     1      34.560 -16.049 -22.998  0.00  0.00    +0.055 C 
ATOM     11  C   UNL     1      34.605 -17.853 -24.604  0.00  0.00    -0.004 C 
ATOM     12  C   UNL     1      34.483 -16.494 -24.317  0.00  0.00    +0.004 C 
ATOM     13  C   UNL     1      34.931 -20.218 -23.915  0.00  0.00    +0.031 C 
BRANCH  10  17
ATOM     14  O   UNL     1      34.071 -13.846 -23.744  0.00  0.00    -0.420 OA
ATOM     15  N   UNL     1      34.612 -13.990 -21.578  0.00  0.00    -0.107 NA
ATOM     16  N   UNL     1      34.357 -12.662 -21.867  0.00  0.00    -0.111 NA
ATOM     17  C   UNL     1      34.433 -14.643 -22.702  0.00  0.00    +0.250 A 
ATOM     18  C   UNL     1      34.046 -12.625 -23.141  0.00  0.00    +0.227 A 
ATOM     19  C   UNL     1      33.683 -11.478 -23.985  0.00  0.00    +0.097 C 
ENDBRANCH  10  17
ENDBRANCH   4   7
BRANCH   1  22
ATOM     20  O   UNL     1      36.838 -22.283 -17.600  0.00  0.00    -0.270 OA
ATOM     21  N   UNL     1      34.543 -22.488 -17.339  0.00  0.00    -0.301 N 
ATOM     22  C   UNL     1      35.688 -21.979 -17.963  0.00  0.00    +0.246 C 
ATOM     23  H   UNL     1      33.663 -22.205 -17.679  0.00  0.00    +0.150 HD
BRANCH  21  24
ATOM     24  C   UNL     1      34.583 -23.407 -16.224  0.00  0.00    +0.090 C 
BRANCH  24  25
ATOM     25  C   UNL     1      33.207 -23.776 -15.783  0.00  0.00    +0.020 C 
ATOM     26  C   UNL     1      32.036 -22.992 -16.299  0.00  0.00    +0.002 C 
ATOM     27  C   UNL     1      32.459 -22.853 -14.865  0.00  0.00    +0.002 C 
ENDBRANCH  24  25
ENDBRANCH  21  24
ENDBRANCH   1  22
TORSDOF 5
ENDMDL
MODEL 7
REMARK VINA RESULT:      -9.9      3.514     10.895
REMARK  Name = 21078798
REMARK  5 active torsions:
REMARK  status: ('A' for Active; 'I' for Inactive)
REMARK    1  A    between atoms: C_1  and  C_22
REMARK    2  A    between atoms: C_4  and  C_7
REMARK    3  A    between atoms: C_10  and  C_17
REMARK    4  A    between atoms: N_21  and  C_24
REMARK    5  A    between atoms: C_24  and  C_25
REMARK                            x       y       z     vdW  Elec       q    Type
REMARK                         _______ _______ _______ _____ _____    ______ ____
ROOT
ATOM      1  C   UNL     1      34.209 -15.259 -23.613  0.00  0.00    +0.053 C 
ATOM      2  C   UNL     1      33.450 -14.517 -24.517  0.00  0.00    +0.005 C 
ATOM      3  C   UNL     1      34.570 -14.706 -22.385  0.00  0.00    +0.005 C 
ATOM      4  C   UNL     1      33.409 -12.667 -22.963  0.00  0.00    -0.000 C 
ATOM      5  C   UNL     1      33.049 -13.221 -24.192  0.00  0.00    +0.000 C 
ATOM      6  C   UNL     1      34.169 -13.409 -22.059  0.00  0.00    +0.000 C 
ENDROOT
BRANCH   4   7
ATOM      7  C   UNL     1      32.996 -11.322 -22.626  0.00  0.00    -0.004 C 
ATOM      8  C   UNL     1      31.950 -11.094 -21.731  0.00  0.00    -0.022 C 
ATOM      9  C   UNL     1      33.659 -10.245 -23.212  0.00  0.00    +0.004 C 
ATOM     10  C   UNL     1      33.278  -8.939 -22.903  0.00  0.00    +0.055 C 
ATOM     11  C   UNL     1      31.569  -9.788 -21.423  0.00  0.00    -0.004 C 
ATOM     12  C   UNL     1      32.233  -8.711 -22.008  0.00  0.00    +0.004 C 
ATOM     13  C   UNL     1      31.215 -12.224 -21.084  0.00  0.00    +0.031 C 
BRANCH  10  17
ATOM     14  O   UNL     1      33.242  -7.090 -24.397  0.00  0.00    -0.420 OA
ATOM     15  N   UNL     1      35.194  -7.391 -23.345  0.00  0.00    -0.107 NA
ATOM     16  N   UNL     1      35.320  -6.291 -24.174  0.00  0.00    -0.111 NA
ATOM     17  C   UNL     1      33.965  -7.824 -23.508  0.00  0.00    +0.250 A 
ATOM     18  C   UNL     1      34.158  -6.153 -24.767  0.00  0.00    +0.227 A 
ATOM     19  C   UNL     1      33.721  -5.152 -25.750  0.00  0.00    +0.097 C 
ENDBRANCH  10  17
ENDBRANCH   4   7
BRANCH   1  22
ATOM     20  O   UNL     1      34.568 -17.015 -25.125  0.00  0.00    -0.270 OA
ATOM     21  N   UNL     1      35.109 -17.407 -22.904  0.00  0.00    -0.301 N 
ATOM     22  C   UNL     1      34.627 -16.611 -23.951  0.00  0.00    +0.246 C 
ATOM     23  H   UNL     1      35.128 -17.023 -21.998  0.00  0.00    +0.150 HD
BRANCH  21  24
ATOM     24  C   UNL     1      35.581 -18.762 -23.084  0.00  0.00    +0.090 C 
BRANCH  24  25
ATOM     25  C   UNL     1      34.962 -19.682 -22.088  0.00  0.00    +0.020 C 
ATOM     26  C   UNL     1      34.325 -19.109 -20.856  0.00  0.00    +0.002 C 
ATOM     27  C   UNL     1      35.619 -19.863 -20.750  0.00  0.00    +0.002 C 
ENDBRANCH  24  25
ENDBRANCH  21  24
ENDBRANCH   1  22
TORSDOF 5
ENDMDL
MODEL 8
REMARK VINA RESULT:      -9.6      5.660      9.460
REMARK  Name = 21078798
REMARK  5 active torsions:
REMARK  status: ('A' for Active; 'I' for Inactive)
REMARK    1  A    between atoms: C_1  and  C_22
REMARK    2  A    between atoms: C_4  and  C_7
REMARK    3  A    between atoms: C_10  and  C_17
REMARK    4  A    between atoms: N_21  and  C_24
REMARK    5  A    between atoms: C_24  and  C_25
REMARK                            x       y       z     vdW  Elec       q    Type
REMARK                         _______ _______ _______ _____ _____    ______ ____
ROOT
ATOM      1  C   UNL     1      31.274  -6.851 -21.915  0.00  0.00    +0.053 C 
ATOM      2  C   UNL     1      31.928  -7.282 -20.761  0.00  0.00    +0.005 C 
ATOM      3  C   UNL     1      30.886  -7.775 -22.884  0.00  0.00    +0.005 C 
ATOM      4  C   UNL     1      31.803  -9.564 -21.544  0.00  0.00    -0.000 C 
ATOM      5  C   UNL     1      32.192  -8.638 -20.574  0.00  0.00    +0.000 C 
ATOM      6  C   UNL     1      31.149  -9.133 -22.698  0.00  0.00    +0.000 C 
ENDROOT
BRANCH   4   7
ATOM      7  C   UNL     1      32.078 -10.972 -21.353  0.00  0.00    -0.004 C 
ATOM      8  C   UNL     1      31.952 -11.565 -20.097  0.00  0.00    -0.022 C 
ATOM      9  C   UNL     1      32.478 -11.736 -22.448  0.00  0.00    +0.004 C 
ATOM     10  C   UNL     1      32.750 -13.095 -22.289  0.00  0.00    +0.055 C 
ATOM     11  C   UNL     1      32.224 -12.924 -19.937  0.00  0.00    -0.004 C 
ATOM     12  C   UNL     1      32.622 -13.688 -21.033  0.00  0.00    +0.004 C 
ATOM     13  C   UNL     1      31.527 -10.777 -18.900  0.00  0.00    +0.031 C 
BRANCH  10  17
ATOM     14  O   UNL     1      33.834 -15.034 -23.134  0.00  0.00    -0.420 OA
ATOM     15  N   UNL     1      32.996 -13.684 -24.708  0.00  0.00    -0.107 NA
ATOM     16  N   UNL     1      33.592 -14.759 -25.341  0.00  0.00    -0.111 NA
ATOM     17  C   UNL     1      33.162 -13.887 -23.422  0.00  0.00    +0.250 A 
ATOM     18  C   UNL     1      34.068 -15.520 -24.384  0.00  0.00    +0.227 A 
ATOM     19  C   UNL     1      34.797 -16.792 -24.474  0.00  0.00    +0.097 C 
ENDBRANCH  10  17
ENDBRANCH   4   7
BRANCH   1  22
ATOM     20  O   UNL     1      29.901  -4.955 -21.771  0.00  0.00    -0.270 OA
ATOM     21  N   UNL     1      32.020  -4.658 -22.666  0.00  0.00    -0.301 N 
ATOM     22  C   UNL     1      30.997  -5.435 -22.109  0.00  0.00    +0.246 C 
ATOM     23  H   UNL     1      32.863  -5.105 -22.911  0.00  0.00    +0.150 HD
BRANCH  21  24
ATOM     24  C   UNL     1      31.906  -3.236 -22.900  0.00  0.00    +0.090 C 
BRANCH  24  25
ATOM     25  C   UNL     1      31.844  -2.936 -24.359  0.00  0.00    +0.020 C 
ATOM     26  C   UNL     1      30.538  -3.085 -25.083  0.00  0.00    +0.002 C 
ATOM     27  C   UNL     1      31.650  -4.063 -25.331  0.00  0.00    +0.002 C 
ENDBRANCH  24  25
ENDBRANCH  21  24
ENDBRANCH   1  22
TORSDOF 5
ENDMDL
MODEL 9
REMARK VINA RESULT:      -9.5      5.353      9.486
REMARK  Name = 21078798
REMARK  5 active torsions:
REMARK  status: ('A' for Active; 'I' for Inactive)
REMARK    1  A    between atoms: C_1  and  C_22
REMARK    2  A    between atoms: C_4  and  C_7
REMARK    3  A    between atoms: C_10  and  C_17
REMARK    4  A    between atoms: N_21  and  C_24
REMARK    5  A    between atoms: C_24  and  C_25
REMARK                            x       y       z     vdW  Elec       q    Type
REMARK                         _______ _______ _______ _____ _____    ______ ____
ROOT
ATOM      1  C   UNL     1      32.229  -6.690 -23.548  0.00  0.00    +0.053 C 
ATOM      2  C   UNL     1      31.107  -7.497 -23.737  0.00  0.00    +0.005 C 
ATOM      3  C   UNL     1      33.373  -7.214 -22.947  0.00  0.00    +0.005 C 
ATOM      4  C   UNL     1      32.275  -9.354 -22.724  0.00  0.00    -0.000 C 
ATOM      5  C   UNL     1      31.130  -8.830 -23.325  0.00  0.00    +0.000 C 
ATOM      6  C   UNL     1      33.397  -8.547 -22.535  0.00  0.00    +0.000 C 
ENDROOT
BRANCH   4   7
ATOM      7  C   UNL     1      32.299 -10.736 -22.294  0.00  0.00    -0.004 C 
ATOM      8  C   UNL     1      31.904 -11.095 -21.006  0.00  0.00    -0.022 C 
ATOM      9  C   UNL     1      32.728 -11.714 -23.191  0.00  0.00    +0.004 C 
ATOM     10  C   UNL     1      32.761 -13.052 -22.799  0.00  0.00    +0.055 C 
ATOM     11  C   UNL     1      31.937 -12.435 -20.615  0.00  0.00    -0.004 C 
ATOM     12  C   UNL     1      32.365 -13.412 -21.512  0.00  0.00    +0.004 C 
ATOM     13  C   UNL     1      31.439 -10.074 -20.018  0.00  0.00    +0.031 C 
BRANCH  10  17
ATOM     14  O   UNL     1      33.890 -15.109 -23.187  0.00  0.00    -0.420 OA
ATOM     15  N   UNL     1      33.054 -14.152 -25.028  0.00  0.00    -0.107 NA
ATOM     16  N   UNL     1      33.678 -15.328 -25.403  0.00  0.00    -0.111 NA
ATOM     17  C   UNL     1      33.203 -14.065 -23.727  0.00  0.00    +0.250 A 
ATOM     18  C   UNL     1      34.151 -15.852 -24.297  0.00  0.00    +0.227 A 
ATOM     19  C   UNL     1      34.902 -17.098 -24.098  0.00  0.00    +0.097 C 
ENDBRANCH  10  17
ENDBRANCH   4   7
BRANCH   1  22
ATOM     20  O   UNL     1      33.240  -4.754 -24.402  0.00  0.00    -0.270 OA
ATOM     21  N   UNL     1      30.976  -4.634 -23.911  0.00  0.00    -0.301 N 
ATOM     22  C   UNL     1      32.206  -5.300 -23.979  0.00  0.00    +0.246 C 
ATOM     23  H   UNL     1      30.198  -5.128 -23.564  0.00  0.00    +0.150 HD
BRANCH  21  24
ATOM     24  C   UNL     1      30.788  -3.262 -24.322  0.00  0.00    +0.090 C 
BRANCH  24  25
ATOM     25  C   UNL     1      30.470  -2.390 -23.155  0.00  0.00    +0.020 C 
ATOM     26  C   UNL     1      31.568  -2.000 -22.209  0.00  0.00    +0.002 C 
ATOM     27  C   UNL     1      30.512  -2.974 -21.772  0.00  0.00    +0.002 C 
ENDBRANCH  24  25
ENDBRANCH  21  24
ENDBRANCH   1  22
TORSDOF 5
ENDMDL
