MODEL 1
REMARK VINA RESULT:     -10.5      0.000      0.000
REMARK  Name = 11494412
REMARK  2 active torsions:
REMARK  status: ('A' for Active; 'I' for Inactive)
REMARK    1  A    between atoms: C_4  and  C_10
REMARK    2  A    between atoms: C_5  and  C_22
REMARK                            x       y       z     vdW  Elec       q    Type
REMARK                         _______ _______ _______ _____ _____    ______ ____
ROOT
ATOM      1  O   UNL     1      30.862 -23.959 -16.091  0.00  0.00    -0.274 OA
ATOM      2  O   UNL     1      33.100 -23.204 -12.145  0.00  0.00    -0.274 OA
ATOM      3  N   UNL     1      31.709 -23.561 -13.968  0.00  0.00    -0.255 N 
ATOM      4  C   UNL     1      33.261 -23.919 -15.675  0.00  0.00    +0.113 C 
ATOM      5  C   UNL     1      34.004 -23.490 -14.388  0.00  0.00    +0.113 C 
ATOM      6  C   UNL     1      31.796 -23.818 -15.315  0.00  0.00    +0.233 C 
ATOM      7  C   UNL     1      32.920 -23.401 -13.339  0.00  0.00    +0.233 C 
ATOM      8  H   UNL     1      30.850 -23.495 -13.493  0.00  0.00    +0.158 HD
ENDROOT
BRANCH   4  10
ATOM      9  N   UNL     1      33.356 -21.872 -18.685  0.00  0.00    -0.286 N 
ATOM     10  C   UNL     1      33.573 -23.054 -16.830  0.00  0.00    +0.003 C 
ATOM     11  C   UNL     1      34.667 -21.758 -18.302  0.00  0.00    +0.047 C 
ATOM     12  C   UNL     1      34.847 -22.490 -17.143  0.00  0.00    +0.011 C 
ATOM     13  C   UNL     1      32.674 -22.653 -17.803  0.00  0.00    +0.062 C 
ATOM     14  C   UNL     1      32.886 -21.215 -19.893  0.00  0.00    +0.096 C 
ATOM     15  C   UNL     1      35.655 -21.026 -18.960  0.00  0.00    -0.009 C 
ATOM     16  C   UNL     1      33.769 -20.000 -20.252  0.00  0.00    +0.027 C 
ATOM     17  C   UNL     1      35.288 -20.305 -20.224  0.00  0.00    +0.029 C 
ATOM     18  C   UNL     1      36.136 -22.515 -16.580  0.00  0.00    +0.001 C 
ATOM     19  C   UNL     1      36.931 -21.076 -18.395  0.00  0.00    -0.003 C 
ATOM     20  C   UNL     1      37.165 -21.804 -17.223  0.00  0.00    -0.000 C 
ENDBRANCH   4  10
BRANCH   5  22
ATOM     21  N   UNL     1      36.247 -26.315 -13.822  0.00  0.00    -0.312 N 
ATOM     22  C   UNL     1      35.044 -24.457 -13.980  0.00  0.00    +0.003 C 
ATOM     23  C   UNL     1      36.099 -24.225 -13.054  0.00  0.00    +0.011 C 
ATOM     24  C   UNL     1      35.161 -25.749 -14.436  0.00  0.00    +0.058 C 
ATOM     25  C   UNL     1      36.839 -25.408 -12.973  0.00  0.00    +0.048 C 
ATOM     26  C   UNL     1      36.497 -23.122 -12.274  0.00  0.00    +0.001 C 
ATOM     27  C   UNL     1      37.961 -25.541 -12.148  0.00  0.00    +0.015 C 
ATOM     28  C   UNL     1      37.617 -23.240 -11.443  0.00  0.00    +0.000 C 
ATOM     29  C   UNL     1      38.337 -24.432 -11.383  0.00  0.00    +0.001 C 
ATOM     30  H   UNL     1      36.559 -27.237 -13.968  0.00  0.00    +0.152 HD
ENDBRANCH   5  22
TORSDOF 2
ENDMDL
MODEL 2
REMARK VINA RESULT:     -10.5      6.265     10.106
REMARK  Name = 11494412
REMARK  2 active torsions:
REMARK  status: ('A' for Active; 'I' for Inactive)
REMARK    1  A    between atoms: C_4  and  C_10
REMARK    2  A    between atoms: C_5  and  C_22
REMARK                            x       y       z     vdW  Elec       q    Type
REMARK                         _______ _______ _______ _____ _____    ______ ____
ROOT
ATOM      1  O   UNL     1      35.081 -15.362 -25.011  0.00  0.00    -0.274 OA
ATOM      2  O   UNL     1      34.162 -19.725 -23.884  0.00  0.00    -0.274 OA
ATOM      3  N   UNL     1      34.585 -17.613 -24.748  0.00  0.00    -0.255 N 
ATOM      4  C   UNL     1      35.081 -16.408 -22.812  0.00  0.00    +0.113 C 
ATOM      5  C   UNL     1      34.600 -17.825 -22.424  0.00  0.00    +0.113 C 
ATOM      6  C   UNL     1      34.921 -16.354 -24.314  0.00  0.00    +0.233 C 
ATOM      7  C   UNL     1      34.422 -18.538 -23.746  0.00  0.00    +0.233 C 
ATOM      8  H   UNL     1      34.470 -17.835 -25.700  0.00  0.00    +0.158 HD
ENDROOT
BRANCH   4  10
ATOM      9  N   UNL     1      33.101 -14.219 -20.679  0.00  0.00    -0.286 N 
ATOM     10  C   UNL     1      34.291 -15.340 -22.166  0.00  0.00    +0.003 C 
ATOM     11  C   UNL     1      33.210 -13.411 -21.780  0.00  0.00    +0.047 C 
ATOM     12  C   UNL     1      33.947 -14.079 -22.739  0.00  0.00    +0.011 C 
ATOM     13  C   UNL     1      33.752 -15.395 -20.892  0.00  0.00    +0.062 C 
ATOM     14  C   UNL     1      32.353 -13.776 -19.514  0.00  0.00    +0.096 C 
ATOM     15  C   UNL     1      32.677 -12.129 -21.914  0.00  0.00    -0.009 C 
ATOM     16  C   UNL     1      32.291 -12.234 -19.440  0.00  0.00    +0.027 C 
ATOM     17  C   UNL     1      31.880 -11.564 -20.774  0.00  0.00    +0.029 C 
ATOM     18  C   UNL     1      34.172 -13.424 -23.963  0.00  0.00    +0.001 C 
ATOM     19  C   UNL     1      32.897 -11.501 -23.141  0.00  0.00    -0.003 C 
ATOM     20  C   UNL     1      33.636 -12.136 -24.146  0.00  0.00    -0.000 C 
ENDBRANCH   4  10
BRANCH   5  22
ATOM     21  N   UNL     1      37.466 -19.173 -20.608  0.00  0.00    -0.312 N 
ATOM     22  C   UNL     1      35.568 -18.545 -21.572  0.00  0.00    +0.003 C 
ATOM     23  C   UNL     1      35.279 -19.607 -20.671  0.00  0.00    +0.011 C 
ATOM     24  C   UNL     1      36.920 -18.300 -21.511  0.00  0.00    +0.058 C 
ATOM     25  C   UNL     1      36.488 -19.983 -20.079  0.00  0.00    +0.048 C 
ATOM     26  C   UNL     1      34.102 -20.289 -20.300  0.00  0.00    +0.001 C 
ATOM     27  C   UNL     1      36.578 -21.009 -19.133  0.00  0.00    +0.015 C 
ATOM     28  C   UNL     1      34.177 -21.317 -19.355  0.00  0.00    +0.000 C 
ATOM     29  C   UNL     1      35.398 -21.671 -18.781  0.00  0.00    +0.001 C 
ATOM     30  H   UNL     1      38.421 -19.214 -20.371  0.00  0.00    +0.152 HD
ENDBRANCH   5  22
TORSDOF 2
ENDMDL
MODEL 3
REMARK VINA RESULT:     -10.5     12.082     15.916
REMARK  Name = 11494412
REMARK  2 active torsions:
REMARK  status: ('A' for Active; 'I' for Inactive)
REMARK    1  A    between atoms: C_4  and  C_10
REMARK    2  A    between atoms: C_5  and  C_22
REMARK                            x       y       z     vdW  Elec       q    Type
REMARK                         _______ _______ _______ _____ _____    ______ ____
ROOT
ATOM      1  O   UNL     1      35.914  -9.081 -23.708  0.00  0.00    -0.274 OA
ATOM      2  O   UNL     1      33.403 -12.815 -24.656  0.00  0.00    -0.274 OA
ATOM      3  N   UNL     1      34.889 -11.058 -24.360  0.00  0.00    -0.255 N 
ATOM      4  C   UNL     1      33.711  -9.696 -22.873  0.00  0.00    +0.113 C 
ATOM      5  C   UNL     1      32.803 -10.861 -23.332  0.00  0.00    +0.113 C 
ATOM      6  C   UNL     1      34.978  -9.866 -23.682  0.00  0.00    +0.233 C 
ATOM      7  C   UNL     1      33.700 -11.724 -24.189  0.00  0.00    +0.233 C 
ATOM      8  H   UNL     1      35.618 -11.405 -24.922  0.00  0.00    +0.158 HD
ENDROOT
BRANCH   4  10
ATOM      9  N   UNL     1      32.188  -6.644 -24.145  0.00  0.00    -0.286 N 
ATOM     10  C   UNL     1      33.110  -8.371 -23.120  0.00  0.00    +0.003 C 
ATOM     11  C   UNL     1      32.305  -6.295 -22.825  0.00  0.00    +0.047 C 
ATOM     12  C   UNL     1      32.884  -7.351 -22.146  0.00  0.00    +0.011 C 
ATOM     13  C   UNL     1      32.668  -7.901 -24.345  0.00  0.00    +0.062 C 
ATOM     14  C   UNL     1      31.626  -5.707 -25.104  0.00  0.00    +0.096 C 
ATOM     15  C   UNL     1      31.905  -5.087 -22.255  0.00  0.00    -0.009 C 
ATOM     16  C   UNL     1      30.694  -4.687 -24.412  0.00  0.00    +0.027 C 
ATOM     17  C   UNL     1      31.312  -4.037 -23.149  0.00  0.00    +0.029 C 
ATOM     18  C   UNL     1      33.105  -7.198 -20.766  0.00  0.00    +0.001 C 
ATOM     19  C   UNL     1      32.147  -4.946 -20.887  0.00  0.00    -0.003 C 
ATOM     20  C   UNL     1      32.732  -5.986 -20.155  0.00  0.00    -0.000 C 
ENDBRANCH   4  10
BRANCH   5  22
ATOM     21  N   UNL     1      30.902 -12.354 -20.596  0.00  0.00    -0.312 N 
ATOM     22  C   UNL     1      32.256 -11.640 -22.202  0.00  0.00    +0.003 C 
ATOM     23  C   UNL     1      32.884 -12.735 -21.547  0.00  0.00    +0.011 C 
ATOM     24  C   UNL     1      31.040 -11.429 -21.597  0.00  0.00    +0.058 C 
ATOM     25  C   UNL     1      32.012 -13.165 -20.542  0.00  0.00    +0.048 C 
ATOM     26  C   UNL     1      34.113 -13.405 -21.710  0.00  0.00    +0.001 C 
ATOM     27  C   UNL     1      32.310 -14.234 -19.691  0.00  0.00    +0.015 C 
ATOM     28  C   UNL     1      34.424 -14.476 -20.865  0.00  0.00    +0.000 C 
ATOM     29  C   UNL     1      33.535 -14.883 -19.872  0.00  0.00    +0.001 C 
ATOM     30  H   UNL     1      30.120 -12.428 -20.002  0.00  0.00    +0.152 HD
ENDBRANCH   5  22
TORSDOF 2
ENDMDL
MODEL 4
REMARK VINA RESULT:     -10.3     13.603     17.396
REMARK  Name = 11494412
REMARK  2 active torsions:
REMARK  status: ('A' for Active; 'I' for Inactive)
REMARK    1  A    between atoms: C_4  and  C_10
REMARK    2  A    between atoms: C_5  and  C_22
REMARK                            x       y       z     vdW  Elec       q    Type
REMARK                         _______ _______ _______ _____ _____    ______ ____
ROOT
ATOM      1  O   UNL     1      30.241  -5.362 -21.296  0.00  0.00    -0.274 OA
ATOM      2  O   UNL     1      32.790  -8.549 -19.173  0.00  0.00    -0.274 OA
ATOM      3  N   UNL     1      31.465  -6.814 -19.962  0.00  0.00    -0.255 N 
ATOM      4  C   UNL     1      31.323  -7.331 -22.234  0.00  0.00    +0.113 C 
ATOM      5  C   UNL     1      32.320  -8.295 -21.550  0.00  0.00    +0.113 C 
ATOM      6  C   UNL     1      30.928  -6.361 -21.143  0.00  0.00    +0.233 C 
ATOM      7  C   UNL     1      32.241  -7.941 -20.082  0.00  0.00    +0.233 C 
ATOM      8  H   UNL     1      31.306  -6.367 -19.101  0.00  0.00    +0.158 HD
ENDROOT
BRANCH   4  10
ATOM      9  N   UNL     1      32.122  -5.418 -25.227  0.00  0.00    -0.286 N 
ATOM     10  C   UNL     1      31.916  -6.614 -23.380  0.00  0.00    +0.003 C 
ATOM     11  C   UNL     1      33.393  -5.746 -24.832  0.00  0.00    +0.047 C 
ATOM     12  C   UNL     1      33.308  -6.502 -23.678  0.00  0.00    +0.011 C 
ATOM     13  C   UNL     1      31.211  -5.933 -24.357  0.00  0.00    +0.062 C 
ATOM     14  C   UNL     1      31.908  -4.638 -26.434  0.00  0.00    +0.096 C 
ATOM     15  C   UNL     1      34.574  -5.380 -25.476  0.00  0.00    -0.009 C 
ATOM     16  C   UNL     1      33.148  -3.782 -26.776  0.00  0.00    +0.027 C 
ATOM     17  C   UNL     1      34.479  -4.573 -26.738  0.00  0.00    +0.029 C 
ATOM     18  C   UNL     1      34.510  -6.955 -23.104  0.00  0.00    +0.001 C 
ATOM     19  C   UNL     1      35.756  -5.852 -24.902  0.00  0.00    -0.003 C 
ATOM     20  C   UNL     1      35.723  -6.622 -23.733  0.00  0.00    -0.000 C 
ENDBRANCH   4  10
BRANCH   5  22
ATOM     21  N   UNL     1      30.940 -11.674 -21.636  0.00  0.00    -0.312 N 
ATOM     22  C   UNL     1      31.978  -9.717 -21.761  0.00  0.00    +0.003 C 
ATOM     23  C   UNL     1      32.681 -10.645 -22.578  0.00  0.00    +0.011 C 
ATOM     24  C   UNL     1      30.913 -10.378 -21.195  0.00  0.00    +0.058 C 
ATOM     25  C   UNL     1      32.008 -11.866 -22.481  0.00  0.00    +0.048 C 
ATOM     26  C   UNL     1      33.828 -10.566 -23.393  0.00  0.00    +0.001 C 
ATOM     27  C   UNL     1      32.428 -13.015 -23.161  0.00  0.00    +0.015 C 
ATOM     28  C   UNL     1      34.259 -11.707 -24.079  0.00  0.00    +0.000 C 
ATOM     29  C   UNL     1      33.568 -12.912 -23.964  0.00  0.00    +0.001 C 
ATOM     30  H   UNL     1      30.288 -12.368 -21.384  0.00  0.00    +0.152 HD
ENDBRANCH   5  22
TORSDOF 2
ENDMDL
MODEL 5
REMARK VINA RESULT:     -10.1      1.436      1.629
REMARK  Name = 11494412
REMARK  2 active torsions:
REMARK  status: ('A' for Active; 'I' for Inactive)
REMARK    1  A    between atoms: C_4  and  C_10
REMARK    2  A    between atoms: C_5  and  C_22
REMARK                            x       y       z     vdW  Elec       q    Type
REMARK                         _______ _______ _______ _____ _____    ______ ____
ROOT
ATOM      1  O   UNL     1      31.557 -23.283 -14.945  0.00  0.00    -0.274 OA
ATOM      2  O   UNL     1      35.206 -23.406 -12.148  0.00  0.00    -0.274 OA
ATOM      3  N   UNL     1      33.200 -23.264 -13.307  0.00  0.00    -0.255 N 
ATOM      4  C   UNL     1      33.857 -23.898 -15.455  0.00  0.00    +0.113 C 
ATOM      5  C   UNL     1      35.107 -23.766 -14.555  0.00  0.00    +0.113 C 
ATOM      6  C   UNL     1      32.712 -23.444 -14.579  0.00  0.00    +0.233 C 
ATOM      7  C   UNL     1      34.552 -23.468 -13.180  0.00  0.00    +0.233 C 
ATOM      8  H   UNL     1      32.627 -23.009 -12.549  0.00  0.00    +0.158 HD
ENDROOT
BRANCH   4  10
ATOM      9  N   UNL     1      33.387 -22.016 -18.537  0.00  0.00    -0.286 N 
ATOM     10  C   UNL     1      33.941 -23.069 -16.674  0.00  0.00    +0.003 C 
ATOM     11  C   UNL     1      34.714 -21.749 -18.318  0.00  0.00    +0.047 C 
ATOM     12  C   UNL     1      35.102 -22.397 -17.160  0.00  0.00    +0.011 C 
ATOM     13  C   UNL     1      32.898 -22.814 -17.549  0.00  0.00    +0.062 C 
ATOM     14  C   UNL     1      32.714 -21.477 -19.706  0.00  0.00    +0.096 C 
ATOM     15  C   UNL     1      35.536 -20.957 -19.119  0.00  0.00    -0.009 C 
ATOM     16  C   UNL     1      33.415 -20.199 -20.218  0.00  0.00    +0.027 C 
ATOM     17  C   UNL     1      34.950 -20.347 -20.359  0.00  0.00    +0.029 C 
ATOM     18  C   UNL     1      36.442 -22.260 -16.754  0.00  0.00    +0.001 C 
ATOM     19  C   UNL     1      36.865 -20.847 -18.710  0.00  0.00    -0.003 C 
ATOM     20  C   UNL     1      37.309 -21.483 -17.544  0.00  0.00    -0.000 C 
ENDBRANCH   4  10
BRANCH   5  22
ATOM     21  N   UNL     1      36.512 -27.136 -14.512  0.00  0.00    -0.312 N 
ATOM     22  C   UNL     1      35.926 -24.996 -14.529  0.00  0.00    +0.003 C 
ATOM     23  C   UNL     1      37.346 -25.067 -14.482  0.00  0.00    +0.011 C 
ATOM     24  C   UNL     1      35.441 -26.283 -14.547  0.00  0.00    +0.058 C 
ATOM     25  C   UNL     1      37.688 -26.422 -14.473  0.00  0.00    +0.048 C 
ATOM     26  C   UNL     1      38.378 -24.108 -14.446  0.00  0.00    +0.001 C 
ATOM     27  C   UNL     1      39.014 -26.866 -14.429  0.00  0.00    +0.015 C 
ATOM     28  C   UNL     1      39.709 -24.537 -14.402  0.00  0.00    +0.000 C 
ATOM     29  C   UNL     1      40.020 -25.896 -14.394  0.00  0.00    +0.001 C 
ATOM     30  H   UNL     1      36.449 -28.119 -14.517  0.00  0.00    +0.152 HD
ENDBRANCH   5  22
TORSDOF 2
ENDMDL
MODEL 6
REMARK VINA RESULT:     -10.1     13.566     18.135
REMARK  Name = 11494412
REMARK  2 active torsions:
REMARK  status: ('A' for Active; 'I' for Inactive)
REMARK    1  A    between atoms: C_4  and  C_10
REMARK    2  A    between atoms: C_5  and  C_22
REMARK                            x       y       z     vdW  Elec       q    Type
REMARK                         _______ _______ _______ _____ _____    ______ ____
ROOT
ATOM      1  O   UNL     1      33.512  -7.323 -19.905  0.00  0.00    -0.274 OA
ATOM      2  O   UNL     1      30.003  -5.059 -21.834  0.00  0.00    -0.274 OA
ATOM      3  N   UNL     1      31.683  -6.071 -20.592  0.00  0.00    -0.255 N 
ATOM      4  C   UNL     1      32.850  -7.233 -22.246  0.00  0.00    +0.113 C 
ATOM      5  C   UNL     1      31.571  -6.616 -22.859  0.00  0.00    +0.113 C 
ATOM      6  C   UNL     1      32.754  -6.912 -20.772  0.00  0.00    +0.233 C 
ATOM      7  C   UNL     1      30.968  -5.805 -21.735  0.00  0.00    +0.233 C 
ATOM      8  H   UNL     1      31.447  -5.691 -19.716  0.00  0.00    +0.158 HD
ENDROOT
BRANCH   4  10
ATOM      9  N   UNL     1      33.523 -10.661 -23.272  0.00  0.00    -0.286 N 
ATOM     10  C   UNL     1      32.939  -8.692 -22.458  0.00  0.00    +0.003 C 
ATOM     11  C   UNL     1      32.621 -10.906 -22.270  0.00  0.00    +0.047 C 
ATOM     12  C   UNL     1      32.226  -9.695 -21.735  0.00  0.00    +0.011 C 
ATOM     13  C   UNL     1      33.731  -9.323 -23.402  0.00  0.00    +0.062 C 
ATOM     14  C   UNL     1      34.094 -11.762 -24.031  0.00  0.00    +0.096 C 
ATOM     15  C   UNL     1      32.178 -12.161 -21.851  0.00  0.00    -0.009 C 
ATOM     16  C   UNL     1      34.069 -13.076 -23.218  0.00  0.00    +0.027 C 
ATOM     17  C   UNL     1      32.698 -13.376 -22.563  0.00  0.00    +0.029 C 
ATOM     18  C   UNL     1      31.287  -9.719 -20.687  0.00  0.00    +0.001 C 
ATOM     19  C   UNL     1      31.235 -12.164 -20.822  0.00  0.00    -0.003 C 
ATOM     20  C   UNL     1      30.802 -10.964 -20.247  0.00  0.00    -0.000 C 
ENDBRANCH   4  10
BRANCH   5  22
ATOM     21  N   UNL     1      31.578  -4.362 -25.731  0.00  0.00    -0.312 N 
ATOM     22  C   UNL     1      31.853  -5.757 -24.027  0.00  0.00    +0.003 C 
ATOM     23  C   UNL     1      33.122  -5.541 -24.633  0.00  0.00    +0.011 C 
ATOM     24  C   UNL     1      30.924  -5.019 -24.723  0.00  0.00    +0.058 C 
ATOM     25  C   UNL     1      32.921  -4.662 -25.701  0.00  0.00    +0.048 C 
ATOM     26  C   UNL     1      34.426  -6.010 -24.378  0.00  0.00    +0.001 C 
ATOM     27  C   UNL     1      33.962  -4.227 -26.527  0.00  0.00    +0.015 C 
ATOM     28  C   UNL     1      35.478  -5.584 -25.196  0.00  0.00    +0.000 C 
ATOM     29  C   UNL     1      35.247  -4.705 -26.254  0.00  0.00    +0.001 C 
ATOM     30  H   UNL     1      31.149  -3.761 -26.383  0.00  0.00    +0.152 HD
ENDBRANCH   5  22
TORSDOF 2
ENDMDL
MODEL 7
REMARK VINA RESULT:     -10.0      9.400     14.052
REMARK  Name = 11494412
REMARK  2 active torsions:
REMARK  status: ('A' for Active; 'I' for Inactive)
REMARK    1  A    between atoms: C_4  and  C_10
REMARK    2  A    between atoms: C_5  and  C_22
REMARK                            x       y       z     vdW  Elec       q    Type
REMARK                         _______ _______ _______ _____ _____    ______ ____
ROOT
ATOM      1  O   UNL     1      31.988 -13.236 -19.270  0.00  0.00    -0.274 OA
ATOM      2  O   UNL     1      30.326 -10.515 -22.585  0.00  0.00    -0.274 OA
ATOM      3  N   UNL     1      30.886 -11.858 -20.776  0.00  0.00    -0.255 N 
ATOM      4  C   UNL     1      33.113 -12.372 -21.249  0.00  0.00    +0.113 C 
ATOM      5  C   UNL     1      32.499 -11.607 -22.444  0.00  0.00    +0.113 C 
ATOM      6  C   UNL     1      31.958 -12.570 -20.294  0.00  0.00    +0.233 C 
ATOM      7  C   UNL     1      31.109 -11.234 -21.979  0.00  0.00    +0.233 C 
ATOM      8  H   UNL     1      30.028 -11.800 -20.298  0.00  0.00    +0.158 HD
ENDROOT
BRANCH   4  10
ATOM      9  N   UNL     1      34.758 -15.606 -21.547  0.00  0.00    -0.286 N 
ATOM     10  C   UNL     1      33.695 -13.671 -21.640  0.00  0.00    +0.003 C 
ATOM     11  C   UNL     1      34.312 -15.469 -22.835  0.00  0.00    +0.047 C 
ATOM     12  C   UNL     1      33.642 -14.263 -22.938  0.00  0.00    +0.011 C 
ATOM     13  C   UNL     1      34.392 -14.526 -20.804  0.00  0.00    +0.062 C 
ATOM     14  C   UNL     1      35.520 -16.781 -21.156  0.00  0.00    +0.096 C 
ATOM     15  C   UNL     1      34.493 -16.386 -23.870  0.00  0.00    -0.009 C 
ATOM     16  C   UNL     1      35.211 -17.982 -22.077  0.00  0.00    +0.027 C 
ATOM     17  C   UNL     1      35.269 -17.639 -23.586  0.00  0.00    +0.029 C 
ATOM     18  C   UNL     1      33.106 -13.919 -24.191  0.00  0.00    +0.001 C 
ATOM     19  C   UNL     1      33.968 -16.019 -25.111  0.00  0.00    -0.003 C 
ATOM     20  C   UNL     1      33.282 -14.809 -25.267  0.00  0.00    -0.000 C 
ENDBRANCH   4  10
BRANCH   5  22
ATOM     21  N   UNL     1      34.724  -9.046 -23.793  0.00  0.00    -0.312 N 
ATOM     22  C   UNL     1      33.268 -10.398 -22.806  0.00  0.00    +0.003 C 
ATOM     23  C   UNL     1      33.118  -9.100 -22.246  0.00  0.00    +0.011 C 
ATOM     24  C   UNL     1      34.261 -10.334 -23.755  0.00  0.00    +0.058 C 
ATOM     25  C   UNL     1      34.044  -8.270 -22.883  0.00  0.00    +0.048 C 
ATOM     26  C   UNL     1      32.283  -8.547 -21.254  0.00  0.00    +0.001 C 
ATOM     27  C   UNL     1      34.177  -6.911 -22.576  0.00  0.00    +0.015 C 
ATOM     28  C   UNL     1      32.404  -7.190 -20.937  0.00  0.00    +0.000 C 
ATOM     29  C   UNL     1      33.337  -6.386 -21.590  0.00  0.00    +0.001 C 
ATOM     30  H   UNL     1      35.440  -8.722 -24.388  0.00  0.00    +0.152 HD
ENDBRANCH   5  22
TORSDOF 2
ENDMDL
MODEL 8
REMARK VINA RESULT:     -10.0     14.421     17.791
REMARK  Name = 11494412
REMARK  2 active torsions:
REMARK  status: ('A' for Active; 'I' for Inactive)
REMARK    1  A    between atoms: C_4  and  C_10
REMARK    2  A    between atoms: C_5  and  C_22
REMARK                            x       y       z     vdW  Elec       q    Type
REMARK                         _______ _______ _______ _____ _____    ______ ____
ROOT
ATOM      1  O   UNL     1      36.004  -7.290 -23.042  0.00  0.00    -0.274 OA
ATOM      2  O   UNL     1      34.187 -11.388 -24.069  0.00  0.00    -0.274 OA
ATOM      3  N   UNL     1      35.380  -9.449 -23.617  0.00  0.00    -0.255 N 
ATOM      4  C   UNL     1      33.680  -8.006 -22.928  0.00  0.00    +0.113 C 
ATOM      5  C   UNL     1      33.056  -9.324 -23.442  0.00  0.00    +0.113 C 
ATOM      6  C   UNL     1      35.160  -8.160 -23.194  0.00  0.00    +0.233 C 
ATOM      7  C   UNL     1      34.243 -10.209 -23.748  0.00  0.00    +0.233 C 
ATOM      8  H   UNL     1      36.278  -9.799 -23.811  0.00  0.00    +0.158 HD
ENDROOT
BRANCH   4  10
ATOM      9  N   UNL     1      32.684  -5.337 -25.196  0.00  0.00    -0.286 N 
ATOM     10  C   UNL     1      33.148  -6.814 -23.619  0.00  0.00    +0.003 C 
ATOM     11  C   UNL     1      32.098  -4.876 -24.046  0.00  0.00    +0.047 C 
ATOM     12  C   UNL     1      32.370  -5.773 -23.029  0.00  0.00    +0.011 C 
ATOM     13  C   UNL     1      33.325  -6.514 -24.959  0.00  0.00    +0.062 C 
ATOM     14  C   UNL     1      32.578  -4.576 -26.429  0.00  0.00    +0.096 C 
ATOM     15  C   UNL     1      31.349  -3.707 -23.917  0.00  0.00    -0.009 C 
ATOM     16  C   UNL     1      31.328  -3.667 -26.422  0.00  0.00    +0.027 C 
ATOM     17  C   UNL     1      31.173  -2.834 -25.125  0.00  0.00    +0.029 C 
ATOM     18  C   UNL     1      31.862  -5.482 -21.750  0.00  0.00    +0.001 C 
ATOM     19  C   UNL     1      30.868  -3.427 -22.636  0.00  0.00    -0.003 C 
ATOM     20  C   UNL     1      31.116  -4.303 -21.573  0.00  0.00    -0.000 C 
ENDBRANCH   4  10
BRANCH   5  22
ATOM     21  N   UNL     1      30.697 -11.334 -21.511  0.00  0.00    -0.312 N 
ATOM     22  C   UNL     1      32.172  -9.965 -22.446  0.00  0.00    +0.003 C 
ATOM     23  C   UNL     1      32.019  -9.588 -21.083  0.00  0.00    +0.011 C 
ATOM     24  C   UNL     1      31.349 -11.041 -22.680  0.00  0.00    +0.058 C 
ATOM     25  C   UNL     1      31.087 -10.464 -20.519  0.00  0.00    +0.048 C 
ATOM     26  C   UNL     1      32.583  -8.584 -20.271  0.00  0.00    +0.001 C 
ATOM     27  C   UNL     1      30.691 -10.385 -19.180  0.00  0.00    +0.015 C 
ATOM     28  C   UNL     1      32.196  -8.492 -18.930  0.00  0.00    +0.000 C 
ATOM     29  C   UNL     1      31.264  -9.380 -18.394  0.00  0.00    +0.001 C 
ATOM     30  H   UNL     1      30.046 -12.064 -21.397  0.00  0.00    +0.152 HD
ENDBRANCH   5  22
TORSDOF 2
ENDMDL
MODEL 9
REMARK VINA RESULT:      -9.8      2.242      4.599
REMARK  Name = 11494412
REMARK  2 active torsions:
REMARK  status: ('A' for Active; 'I' for Inactive)
REMARK    1  A    between atoms: C_4  and  C_10
REMARK    2  A    between atoms: C_5  and  C_22
REMARK                            x       y       z     vdW  Elec       q    Type
REMARK                         _______ _______ _______ _____ _____    ______ ____
ROOT
ATOM      1  O   UNL     1      38.832 -23.199 -15.301  0.00  0.00    -0.274 OA
ATOM      2  O   UNL     1      35.720 -26.507 -14.578  0.00  0.00    -0.274 OA
ATOM      3  N   UNL     1      37.505 -25.059 -14.898  0.00  0.00    -0.255 N 
ATOM      4  C   UNL     1      36.404 -23.027 -15.227  0.00  0.00    +0.113 C 
ATOM      5  C   UNL     1      35.364 -24.169 -15.161  0.00  0.00    +0.113 C 
ATOM      6  C   UNL     1      37.741 -23.731 -15.160  0.00  0.00    +0.233 C 
ATOM      7  C   UNL     1      36.177 -25.402 -14.835  0.00  0.00    +0.233 C 
ATOM      8  H   UNL     1      38.229 -25.712 -14.767  0.00  0.00    +0.158 HD
ENDROOT
BRANCH   4  10
ATOM      9  N   UNL     1      36.764 -20.801 -18.086  0.00  0.00    -0.286 N 
ATOM     10  C   UNL     1      36.298 -22.229 -16.465  0.00  0.00    +0.003 C 
ATOM     11  C   UNL     1      35.546 -21.351 -18.390  0.00  0.00    +0.047 C 
ATOM     12  C   UNL     1      35.214 -22.251 -17.393  0.00  0.00    +0.011 C 
ATOM     13  C   UNL     1      37.239 -21.322 -16.922  0.00  0.00    +0.062 C 
ATOM     14  C   UNL     1      37.353 -19.798 -18.957  0.00  0.00    +0.096 C 
ATOM     15  C   UNL     1      34.771 -21.063 -19.513  0.00  0.00    -0.009 C 
ATOM     16  C   UNL     1      36.819 -19.925 -20.401  0.00  0.00    +0.027 C 
ATOM     17  C   UNL     1      35.276 -20.038 -20.486  0.00  0.00    +0.029 C 
ATOM     18  C   UNL     1      33.987 -22.927 -17.507  0.00  0.00    +0.001 C 
ATOM     19  C   UNL     1      33.548 -21.732 -19.600  0.00  0.00    -0.003 C 
ATOM     20  C   UNL     1      33.166 -22.652 -18.617  0.00  0.00    -0.000 C 
ENDBRANCH   4  10
BRANCH   5  22
ATOM     21  N   UNL     1      33.350 -23.591 -12.171  0.00  0.00    -0.312 N 
ATOM     22  C   UNL     1      34.329 -23.941 -14.131  0.00  0.00    +0.003 C 
ATOM     23  C   UNL     1      32.926 -23.852 -14.346  0.00  0.00    +0.011 C 
ATOM     24  C   UNL     1      34.559 -23.776 -12.786  0.00  0.00    +0.058 C 
ATOM     25  C   UNL     1      32.334 -23.632 -13.099  0.00  0.00    +0.048 C 
ATOM     26  C   UNL     1      32.098 -23.938 -15.483  0.00  0.00    +0.001 C 
ATOM     27  C   UNL     1      30.952 -23.492 -12.933  0.00  0.00    +0.015 C 
ATOM     28  C   UNL     1      30.714 -23.800 -15.332  0.00  0.00    +0.000 C 
ATOM     29  C   UNL     1      30.151 -23.581 -14.076  0.00  0.00    +0.001 C 
ATOM     30  H   UNL     1      33.225 -23.447 -11.205  0.00  0.00    +0.152 HD
ENDBRANCH   5  22
TORSDOF 2
ENDMDL
