MODEL 1
REMARK VINA RESULT:     -11.0      0.000      0.000
REMARK  Name = 5326928
REMARK  3 active torsions:
REMARK  status: ('A' for Active; 'I' for Inactive)
REMARK    1  A    between atoms: C_7  and  C_21
REMARK    2  A    between atoms: C_21  and  C_22
REMARK    3  A    between atoms: C_22  and  C_23
REMARK                            x       y       z     vdW  Elec       q    Type
REMARK                         _______ _______ _______ _____ _____    ______ ____
ROOT
ATOM      1  O   UNL     1      28.579 -25.636 -13.623  0.00  0.00    -0.209 OA
ATOM      2  N   UNL     1      29.864 -23.112 -16.454  0.00  0.00    -0.275 N 
ATOM      3  N   UNL     1      33.763 -24.994 -13.060  0.00  0.00    -0.315 N 
ATOM      4  N   UNL     1      34.445 -23.592 -14.643  0.00  0.00    -0.316 N 
ATOM      5  N   UNL     1      28.085 -24.308 -15.421  0.00  0.00    -0.302 NA
ATOM      6  N   UNL     1      27.730 -22.912 -17.270  0.00  0.00    -0.320 N 
ATOM      7  C   UNL     1      32.169 -23.253 -15.668  0.00  0.00    +0.007 C 
ATOM      8  C   UNL     1      30.818 -23.619 -15.565  0.00  0.00    +0.060 C 
ATOM      9  C   UNL     1      33.088 -23.791 -14.751  0.00  0.00    +0.056 C 
ATOM     10  C   UNL     1      32.635 -24.667 -13.769  0.00  0.00    +0.060 C 
ATOM     11  C   UNL     1      30.401 -24.506 -14.561  0.00  0.00    +0.109 C 
ATOM     12  C   UNL     1      31.301 -25.053 -13.636  0.00  0.00    +0.029 C 
ATOM     13  C   UNL     1      28.953 -24.861 -14.498  0.00  0.00    +0.208 C 
ATOM     14  C   UNL     1      34.817 -24.328 -13.620  0.00  0.00    +0.182 C 
ATOM     15  C   UNL     1      28.547 -23.489 -16.329  0.00  0.00    +0.248 C 
ATOM     16  H   UNL     1      30.135 -22.488 -17.166  0.00  0.00    +0.156 HD
ATOM     17  H   UNL     1      33.805 -25.601 -12.286  0.00  0.00    +0.148 HD
ATOM     18  H   UNL     1      35.014 -23.022 -15.209  0.00  0.00    +0.148 HD
ATOM     19  H   UNL     1      28.109 -22.299 -17.940  0.00  0.00    +0.146 HD
ATOM     20  H   UNL     1      26.766 -23.111 -17.274  0.00  0.00    +0.146 HD
ENDROOT
BRANCH   7  21
ATOM     21  C   UNL     1      32.622 -22.307 -16.737  0.00  0.00    +0.034 C 
BRANCH  21  22
ATOM     22  C   UNL     1      33.496 -22.964 -17.820  0.00  0.00    +0.031 C 
BRANCH  22  23
ATOM     23  C   UNL     1      34.123 -21.967 -18.765  0.00  0.00    -0.022 C 
ATOM     24  C   UNL     1      35.502 -21.942 -18.910  0.00  0.00    -0.004 C 
ATOM     25  C   UNL     1      33.309 -21.094 -19.470  0.00  0.00    -0.004 C 
ATOM     26  C   UNL     1      36.081 -21.022 -19.782  0.00  0.00    -0.000 C 
ATOM     27  C   UNL     1      33.889 -20.173 -20.343  0.00  0.00    -0.000 C 
ATOM     28  C   UNL     1      35.274 -20.136 -20.499  0.00  0.00    -0.000 C 
ENDBRANCH  22  23
ENDBRANCH  21  22
ENDBRANCH   7  21
TORSDOF 3
ENDMDL
MODEL 2
REMARK VINA RESULT:     -11.0      1.838      4.287
REMARK  Name = 5326928
REMARK  3 active torsions:
REMARK  status: ('A' for Active; 'I' for Inactive)
REMARK    1  A    between atoms: C_7  and  C_21
REMARK    2  A    between atoms: C_21  and  C_22
REMARK    3  A    between atoms: C_22  and  C_23
REMARK                            x       y       z     vdW  Elec       q    Type
REMARK                         _______ _______ _______ _____ _____    ______ ____
ROOT
ATOM      1  O   UNL     1      34.889 -24.929 -11.633  0.00  0.00    -0.209 OA
ATOM      2  N   UNL     1      34.797 -22.958 -15.118  0.00  0.00    -0.275 N 
ATOM      3  N   UNL     1      30.043 -25.295 -13.630  0.00  0.00    -0.315 N 
ATOM      4  N   UNL     1      30.024 -24.193 -15.559  0.00  0.00    -0.316 N 
ATOM      5  N   UNL     1      36.002 -23.684 -13.199  0.00  0.00    -0.302 NA
ATOM      6  N   UNL     1      37.009 -22.402 -14.883  0.00  0.00    -0.320 N 
ATOM      7  C   UNL     1      32.442 -23.492 -15.467  0.00  0.00    +0.007 C 
ATOM      8  C   UNL     1      33.612 -23.570 -14.695  0.00  0.00    +0.060 C 
ATOM      9  C   UNL     1      31.278 -24.124 -14.998  0.00  0.00    +0.056 C 
ATOM     10  C   UNL     1      31.316 -24.808 -13.786  0.00  0.00    +0.060 C 
ATOM     11  C   UNL     1      33.610 -24.270 -13.478  0.00  0.00    +0.109 C 
ATOM     12  C   UNL     1      32.460 -24.907 -12.993  0.00  0.00    +0.029 C 
ATOM     13  C   UNL     1      34.881 -24.320 -12.699  0.00  0.00    +0.208 C 
ATOM     14  C   UNL     1      29.309 -24.900 -14.714  0.00  0.00    +0.182 C 
ATOM     15  C   UNL     1      35.927 -23.052 -14.341  0.00  0.00    +0.248 C 
ATOM     16  H   UNL     1      34.820 -22.463 -15.969  0.00  0.00    +0.156 HD
ATOM     17  H   UNL     1      29.717 -25.832 -12.873  0.00  0.00    +0.148 HD
ATOM     18  H   UNL     1      29.726 -23.797 -16.410  0.00  0.00    +0.148 HD
ATOM     19  H   UNL     1      36.920 -21.936 -15.745  0.00  0.00    +0.146 HD
ATOM     20  H   UNL     1      37.872 -22.405 -14.411  0.00  0.00    +0.146 HD
ENDROOT
BRANCH   7  21
ATOM     21  C   UNL     1      32.436 -22.748 -16.766  0.00  0.00    +0.034 C 
BRANCH  21  22
ATOM     22  C   UNL     1      33.507 -23.227 -17.762  0.00  0.00    +0.031 C 
BRANCH  22  23
ATOM     23  C   UNL     1      34.002 -22.132 -18.676  0.00  0.00    -0.022 C 
ATOM     24  C   UNL     1      35.367 -21.943 -18.834  0.00  0.00    -0.004 C 
ATOM     25  C   UNL     1      33.084 -21.333 -19.340  0.00  0.00    -0.004 C 
ATOM     26  C   UNL     1      35.824 -20.932 -19.678  0.00  0.00    -0.000 C 
ATOM     27  C   UNL     1      33.542 -20.321 -20.185  0.00  0.00    -0.000 C 
ATOM     28  C   UNL     1      34.912 -20.121 -20.354  0.00  0.00    -0.000 C 
ENDBRANCH  22  23
ENDBRANCH  21  22
ENDBRANCH   7  21
TORSDOF 3
ENDMDL
MODEL 3
REMARK VINA RESULT:     -10.9      3.080      5.519
REMARK  Name = 5326928
REMARK  3 active torsions:
REMARK  status: ('A' for Active; 'I' for Inactive)
REMARK    1  A    between atoms: C_7  and  C_21
REMARK    2  A    between atoms: C_21  and  C_22
REMARK    3  A    between atoms: C_22  and  C_23
REMARK                            x       y       z     vdW  Elec       q    Type
REMARK                         _______ _______ _______ _____ _____    ______ ____
ROOT
ATOM      1  O   UNL     1      36.893 -26.078 -11.405  0.00  0.00    -0.209 OA
ATOM      2  N   UNL     1      37.531 -24.309 -14.941  0.00  0.00    -0.275 N 
ATOM      3  N   UNL     1      32.504 -23.566 -12.831  0.00  0.00    -0.315 N 
ATOM      4  N   UNL     1      32.890 -22.596 -14.792  0.00  0.00    -0.316 N 
ATOM      5  N   UNL     1      38.325 -25.644 -13.138  0.00  0.00    -0.302 NA
ATOM      6  N   UNL     1      39.677 -25.117 -14.978  0.00  0.00    -0.320 N 
ATOM      7  C   UNL     1      35.268 -23.399 -15.001  0.00  0.00    +0.007 C 
ATOM      8  C   UNL     1      36.267 -24.150 -14.362  0.00  0.00    +0.060 C 
ATOM      9  C   UNL     1      34.016 -23.268 -14.378  0.00  0.00    +0.056 C 
ATOM     10  C   UNL     1      33.800 -23.886 -13.149  0.00  0.00    +0.060 C 
ATOM     11  C   UNL     1      36.011 -24.757 -13.123  0.00  0.00    +0.109 C 
ATOM     12  C   UNL     1      34.768 -24.640 -12.485  0.00  0.00    +0.029 C 
ATOM     13  C   UNL     1      37.108 -25.543 -12.489  0.00  0.00    +0.208 C 
ATOM     14  C   UNL     1      32.004 -22.794 -13.842  0.00  0.00    +0.182 C 
ATOM     15  C   UNL     1      38.490 -25.051 -14.291  0.00  0.00    +0.248 C 
ATOM     16  H   UNL     1      37.732 -23.892 -15.810  0.00  0.00    +0.156 HD
ATOM     17  H   UNL     1      32.022 -23.843 -12.019  0.00  0.00    +0.148 HD
ATOM     18  H   UNL     1      32.773 -22.077 -15.621  0.00  0.00    +0.148 HD
ATOM     19  H   UNL     1      39.769 -24.659 -15.845  0.00  0.00    +0.146 HD
ATOM     20  H   UNL     1      40.434 -25.623 -14.606  0.00  0.00    +0.146 HD
ENDROOT
BRANCH   7  21
ATOM     21  C   UNL     1      35.535 -22.748 -16.323  0.00  0.00    +0.034 C 
BRANCH  21  22
ATOM     22  C   UNL     1      34.457 -23.030 -17.384  0.00  0.00    +0.031 C 
BRANCH  22  23
ATOM     23  C   UNL     1      34.417 -21.996 -18.483  0.00  0.00    -0.022 C 
ATOM     24  C   UNL     1      35.606 -21.557 -19.046  0.00  0.00    -0.004 C 
ATOM     25  C   UNL     1      33.194 -21.503 -18.909  0.00  0.00    -0.004 C 
ATOM     26  C   UNL     1      35.570 -20.601 -20.061  0.00  0.00    -0.000 C 
ATOM     27  C   UNL     1      33.158 -20.547 -19.925  0.00  0.00    -0.000 C 
ATOM     28  C   UNL     1      34.345 -20.096 -20.501  0.00  0.00    -0.000 C 
ENDBRANCH  22  23
ENDBRANCH  21  22
ENDBRANCH   7  21
TORSDOF 3
ENDMDL
MODEL 4
REMARK VINA RESULT:     -10.6      1.516      2.139
REMARK  Name = 5326928
REMARK  3 active torsions:
REMARK  status: ('A' for Active; 'I' for Inactive)
REMARK    1  A    between atoms: C_7  and  C_21
REMARK    2  A    between atoms: C_21  and  C_22
REMARK    3  A    between atoms: C_22  and  C_23
REMARK                            x       y       z     vdW  Elec       q    Type
REMARK                         _______ _______ _______ _____ _____    ______ ____
ROOT
ATOM      1  O   UNL     1      30.819 -23.656 -12.210  0.00  0.00    -0.209 OA
ATOM      2  N   UNL     1      31.475 -23.145 -16.128  0.00  0.00    -0.275 N 
ATOM      3  N   UNL     1      35.955 -24.263 -13.136  0.00  0.00    -0.315 N 
ATOM      4  N   UNL     1      36.286 -23.975 -15.314  0.00  0.00    -0.316 N 
ATOM      5  N   UNL     1      29.967 -23.210 -14.288  0.00  0.00    -0.302 NA
ATOM      6  N   UNL     1      29.239 -22.766 -16.471  0.00  0.00    -0.320 N 
ATOM      7  C   UNL     1      33.870 -23.534 -15.874  0.00  0.00    +0.007 C 
ATOM      8  C   UNL     1      32.583 -23.432 -15.324  0.00  0.00    +0.060 C 
ATOM      9  C   UNL     1      34.950 -23.824 -15.024  0.00  0.00    +0.056 C 
ATOM     10  C   UNL     1      34.715 -24.000 -13.663  0.00  0.00    +0.060 C 
ATOM     11  C   UNL     1      32.388 -23.616 -13.946  0.00  0.00    +0.109 C 
ATOM     12  C   UNL     1      33.452 -23.905 -13.080  0.00  0.00    +0.029 C 
ATOM     13  C   UNL     1      31.000 -23.496 -13.414  0.00  0.00    +0.208 C 
ATOM     14  C   UNL     1      36.859 -24.237 -14.161  0.00  0.00    +0.182 C 
ATOM     15  C   UNL     1      30.226 -23.051 -15.559  0.00  0.00    +0.248 C 
ATOM     16  H   UNL     1      31.590 -23.011 -17.097  0.00  0.00    +0.156 HD
ATOM     17  H   UNL     1      36.156 -24.438 -12.189  0.00  0.00    +0.148 HD
ATOM     18  H   UNL     1      36.720 -23.902 -16.195  0.00  0.00    +0.148 HD
ATOM     19  H   UNL     1      29.467 -22.652 -17.422  0.00  0.00    +0.146 HD
ATOM     20  H   UNL     1      28.306 -22.675 -16.174  0.00  0.00    +0.146 HD
ENDROOT
BRANCH   7  21
ATOM     21  C   UNL     1      34.086 -23.338 -17.343  0.00  0.00    +0.034 C 
BRANCH  21  22
ATOM     22  C   UNL     1      35.194 -22.325 -17.680  0.00  0.00    +0.031 C 
BRANCH  22  23
ATOM     23  C   UNL     1      34.850 -21.432 -18.847  0.00  0.00    -0.022 C 
ATOM     24  C   UNL     1      33.521 -21.257 -19.200  0.00  0.00    -0.004 C 
ATOM     25  C   UNL     1      35.869 -20.804 -19.546  0.00  0.00    -0.004 C 
ATOM     26  C   UNL     1      33.203 -20.432 -20.279  0.00  0.00    -0.000 C 
ATOM     27  C   UNL     1      35.551 -19.979 -20.625  0.00  0.00    -0.000 C 
ATOM     28  C   UNL     1      34.218 -19.793 -20.992  0.00  0.00    -0.000 C 
ENDBRANCH  22  23
ENDBRANCH  21  22
ENDBRANCH   7  21
TORSDOF 3
ENDMDL
MODEL 5
REMARK VINA RESULT:      -9.9      3.337      6.110
REMARK  Name = 5326928
REMARK  3 active torsions:
REMARK  status: ('A' for Active; 'I' for Inactive)
REMARK    1  A    between atoms: C_7  and  C_21
REMARK    2  A    between atoms: C_21  and  C_22
REMARK    3  A    between atoms: C_22  and  C_23
REMARK                            x       y       z     vdW  Elec       q    Type
REMARK                         _______ _______ _______ _____ _____    ______ ____
ROOT
ATOM      1  O   UNL     1      37.208 -21.964 -17.055  0.00  0.00    -0.209 OA
ATOM      2  N   UNL     1      33.626 -23.401 -15.986  0.00  0.00    -0.275 N 
ATOM      3  N   UNL     1      37.558 -23.849 -12.164  0.00  0.00    -0.315 N 
ATOM      4  N   UNL     1      35.558 -24.636 -11.600  0.00  0.00    -0.316 N 
ATOM      5  N   UNL     1      35.020 -22.354 -17.605  0.00  0.00    -0.302 NA
ATOM      6  N   UNL     1      32.762 -22.815 -18.028  0.00  0.00    -0.320 N 
ATOM      7  C   UNL     1      34.443 -24.064 -13.785  0.00  0.00    +0.007 C 
ATOM      8  C   UNL     1      34.660 -23.491 -15.048  0.00  0.00    +0.060 C 
ATOM      9  C   UNL     1      35.514 -24.131 -12.878  0.00  0.00    +0.056 C 
ATOM     10  C   UNL     1      36.757 -23.630 -13.256  0.00  0.00    +0.060 C 
ATOM     11  C   UNL     1      35.928 -22.997 -15.391  0.00  0.00    +0.109 C 
ATOM     12  C   UNL     1      37.011 -23.055 -14.502  0.00  0.00    +0.029 C 
ATOM     13  C   UNL     1      36.103 -22.399 -16.746  0.00  0.00    +0.208 C 
ATOM     14  C   UNL     1      36.796 -24.451 -11.201  0.00  0.00    +0.182 C 
ATOM     15  C   UNL     1      33.869 -22.835 -17.216  0.00  0.00    +0.248 C 
ATOM     16  H   UNL     1      32.729 -23.742 -15.766  0.00  0.00    +0.156 HD
ATOM     17  H   UNL     1      38.510 -23.613 -12.087  0.00  0.00    +0.148 HD
ATOM     18  H   UNL     1      34.821 -25.048 -11.093  0.00  0.00    +0.148 HD
ATOM     19  H   UNL     1      31.909 -23.185 -17.704  0.00  0.00    +0.146 HD
ATOM     20  H   UNL     1      32.821 -22.432 -18.932  0.00  0.00    +0.146 HD
ENDROOT
BRANCH   7  21
ATOM     21  C   UNL     1      33.093 -24.593 -13.412  0.00  0.00    +0.034 C 
BRANCH  21  22
ATOM     22  C   UNL     1      32.052 -23.497 -13.124  0.00  0.00    +0.031 C 
BRANCH  22  23
ATOM     23  C   UNL     1      30.783 -23.655 -13.927  0.00  0.00    -0.022 C 
ATOM     24  C   UNL     1      30.110 -24.867 -13.902  0.00  0.00    -0.004 C 
ATOM     25  C   UNL     1      30.314 -22.588 -14.676  0.00  0.00    -0.004 C 
ATOM     26  C   UNL     1      28.938 -25.014 -14.642  0.00  0.00    -0.000 C 
ATOM     27  C   UNL     1      29.141 -22.734 -15.417  0.00  0.00    -0.000 C 
ATOM     28  C   UNL     1      28.453 -23.947 -15.401  0.00  0.00    -0.000 C 
ENDBRANCH  22  23
ENDBRANCH  21  22
ENDBRANCH   7  21
TORSDOF 3
ENDMDL
MODEL 6
REMARK VINA RESULT:      -9.9      1.677      2.142
REMARK  Name = 5326928
REMARK  3 active torsions:
REMARK  status: ('A' for Active; 'I' for Inactive)
REMARK    1  A    between atoms: C_7  and  C_21
REMARK    2  A    between atoms: C_21  and  C_22
REMARK    3  A    between atoms: C_22  and  C_23
REMARK                            x       y       z     vdW  Elec       q    Type
REMARK                         _______ _______ _______ _____ _____    ______ ____
ROOT
ATOM      1  O   UNL     1      30.798 -23.671 -12.146  0.00  0.00    -0.209 OA
ATOM      2  N   UNL     1      31.941 -23.197 -15.955  0.00  0.00    -0.275 N 
ATOM      3  N   UNL     1      35.863 -25.007 -12.548  0.00  0.00    -0.315 N 
ATOM      4  N   UNL     1      36.466 -24.735 -14.669  0.00  0.00    -0.316 N 
ATOM      5  N   UNL     1      30.249 -23.070 -14.287  0.00  0.00    -0.302 NA
ATOM      6  N   UNL     1      29.834 -22.489 -16.519  0.00  0.00    -0.320 N 
ATOM      7  C   UNL     1      34.213 -23.936 -15.465  0.00  0.00    +0.007 C 
ATOM      8  C   UNL     1      32.903 -23.656 -15.049  0.00  0.00    +0.060 C 
ATOM      9  C   UNL     1      35.142 -24.395 -14.515  0.00  0.00    +0.056 C 
ATOM     10  C   UNL     1      34.738 -24.558 -13.193  0.00  0.00    +0.060 C 
ATOM     11  C   UNL     1      32.535 -23.832 -13.706  0.00  0.00    +0.109 C 
ATOM     12  C   UNL     1      33.446 -24.288 -12.743  0.00  0.00    +0.029 C 
ATOM     13  C   UNL     1      31.129 -23.519 -13.319  0.00  0.00    +0.208 C 
ATOM     14  C   UNL     1      36.867 -25.097 -13.471  0.00  0.00    +0.182 C 
ATOM     15  C   UNL     1      30.665 -22.930 -15.518  0.00  0.00    +0.248 C 
ATOM     16  H   UNL     1      32.178 -23.065 -16.902  0.00  0.00    +0.156 HD
ATOM     17  H   UNL     1      35.933 -25.226 -11.591  0.00  0.00    +0.148 HD
ATOM     18  H   UNL     1      36.999 -24.712 -15.497  0.00  0.00    +0.148 HD
ATOM     19  H   UNL     1      30.177 -22.394 -17.436  0.00  0.00    +0.146 HD
ATOM     20  H   UNL     1      28.896 -22.267 -16.318  0.00  0.00    +0.146 HD
ENDROOT
BRANCH   7  21
ATOM     21  C   UNL     1      34.613 -23.750 -16.896  0.00  0.00    +0.034 C 
BRANCH  21  22
ATOM     22  C   UNL     1      35.322 -22.413 -17.175  0.00  0.00    +0.031 C 
BRANCH  22  23
ATOM     23  C   UNL     1      34.777 -21.691 -18.383  0.00  0.00    -0.022 C 
ATOM     24  C   UNL     1      35.658 -21.118 -19.288  0.00  0.00    -0.004 C 
ATOM     25  C   UNL     1      33.405 -21.613 -18.567  0.00  0.00    -0.004 C 
ATOM     26  C   UNL     1      35.154 -20.452 -20.404  0.00  0.00    -0.000 C 
ATOM     27  C   UNL     1      32.901 -20.946 -19.684  0.00  0.00    -0.000 C 
ATOM     28  C   UNL     1      33.775 -20.365 -20.603  0.00  0.00    -0.000 C 
ENDBRANCH  22  23
ENDBRANCH  21  22
ENDBRANCH   7  21
TORSDOF 3
ENDMDL
MODEL 7
REMARK VINA RESULT:      -9.7      2.965      4.351
REMARK  Name = 5326928
REMARK  3 active torsions:
REMARK  status: ('A' for Active; 'I' for Inactive)
REMARK    1  A    between atoms: C_7  and  C_21
REMARK    2  A    between atoms: C_21  and  C_22
REMARK    3  A    between atoms: C_22  and  C_23
REMARK                            x       y       z     vdW  Elec       q    Type
REMARK                         _______ _______ _______ _____ _____    ______ ____
ROOT
ATOM      1  O   UNL     1      34.570 -25.060 -11.205  0.00  0.00    -0.209 OA
ATOM      2  N   UNL     1      34.098 -22.820 -14.491  0.00  0.00    -0.275 N 
ATOM      3  N   UNL     1      39.135 -24.922 -13.801  0.00  0.00    -0.315 N 
ATOM      4  N   UNL     1      38.842 -23.675 -15.616  0.00  0.00    -0.316 N 
ATOM      5  N   UNL     1      33.193 -23.777 -12.510  0.00  0.00    -0.302 NA
ATOM      6  N   UNL     1      31.903 -22.444 -13.942  0.00  0.00    -0.320 N 
ATOM      7  C   UNL     1      36.417 -23.156 -15.169  0.00  0.00    +0.007 C 
ATOM      8  C   UNL     1      35.362 -23.377 -14.271  0.00  0.00    +0.060 C 
ATOM      9  C   UNL     1      37.668 -23.739 -14.902  0.00  0.00    +0.056 C 
ATOM     10  C   UNL     1      37.825 -24.516 -13.758  0.00  0.00    +0.060 C 
ATOM     11  C   UNL     1      35.561 -24.167 -13.127  0.00  0.00    +0.109 C 
ATOM     12  C   UNL     1      36.801 -24.757 -12.842  0.00  0.00    +0.029 C 
ATOM     13  C   UNL     1      34.405 -24.370 -12.207  0.00  0.00    +0.208 C 
ATOM     14  C   UNL     1      39.700 -24.394 -14.929  0.00  0.00    +0.182 C 
ATOM     15  C   UNL     1      33.083 -23.054 -13.593  0.00  0.00    +0.248 C 
ATOM     16  H   UNL     1      33.937 -22.262 -15.286  0.00  0.00    +0.156 HD
ATOM     17  H   UNL     1      39.588 -25.491 -13.138  0.00  0.00    +0.148 HD
ATOM     18  H   UNL     1      39.004 -23.194 -16.460  0.00  0.00    +0.148 HD
ATOM     19  H   UNL     1      31.853 -21.906 -14.764  0.00  0.00    +0.146 HD
ATOM     20  H   UNL     1      31.109 -22.544 -13.370  0.00  0.00    +0.146 HD
ENDROOT
BRANCH   7  21
ATOM     21  C   UNL     1      36.212 -22.315 -16.390  0.00  0.00    +0.034 C 
BRANCH  21  22
ATOM     22  C   UNL     1      35.087 -22.817 -17.312  0.00  0.00    +0.031 C 
BRANCH  22  23
ATOM     23  C   UNL     1      34.779 -21.872 -18.447  0.00  0.00    -0.022 C 
ATOM     24  C   UNL     1      35.822 -21.231 -19.100  0.00  0.00    -0.004 C 
ATOM     25  C   UNL     1      33.460 -21.658 -18.816  0.00  0.00    -0.004 C 
ATOM     26  C   UNL     1      35.538 -20.358 -20.149  0.00  0.00    -0.000 C 
ATOM     27  C   UNL     1      33.176 -20.784 -19.865  0.00  0.00    -0.000 C 
ATOM     28  C   UNL     1      34.214 -20.134 -20.532  0.00  0.00    -0.000 C 
ENDBRANCH  22  23
ENDBRANCH  21  22
ENDBRANCH   7  21
TORSDOF 3
ENDMDL
MODEL 8
REMARK VINA RESULT:      -9.7      3.333      6.287
REMARK  Name = 5326928
REMARK  3 active torsions:
REMARK  status: ('A' for Active; 'I' for Inactive)
REMARK    1  A    between atoms: C_7  and  C_21
REMARK    2  A    between atoms: C_21  and  C_22
REMARK    3  A    between atoms: C_22  and  C_23
REMARK                            x       y       z     vdW  Elec       q    Type
REMARK                         _______ _______ _______ _____ _____    ______ ____
ROOT
ATOM      1  O   UNL     1      37.096 -20.681 -19.005  0.00  0.00    -0.209 OA
ATOM      2  N   UNL     1      33.634 -22.397 -17.950  0.00  0.00    -0.275 N 
ATOM      3  N   UNL     1      37.809 -23.224 -14.463  0.00  0.00    -0.315 N 
ATOM      4  N   UNL     1      35.874 -24.163 -13.905  0.00  0.00    -0.316 N 
ATOM      5  N   UNL     1      34.891 -21.077 -19.479  0.00  0.00    -0.302 NA
ATOM      6  N   UNL     1      32.626 -21.563 -19.833  0.00  0.00    -0.320 N 
ATOM      7  C   UNL     1      34.607 -23.332 -15.918  0.00  0.00    +0.007 C 
ATOM      8  C   UNL     1      34.727 -22.578 -17.095  0.00  0.00    +0.060 C 
ATOM      9  C   UNL     1      35.735 -23.484 -15.093  0.00  0.00    +0.056 C 
ATOM     10  C   UNL     1      36.935 -22.885 -15.465  0.00  0.00    +0.060 C 
ATOM     11  C   UNL     1      35.955 -21.990 -17.436  0.00  0.00    +0.109 C 
ATOM     12  C   UNL     1      37.092 -22.130 -16.628  0.00  0.00    +0.029 C 
ATOM     13  C   UNL     1      36.026 -21.200 -18.699  0.00  0.00    +0.208 C 
ATOM     14  C   UNL     1      37.128 -23.987 -13.555  0.00  0.00    +0.182 C 
ATOM     15  C   UNL     1      33.782 -21.653 -19.097  0.00  0.00    +0.248 C 
ATOM     16  H   UNL     1      32.764 -22.802 -17.731  0.00  0.00    +0.156 HD
ATOM     17  H   UNL     1      38.757 -22.965 -14.408  0.00  0.00    +0.148 HD
ATOM     18  H   UNL     1      35.183 -24.672 -13.421  0.00  0.00    +0.148 HD
ATOM     19  H   UNL     1      31.807 -22.009 -19.519  0.00  0.00    +0.146 HD
ATOM     20  H   UNL     1      32.617 -21.054 -20.675  0.00  0.00    +0.146 HD
ENDROOT
BRANCH   7  21
ATOM     21  C   UNL     1      33.301 -23.963 -15.548  0.00  0.00    +0.034 C 
BRANCH  21  22
ATOM     22  C   UNL     1      32.341 -23.016 -14.805  0.00  0.00    +0.031 C 
BRANCH  22  23
ATOM     23  C   UNL     1      30.886 -23.319 -15.065  0.00  0.00    -0.022 C 
ATOM     24  C   UNL     1      30.174 -22.527 -15.954  0.00  0.00    -0.004 C 
ATOM     25  C   UNL     1      30.285 -24.383 -14.411  0.00  0.00    -0.004 C 
ATOM     26  C   UNL     1      28.830 -22.807 -16.194  0.00  0.00    -0.000 C 
ATOM     27  C   UNL     1      28.939 -24.663 -14.651  0.00  0.00    -0.000 C 
ATOM     28  C   UNL     1      28.212 -23.876 -15.543  0.00  0.00    -0.000 C 
ENDBRANCH  22  23
ENDBRANCH  21  22
ENDBRANCH   7  21
TORSDOF 3
ENDMDL
MODEL 9
REMARK VINA RESULT:      -9.4      2.822      6.275
REMARK  Name = 5326928
REMARK  3 active torsions:
REMARK  status: ('A' for Active; 'I' for Inactive)
REMARK    1  A    between atoms: C_7  and  C_21
REMARK    2  A    between atoms: C_21  and  C_22
REMARK    3  A    between atoms: C_22  and  C_23
REMARK                            x       y       z     vdW  Elec       q    Type
REMARK                         _______ _______ _______ _____ _____    ______ ____
ROOT
ATOM      1  O   UNL     1      31.356 -23.901 -15.745  0.00  0.00    -0.209 OA
ATOM      2  N   UNL     1      34.881 -23.243 -13.960  0.00  0.00    -0.275 N 
ATOM      3  N   UNL     1      34.709 -22.005 -19.318  0.00  0.00    -0.315 N 
ATOM      4  N   UNL     1      36.651 -21.650 -18.298  0.00  0.00    -0.316 N 
ATOM      5  N   UNL     1      32.619 -23.972 -13.836  0.00  0.00    -0.302 NA
ATOM      6  N   UNL     1      34.029 -23.986 -11.964  0.00  0.00    -0.320 N 
ATOM      7  C   UNL     1      35.886 -22.434 -16.030  0.00  0.00    +0.007 C 
ATOM      8  C   UNL     1      34.786 -22.944 -15.323  0.00  0.00    +0.060 C 
ATOM      9  C   UNL     1      35.739 -22.149 -17.398  0.00  0.00    +0.056 C 
ATOM     10  C   UNL     1      34.511 -22.380 -18.013  0.00  0.00    +0.060 C 
ATOM     11  C   UNL     1      33.564 -23.164 -15.979  0.00  0.00    +0.109 C 
ATOM     12  C   UNL     1      33.397 -22.887 -17.343  0.00  0.00    +0.029 C 
ATOM     13  C   UNL     1      32.429 -23.707 -15.180  0.00  0.00    +0.208 C 
ATOM     14  C   UNL     1      36.002 -21.576 -19.438  0.00  0.00    +0.182 C 
ATOM     15  C   UNL     1      33.785 -23.742 -13.294  0.00  0.00    +0.248 C 
ATOM     16  H   UNL     1      35.728 -23.098 -13.480  0.00  0.00    +0.156 HD
ATOM     17  H   UNL     1      34.040 -22.039 -20.038  0.00  0.00    +0.148 HD
ATOM     18  H   UNL     1      37.589 -21.401 -18.126  0.00  0.00    +0.148 HD
ATOM     19  H   UNL     1      34.919 -23.803 -11.586  0.00  0.00    +0.146 HD
ATOM     20  H   UNL     1      33.314 -24.346 -11.391  0.00  0.00    +0.146 HD
ENDROOT
BRANCH   7  21
ATOM     21  C   UNL     1      37.192 -22.197 -15.337  0.00  0.00    +0.034 C 
BRANCH  21  22
ATOM     22  C   UNL     1      38.145 -23.405 -15.375  0.00  0.00    +0.031 C 
BRANCH  22  23
ATOM     23  C   UNL     1      37.893 -24.398 -14.268  0.00  0.00    -0.022 C 
ATOM     24  C   UNL     1      37.508 -25.692 -14.588  0.00  0.00    -0.004 C 
ATOM     25  C   UNL     1      38.048 -24.001 -12.949  0.00  0.00    -0.004 C 
ATOM     26  C   UNL     1      37.276 -26.610 -13.565  0.00  0.00    -0.000 C 
ATOM     27  C   UNL     1      37.815 -24.919 -11.925  0.00  0.00    -0.000 C 
ATOM     28  C   UNL     1      37.429 -26.223 -12.233  0.00  0.00    -0.000 C 
ENDBRANCH  22  23
ENDBRANCH  21  22
ENDBRANCH   7  21
TORSDOF 3
ENDMDL
