MODEL 1
REMARK VINA RESULT:     -12.5      0.000      0.000
REMARK  Name = 9808844
REMARK  5 active torsions:
REMARK  status: ('A' for Active; 'I' for Inactive)
REMARK    1  A    between atoms: N_2  and  C_13
REMARK    2  A    between atoms: C_8  and  O_19
REMARK    3  A    between atoms: O_19  and  C_20
REMARK    4  A    between atoms: C_20  and  C_22
REMARK    5  A    between atoms: C_25  and  C_29
REMARK                            x       y       z     vdW  Elec       q    Type
REMARK                         _______ _______ _______ _____ _____    ______ ____
ROOT
ATOM      1  O   UNL     1      35.444 -22.893 -16.785  0.00  0.00    -0.446 OA
ATOM      2  N   UNL     1      35.709 -19.778 -20.288  0.00  0.00    -0.296 N 
ATOM      3  N   UNL     1      33.658 -20.914 -19.829  0.00  0.00    -0.130 NA
ATOM      4  N   UNL     1      32.886 -21.816 -19.106  0.00  0.00    -0.106 NA
ATOM      5  C   UNL     1      35.531 -21.401 -18.479  0.00  0.00    +0.076 A 
ATOM      6  C   UNL     1      34.731 -22.294 -17.779  0.00  0.00    +0.202 A 
ATOM      7  C   UNL     1      34.960 -20.698 -19.535  0.00  0.00    +0.157 A 
ATOM      8  C   UNL     1      33.403 -22.516 -18.077  0.00  0.00    +0.279 A 
ATOM      9  C   UNL     1      36.809 -21.467 -17.867  0.00  0.00    +0.047 C 
ATOM     10  C   UNL     1      36.704 -22.384 -16.846  0.00  0.00    +0.180 C 
ATOM     11  H   UNL     1      36.644 -19.695 -19.992  0.00  0.00    +0.154 HD
ENDROOT
BRANCH   2  13
ATOM     12 CL   UNL     1      34.361 -16.297 -24.884  0.00  0.00    -0.082 Cl
ATOM     13  C   UNL     1      35.388 -18.948 -21.384  0.00  0.00    +0.049 C 
ATOM     14  C   UNL     1      34.891 -19.509 -22.560  0.00  0.00    +0.016 C 
ATOM     15  C   UNL     1      35.566 -17.568 -21.289  0.00  0.00    +0.016 C 
ATOM     16  C   UNL     1      34.574 -18.689 -23.643  0.00  0.00    +0.013 C 
ATOM     17  C   UNL     1      35.249 -16.749 -22.372  0.00  0.00    +0.013 C 
ATOM     18  C   UNL     1      34.752 -17.309 -23.548  0.00  0.00    +0.058 C 
ENDBRANCH   2  13
BRANCH   8  19
ATOM     19  O   UNL     1      32.607 -23.395 -17.392  0.00  0.00    -0.452 OA
BRANCH  19  20
ATOM     20  C   UNL     1      31.755 -22.844 -16.394  0.00  0.00    +0.234 C 
BRANCH  20  22
ATOM     21  N   UNL     1      32.288 -25.024 -12.742  0.00  0.00    -0.239 NA
ATOM     22  C   UNL     1      31.943 -23.607 -15.115  0.00  0.00    +0.024 C 
ATOM     23  C   UNL     1      33.144 -23.522 -14.432  0.00  0.00    +0.023 C 
ATOM     24  C   UNL     1      30.912 -24.395 -14.627  0.00  0.00    +0.020 C 
ATOM     25  C   UNL     1      33.266 -24.244 -13.256  0.00  0.00    +0.134 C 
ATOM     26  C   UNL     1      31.134 -25.079 -13.443  0.00  0.00    +0.099 C 
BRANCH  25  29
ATOM     27  O   UNL     1      34.640 -24.895 -11.470  0.00  0.00    -0.268 OA
ATOM     28  N   UNL     1      35.514 -23.357 -12.969  0.00  0.00    -0.298 N 
ATOM     29  C   UNL     1      34.500 -24.197 -12.491  0.00  0.00    +0.264 C 
ATOM     30  C   UNL     1      36.804 -23.219 -12.333  0.00  0.00    +0.111 C 
ATOM     31  H   UNL     1      35.338 -22.832 -13.782  0.00  0.00    +0.150 HD
ENDBRANCH  25  29
ENDBRANCH  20  22
ENDBRANCH  19  20
ENDBRANCH   8  19
TORSDOF 5
ENDMDL
MODEL 2
REMARK VINA RESULT:     -12.3      2.484      4.102
REMARK  Name = 9808844
REMARK  5 active torsions:
REMARK  status: ('A' for Active; 'I' for Inactive)
REMARK    1  A    between atoms: N_2  and  C_13
REMARK    2  A    between atoms: C_8  and  O_19
REMARK    3  A    between atoms: O_19  and  C_20
REMARK    4  A    between atoms: C_20  and  C_22
REMARK    5  A    between atoms: C_25  and  C_29
REMARK                            x       y       z     vdW  Elec       q    Type
REMARK                         _______ _______ _______ _____ _____    ______ ____
ROOT
ATOM      1  O   UNL     1      35.431 -23.028 -16.477  0.00  0.00    -0.446 OA
ATOM      2  N   UNL     1      35.746 -20.007 -20.057  0.00  0.00    -0.296 N 
ATOM      3  N   UNL     1      33.673 -21.089 -19.563  0.00  0.00    -0.130 NA
ATOM      4  N   UNL     1      32.886 -21.956 -18.815  0.00  0.00    -0.106 NA
ATOM      5  C   UNL     1      35.541 -21.581 -18.208  0.00  0.00    +0.076 A 
ATOM      6  C   UNL     1      34.726 -22.439 -17.483  0.00  0.00    +0.202 A 
ATOM      7  C   UNL     1      34.981 -20.892 -19.279  0.00  0.00    +0.157 A 
ATOM      8  C   UNL     1      33.393 -22.641 -17.771  0.00  0.00    +0.279 A 
ATOM      9  C   UNL     1      36.821 -21.658 -17.599  0.00  0.00    +0.047 C 
ATOM     10  C   UNL     1      36.700 -22.547 -16.555  0.00  0.00    +0.180 C 
ATOM     11  H   UNL     1      36.684 -19.936 -19.767  0.00  0.00    +0.154 HD
ENDROOT
BRANCH   2  13
ATOM     12 CL   UNL     1      34.450 -16.614 -24.733  0.00  0.00    -0.082 Cl
ATOM     13  C   UNL     1      35.437 -19.198 -21.172  0.00  0.00    +0.049 C 
ATOM     14  C   UNL     1      35.651 -17.821 -21.115  0.00  0.00    +0.016 C 
ATOM     15  C   UNL     1      34.918 -19.776 -22.330  0.00  0.00    +0.016 C 
ATOM     16  C   UNL     1      35.346 -17.022 -22.216  0.00  0.00    +0.013 C 
ATOM     17  C   UNL     1      34.614 -18.977 -23.432  0.00  0.00    +0.013 C 
ATOM     18  C   UNL     1      34.828 -17.601 -23.374  0.00  0.00    +0.058 C 
ENDBRANCH   2  13
BRANCH   8  19
ATOM     19  O   UNL     1      32.581 -23.486 -17.061  0.00  0.00    -0.452 OA
BRANCH  19  20
ATOM     20  C   UNL     1      32.189 -23.057 -15.763  0.00  0.00    +0.234 C 
BRANCH  20  22
ATOM     21  N   UNL     1      28.266 -24.567 -14.920  0.00  0.00    -0.239 NA
ATOM     22  C   UNL     1      30.814 -23.585 -15.468  0.00  0.00    +0.024 C 
ATOM     23  C   UNL     1      29.701 -22.834 -15.804  0.00  0.00    +0.023 C 
ATOM     24  C   UNL     1      30.669 -24.822 -14.859  0.00  0.00    +0.020 C 
ATOM     25  C   UNL     1      28.456 -23.366 -15.512  0.00  0.00    +0.134 C 
ATOM     26  C   UNL     1      29.381 -25.265 -14.608  0.00  0.00    +0.099 C 
BRANCH  25  29
ATOM     27  O   UNL     1      26.412 -22.358 -14.959  0.00  0.00    -0.268 OA
ATOM     28  N   UNL     1      27.089 -22.228 -17.172  0.00  0.00    -0.298 N 
ATOM     29  C   UNL     1      27.248 -22.629 -15.840  0.00  0.00    +0.264 C 
ATOM     30  C   UNL     1      25.956 -21.468 -17.650  0.00  0.00    +0.111 C 
ATOM     31  H   UNL     1      27.789 -22.475 -17.819  0.00  0.00    +0.150 HD
ENDBRANCH  25  29
ENDBRANCH  20  22
ENDBRANCH  19  20
ENDBRANCH   8  19
TORSDOF 5
ENDMDL
MODEL 3
REMARK VINA RESULT:     -11.6      2.248      3.707
REMARK  Name = 9808844
REMARK  5 active torsions:
REMARK  status: ('A' for Active; 'I' for Inactive)
REMARK    1  A    between atoms: N_2  and  C_13
REMARK    2  A    between atoms: C_8  and  O_19
REMARK    3  A    between atoms: O_19  and  C_20
REMARK    4  A    between atoms: C_20  and  C_22
REMARK    5  A    between atoms: C_25  and  C_29
REMARK                            x       y       z     vdW  Elec       q    Type
REMARK                         _______ _______ _______ _____ _____    ______ ____
ROOT
ATOM      1  O   UNL     1      35.597 -22.362 -17.886  0.00  0.00    -0.446 OA
ATOM      2  N   UNL     1      35.590 -19.024 -21.186  0.00  0.00    -0.296 N 
ATOM      3  N   UNL     1      33.568 -20.159 -20.606  0.00  0.00    -0.130 NA
ATOM      4  N   UNL     1      32.851 -21.096 -19.872  0.00  0.00    -0.106 NA
ATOM      5  C   UNL     1      35.551 -20.762 -19.479  0.00  0.00    +0.076 A 
ATOM      6  C   UNL     1      34.804 -21.688 -18.764  0.00  0.00    +0.202 A 
ATOM      7  C   UNL     1      34.897 -19.981 -20.426  0.00  0.00    +0.157 A 
ATOM      8  C   UNL     1      33.450 -21.870 -18.946  0.00  0.00    +0.279 A 
ATOM      9  C   UNL     1      36.881 -20.888 -18.999  0.00  0.00    +0.047 C 
ATOM     10  C   UNL     1      36.855 -21.869 -18.035  0.00  0.00    +0.180 C 
ATOM     11  H   UNL     1      36.550 -18.975 -20.978  0.00  0.00    +0.154 HD
ENDROOT
BRANCH   2  13
ATOM     12 CL   UNL     1      33.880 -15.224 -25.393  0.00  0.00    -0.082 Cl
ATOM     13  C   UNL     1      35.182 -18.118 -22.189  0.00  0.00    +0.049 C 
ATOM     14  C   UNL     1      35.304 -16.745 -21.979  0.00  0.00    +0.016 C 
ATOM     15  C   UNL     1      34.658 -18.597 -23.390  0.00  0.00    +0.016 C 
ATOM     16  C   UNL     1      34.902 -15.850 -22.970  0.00  0.00    +0.013 C 
ATOM     17  C   UNL     1      34.256 -17.701 -24.380  0.00  0.00    +0.013 C 
ATOM     18  C   UNL     1      34.378 -16.328 -24.170  0.00  0.00    +0.058 C 
ENDBRANCH   2  13
BRANCH   8  19
ATOM     19  O   UNL     1      32.704 -22.782 -18.246  0.00  0.00    -0.452 OA
BRANCH  19  20
ATOM     20  C   UNL     1      33.264 -23.269 -17.032  0.00  0.00    +0.234 C 
BRANCH  20  22
ATOM     21  N   UNL     1      30.294 -23.077 -13.947  0.00  0.00    -0.239 NA
ATOM     22  C   UNL     1      32.223 -23.202 -15.952  0.00  0.00    +0.024 C 
ATOM     23  C   UNL     1      30.913 -22.892 -16.276  0.00  0.00    +0.023 C 
ATOM     24  C   UNL     1      32.581 -23.449 -14.636  0.00  0.00    +0.020 C 
ATOM     25  C   UNL     1      29.991 -22.844 -15.243  0.00  0.00    +0.134 C 
ATOM     26  C   UNL     1      31.585 -23.375 -13.676  0.00  0.00    +0.099 C 
BRANCH  25  29
ATOM     27  O   UNL     1      27.858 -22.099 -14.613  0.00  0.00    -0.268 OA
ATOM     28  N   UNL     1      28.154 -22.700 -16.832  0.00  0.00    -0.298 N 
ATOM     29  C   UNL     1      28.600 -22.526 -15.516  0.00  0.00    +0.264 C 
ATOM     30  C   UNL     1      26.807 -22.405 -17.266  0.00  0.00    +0.111 C 
ATOM     31  H   UNL     1      28.792 -23.040 -17.499  0.00  0.00    +0.150 HD
ENDBRANCH  25  29
ENDBRANCH  20  22
ENDBRANCH  19  20
ENDBRANCH   8  19
TORSDOF 5
ENDMDL
MODEL 4
REMARK VINA RESULT:     -11.3      7.012     10.645
REMARK  Name = 9808844
REMARK  5 active torsions:
REMARK  status: ('A' for Active; 'I' for Inactive)
REMARK    1  A    between atoms: N_2  and  C_13
REMARK    2  A    between atoms: C_8  and  O_19
REMARK    3  A    between atoms: O_19  and  C_20
REMARK    4  A    between atoms: C_20  and  C_22
REMARK    5  A    between atoms: C_25  and  C_29
REMARK                            x       y       z     vdW  Elec       q    Type
REMARK                         _______ _______ _______ _____ _____    ______ ____
ROOT
ATOM      1  O   UNL     1      32.727 -14.434 -21.101  0.00  0.00    -0.446 OA
ATOM      2  N   UNL     1      32.255  -9.846 -21.975  0.00  0.00    -0.296 N 
ATOM      3  N   UNL     1      33.063 -11.325 -23.669  0.00  0.00    -0.130 NA
ATOM      4  N   UNL     1      33.425 -12.585 -24.131  0.00  0.00    -0.106 NA
ATOM      5  C   UNL     1      32.513 -12.233 -21.562  0.00  0.00    +0.076 A 
ATOM      6  C   UNL     1      32.884 -13.476 -22.056  0.00  0.00    +0.202 A 
ATOM      7  C   UNL     1      32.612 -11.134 -22.408  0.00  0.00    +0.157 A 
ATOM      8  C   UNL     1      33.343 -13.673 -23.341  0.00  0.00    +0.279 A 
ATOM      9  C   UNL     1      32.106 -12.458 -20.221  0.00  0.00    +0.047 C 
ATOM     10  C   UNL     1      32.254 -13.807 -19.992  0.00  0.00    +0.180 C 
ATOM     11  H   UNL     1      31.940  -9.816 -21.043  0.00  0.00    +0.154 HD
ENDROOT
BRANCH   2  13
ATOM     12 CL   UNL     1      32.258  -4.560 -24.643  0.00  0.00    -0.082 Cl
ATOM     13  C   UNL     1      32.255  -8.586 -22.611  0.00  0.00    +0.049 C 
ATOM     14  C   UNL     1      31.150  -8.182 -23.359  0.00  0.00    +0.016 C 
ATOM     15  C   UNL     1      33.362  -7.745 -22.491  0.00  0.00    +0.016 C 
ATOM     16  C   UNL     1      31.151  -6.937 -23.987  0.00  0.00    +0.013 C 
ATOM     17  C   UNL     1      33.363  -6.500 -23.119  0.00  0.00    +0.013 C 
ATOM     18  C   UNL     1      32.257  -6.096 -23.867  0.00  0.00    +0.058 C 
ENDBRANCH   2  13
BRANCH   8  19
ATOM     19  O   UNL     1      33.712 -14.896 -23.838  0.00  0.00    -0.452 OA
BRANCH  19  20
ATOM     20  C   UNL     1      35.018 -15.353 -23.507  0.00  0.00    +0.234 C 
BRANCH  20  22
ATOM     21  N   UNL     1      34.880 -19.580 -22.808  0.00  0.00    -0.239 NA
ATOM     22  C   UNL     1      34.970 -16.833 -23.262  0.00  0.00    +0.024 C 
ATOM     23  C   UNL     1      35.533 -17.359 -22.111  0.00  0.00    +0.023 C 
ATOM     24  C   UNL     1      34.364 -17.665 -24.190  0.00  0.00    +0.020 C 
ATOM     25  C   UNL     1      35.461 -18.731 -21.931  0.00  0.00    +0.134 C 
ATOM     26  C   UNL     1      34.345 -19.023 -23.918  0.00  0.00    +0.099 C 
BRANCH  25  29
ATOM     27  O   UNL     1      36.974 -18.802 -20.140  0.00  0.00    -0.268 OA
ATOM     28  N   UNL     1      35.458 -20.548 -20.312  0.00  0.00    -0.298 N 
ATOM     29  C   UNL     1      36.031 -19.346 -20.745  0.00  0.00    +0.264 C 
ATOM     30  C   UNL     1      35.897 -21.267 -19.138  0.00  0.00    +0.111 C 
ATOM     31  H   UNL     1      34.714 -20.923 -20.836  0.00  0.00    +0.150 HD
ENDBRANCH  25  29
ENDBRANCH  20  22
ENDBRANCH  19  20
ENDBRANCH   8  19
TORSDOF 5
ENDMDL
MODEL 5
REMARK VINA RESULT:     -11.1      5.422      8.822
REMARK  Name = 9808844
REMARK  5 active torsions:
REMARK  status: ('A' for Active; 'I' for Inactive)
REMARK    1  A    between atoms: N_2  and  C_13
REMARK    2  A    between atoms: C_8  and  O_19
REMARK    3  A    between atoms: O_19  and  C_20
REMARK    4  A    between atoms: C_20  and  C_22
REMARK    5  A    between atoms: C_25  and  C_29
REMARK                            x       y       z     vdW  Elec       q    Type
REMARK                         _______ _______ _______ _____ _____    ______ ____
ROOT
ATOM      1  O   UNL     1      34.229 -16.041 -24.983  0.00  0.00    -0.446 OA
ATOM      2  N   UNL     1      32.517 -12.316 -22.696  0.00  0.00    -0.296 N 
ATOM      3  N   UNL     1      33.973 -13.854 -21.589  0.00  0.00    -0.130 NA
ATOM      4  N   UNL     1      34.764 -14.996 -21.562  0.00  0.00    -0.106 NA
ATOM      5  C   UNL     1      33.426 -14.261 -23.848  0.00  0.00    +0.076 A 
ATOM      6  C   UNL     1      34.225 -15.395 -23.785  0.00  0.00    +0.202 A 
ATOM      7  C   UNL     1      33.308 -13.478 -22.705  0.00  0.00    +0.157 A 
ATOM      8  C   UNL     1      34.904 -15.780 -22.648  0.00  0.00    +0.279 A 
ATOM      9  C   UNL     1      32.916 -14.223 -25.172  0.00  0.00    +0.047 C 
ATOM     10  C   UNL     1      33.433 -15.323 -25.819  0.00  0.00    +0.180 C 
ATOM     11  H   UNL     1      32.076 -12.132 -23.557  0.00  0.00    +0.154 HD
ENDROOT
BRANCH   2  13
ATOM     12 CL   UNL     1      31.307  -8.304 -18.513  0.00  0.00    -0.082 Cl
ATOM     13  C   UNL     1      32.228 -11.360 -21.699  0.00  0.00    +0.049 C 
ATOM     14  C   UNL     1      31.807 -11.775 -20.436  0.00  0.00    +0.016 C 
ATOM     15  C   UNL     1      32.365 -10.000 -21.977  0.00  0.00    +0.016 C 
ATOM     16  C   UNL     1      31.523 -10.830 -19.451  0.00  0.00    +0.013 C 
ATOM     17  C   UNL     1      32.081  -9.055 -20.992  0.00  0.00    +0.013 C 
ATOM     18  C   UNL     1      31.660  -9.470 -19.729  0.00  0.00    +0.058 C 
ENDBRANCH   2  13
BRANCH   8  19
ATOM     19  O   UNL     1      35.693 -16.897 -22.577  0.00  0.00    -0.452 OA
BRANCH  19  20
ATOM     20  C   UNL     1      35.037 -18.154 -22.699  0.00  0.00    +0.234 C 
BRANCH  20  22
ATOM     21  N   UNL     1      36.029 -20.582 -19.309  0.00  0.00    -0.239 NA
ATOM     22  C   UNL     1      35.383 -19.005 -21.512  0.00  0.00    +0.024 C 
ATOM     23  C   UNL     1      34.433 -19.856 -20.973  0.00  0.00    +0.023 C 
ATOM     24  C   UNL     1      36.654 -18.932 -20.961  0.00  0.00    +0.020 C 
ATOM     25  C   UNL     1      34.804 -20.620 -19.878  0.00  0.00    +0.134 C 
ATOM     26  C   UNL     1      36.925 -19.737 -19.867  0.00  0.00    +0.099 C 
BRANCH  25  29
ATOM     27  O   UNL     1      32.699 -21.641 -19.717  0.00  0.00    -0.268 OA
ATOM     28  N   UNL     1      34.307 -22.289 -18.178  0.00  0.00    -0.298 N 
ATOM     29  C   UNL     1      33.854 -21.533 -19.267  0.00  0.00    +0.264 C 
ATOM     30  C   UNL     1      33.490 -23.255 -17.480  0.00  0.00    +0.111 C 
ATOM     31  H   UNL     1      35.233 -22.155 -17.872  0.00  0.00    +0.150 HD
ENDBRANCH  25  29
ENDBRANCH  20  22
ENDBRANCH  19  20
ENDBRANCH   8  19
TORSDOF 5
ENDMDL
MODEL 6
REMARK VINA RESULT:     -10.9      5.918     11.010
REMARK  Name = 9808844
REMARK  5 active torsions:
REMARK  status: ('A' for Active; 'I' for Inactive)
REMARK    1  A    between atoms: N_2  and  C_13
REMARK    2  A    between atoms: C_8  and  O_19
REMARK    3  A    between atoms: O_19  and  C_20
REMARK    4  A    between atoms: C_20  and  C_22
REMARK    5  A    between atoms: C_25  and  C_29
REMARK                            x       y       z     vdW  Elec       q    Type
REMARK                         _______ _______ _______ _____ _____    ______ ____
ROOT
ATOM      1  O   UNL     1      34.498 -17.233 -24.420  0.00  0.00    -0.446 OA
ATOM      2  N   UNL     1      34.940 -20.426 -21.008  0.00  0.00    -0.296 N 
ATOM      3  N   UNL     1      35.316 -18.110 -20.556  0.00  0.00    -0.130 NA
ATOM      4  N   UNL     1      35.379 -16.776 -20.941  0.00  0.00    -0.106 NA
ATOM      5  C   UNL     1      34.721 -18.738 -22.751  0.00  0.00    +0.076 A 
ATOM      6  C   UNL     1      34.793 -17.397 -23.101  0.00  0.00    +0.202 A 
ATOM      7  C   UNL     1      34.994 -19.088 -21.433  0.00  0.00    +0.157 A 
ATOM      8  C   UNL     1      35.121 -16.398 -22.209  0.00  0.00    +0.279 A 
ATOM      9  C   UNL     1      34.358 -19.427 -23.938  0.00  0.00    +0.047 C 
ATOM     10  C   UNL     1      34.235 -18.469 -24.919  0.00  0.00    +0.180 C 
ATOM     11  H   UNL     1      34.697 -21.057 -21.722  0.00  0.00    +0.154 HD
ENDROOT
BRANCH   2  13
ATOM     12 CL   UNL     1      35.882 -23.024 -15.771  0.00  0.00    -0.082 Cl
ATOM     13  C   UNL     1      35.165 -21.045 -19.759  0.00  0.00    +0.049 C 
ATOM     14  C   UNL     1      36.415 -20.950 -19.149  0.00  0.00    +0.016 C 
ATOM     15  C   UNL     1      34.136 -21.752 -19.137  0.00  0.00    +0.016 C 
ATOM     16  C   UNL     1      36.636 -21.561 -17.915  0.00  0.00    +0.013 C 
ATOM     17  C   UNL     1      34.358 -22.364 -17.904  0.00  0.00    +0.013 C 
ATOM     18  C   UNL     1      35.608 -22.268 -17.293  0.00  0.00    +0.058 C 
ENDBRANCH   2  13
BRANCH   8  19
ATOM     19  O   UNL     1      35.195 -15.072 -22.545  0.00  0.00    -0.452 OA
BRANCH  19  20
ATOM     20  C   UNL     1      34.110 -14.540 -23.296  0.00  0.00    +0.234 C 
BRANCH  20  22
ATOM     21  N   UNL     1      31.887 -11.844 -20.814  0.00  0.00    -0.239 NA
ATOM     22  C   UNL     1      33.331 -13.595 -22.427  0.00  0.00    +0.024 C 
ATOM     23  C   UNL     1      33.002 -12.336 -22.901  0.00  0.00    +0.023 C 
ATOM     24  C   UNL     1      32.947 -13.989 -21.155  0.00  0.00    +0.020 C 
ATOM     25  C   UNL     1      32.283 -11.502 -22.060  0.00  0.00    +0.134 C 
ATOM     26  C   UNL     1      32.230 -13.081 -20.392  0.00  0.00    +0.099 C 
BRANCH  25  29
ATOM     27  O   UNL     1      31.215  -9.435 -21.767  0.00  0.00    -0.268 OA
ATOM     28  N   UNL     1      32.373  -9.754 -23.750  0.00  0.00    -0.298 N 
ATOM     29  C   UNL     1      31.906 -10.169 -22.497  0.00  0.00    +0.264 C 
ATOM     30  C   UNL     1      32.103  -8.450 -24.312  0.00  0.00    +0.111 C 
ATOM     31  H   UNL     1      32.915 -10.384 -24.276  0.00  0.00    +0.150 HD
ENDBRANCH  25  29
ENDBRANCH  20  22
ENDBRANCH  19  20
ENDBRANCH   8  19
TORSDOF 5
ENDMDL
MODEL 7
REMARK VINA RESULT:     -10.8      7.583     12.073
REMARK  Name = 9808844
REMARK  5 active torsions:
REMARK  status: ('A' for Active; 'I' for Inactive)
REMARK    1  A    between atoms: N_2  and  C_13
REMARK    2  A    between atoms: C_8  and  O_19
REMARK    3  A    between atoms: O_19  and  C_20
REMARK    4  A    between atoms: C_20  and  C_22
REMARK    5  A    between atoms: C_25  and  C_29
REMARK                            x       y       z     vdW  Elec       q    Type
REMARK                         _______ _______ _______ _____ _____    ______ ____
ROOT
ATOM      1  O   UNL     1      33.457 -13.797 -24.470  0.00  0.00    -0.446 OA
ATOM      2  N   UNL     1      35.013 -17.726 -22.424  0.00  0.00    -0.296 N 
ATOM      3  N   UNL     1      34.530 -15.787 -21.114  0.00  0.00    -0.130 NA
ATOM      4  N   UNL     1      34.109 -14.470 -20.976  0.00  0.00    -0.106 NA
ATOM      5  C   UNL     1      34.204 -15.668 -23.448  0.00  0.00    +0.076 A 
ATOM      6  C   UNL     1      33.789 -14.355 -23.273  0.00  0.00    +0.202 A 
ATOM      7  C   UNL     1      34.583 -16.392 -22.322  0.00  0.00    +0.157 A 
ATOM      8  C   UNL     1      33.735 -13.736 -22.042  0.00  0.00    +0.279 A 
ATOM      9  C   UNL     1      34.115 -15.917 -24.843  0.00  0.00    +0.047 C 
ATOM     10  C   UNL     1      33.657 -14.752 -25.416  0.00  0.00    +0.180 C 
ATOM     11  H   UNL     1      35.014 -18.070 -23.347  0.00  0.00    +0.154 HD
ENDROOT
BRANCH   2  13
ATOM     12 CL   UNL     1      36.818 -21.688 -18.412  0.00  0.00    -0.082 Cl
ATOM     13  C   UNL     1      35.443 -18.671 -21.468  0.00  0.00    +0.049 C 
ATOM     14  C   UNL     1      34.542 -19.603 -20.956  0.00  0.00    +0.016 C 
ATOM     15  C   UNL     1      36.770 -18.671 -21.036  0.00  0.00    +0.016 C 
ATOM     16  C   UNL     1      34.967 -20.537 -20.011  0.00  0.00    +0.013 C 
ATOM     17  C   UNL     1      37.194 -19.604 -20.091  0.00  0.00    +0.013 C 
ATOM     18  C   UNL     1      36.293 -20.537 -19.579  0.00  0.00    +0.058 C 
ENDBRANCH   2  13
BRANCH   8  19
ATOM     19  O   UNL     1      33.328 -12.441 -21.859  0.00  0.00    -0.452 OA
BRANCH  19  20
ATOM     20  C   UNL     1      32.004 -12.248 -21.373  0.00  0.00    +0.234 C 
BRANCH  20  22
ATOM     21  N   UNL     1      31.915  -8.734 -18.920  0.00  0.00    -0.239 NA
ATOM     22  C   UNL     1      31.973 -11.016 -20.515  0.00  0.00    +0.024 C 
ATOM     23  C   UNL     1      31.970  -9.764 -21.106  0.00  0.00    +0.023 C 
ATOM     24  C   UNL     1      31.948 -11.141 -19.134  0.00  0.00    +0.020 C 
ATOM     25  C   UNL     1      31.940  -8.660 -20.269  0.00  0.00    +0.134 C 
ATOM     26  C   UNL     1      31.920  -9.976 -18.386  0.00  0.00    +0.099 C 
BRANCH  25  29
ATOM     27  O   UNL     1      32.621  -6.416 -20.313  0.00  0.00    -0.268 OA
ATOM     28  N   UNL     1      31.148  -7.105 -21.965  0.00  0.00    -0.298 N 
ATOM     29  C   UNL     1      31.934  -7.319 -20.826  0.00  0.00    +0.264 C 
ATOM     30  C   UNL     1      31.057  -5.834 -22.648  0.00  0.00    +0.111 C 
ATOM     31  H   UNL     1      30.629  -7.862 -22.321  0.00  0.00    +0.150 HD
ENDBRANCH  25  29
ENDBRANCH  20  22
ENDBRANCH  19  20
ENDBRANCH   8  19
TORSDOF 5
ENDMDL
MODEL 8
REMARK VINA RESULT:     -10.6      2.551      4.942
REMARK  Name = 9808844
REMARK  5 active torsions:
REMARK  status: ('A' for Active; 'I' for Inactive)
REMARK    1  A    between atoms: N_2  and  C_13
REMARK    2  A    between atoms: C_8  and  O_19
REMARK    3  A    between atoms: O_19  and  C_20
REMARK    4  A    between atoms: C_20  and  C_22
REMARK    5  A    between atoms: C_25  and  C_29
REMARK                            x       y       z     vdW  Elec       q    Type
REMARK                         _______ _______ _______ _____ _____    ______ ____
ROOT
ATOM      1  O   UNL     1      30.994 -24.429 -14.314  0.00  0.00    -0.446 OA
ATOM      2  N   UNL     1      32.509 -22.003 -18.037  0.00  0.00    -0.296 N 
ATOM      3  N   UNL     1      34.066 -22.921 -16.473  0.00  0.00    -0.130 NA
ATOM      4  N   UNL     1      34.376 -23.636 -15.322  0.00  0.00    -0.106 NA
ATOM      5  C   UNL     1      31.763 -23.269 -16.093  0.00  0.00    +0.076 A 
ATOM      6  C   UNL     1      32.110 -23.976 -14.950  0.00  0.00    +0.202 A 
ATOM      7  C   UNL     1      32.786 -22.731 -16.867  0.00  0.00    +0.157 A 
ATOM      8  C   UNL     1      33.414 -24.172 -14.547  0.00  0.00    +0.279 A 
ATOM      9  C   UNL     1      30.345 -23.298 -16.148  0.00  0.00    +0.047 C 
ATOM     10  C   UNL     1      29.929 -24.014 -15.049  0.00  0.00    +0.180 C 
ATOM     11  H   UNL     1      31.548 -21.923 -18.233  0.00  0.00    +0.154 HD
ENDROOT
BRANCH   2  13
ATOM     12 CL   UNL     1      35.973 -19.325 -22.022  0.00  0.00    -0.082 Cl
ATOM     13  C   UNL     1      33.335 -21.364 -18.987  0.00  0.00    +0.049 C 
ATOM     14  C   UNL     1      32.790 -20.433 -19.870  0.00  0.00    +0.016 C 
ATOM     15  C   UNL     1      34.696 -21.665 -19.041  0.00  0.00    +0.016 C 
ATOM     16  C   UNL     1      33.606 -19.803 -20.809  0.00  0.00    +0.013 C 
ATOM     17  C   UNL     1      35.512 -21.034 -19.980  0.00  0.00    +0.013 C 
ATOM     18  C   UNL     1      34.967 -20.103 -20.863  0.00  0.00    +0.058 C 
ENDBRANCH   2  13
BRANCH   8  19
ATOM     19  O   UNL     1      33.765 -24.868 -13.420  0.00  0.00    -0.452 OA
BRANCH  19  20
ATOM     20  C   UNL     1      34.139 -24.099 -12.283  0.00  0.00    +0.234 C 
BRANCH  20  22
ATOM     21  N   UNL     1      38.413 -24.062 -11.962  0.00  0.00    -0.239 NA
ATOM     22  C   UNL     1      35.636 -24.087 -12.171  0.00  0.00    +0.024 C 
ATOM     23  C   UNL     1      36.383 -25.054 -12.821  0.00  0.00    +0.023 C 
ATOM     24  C   UNL     1      36.261 -23.106 -11.416  0.00  0.00    +0.020 C 
ATOM     25  C   UNL     1      37.761 -24.999 -12.686  0.00  0.00    +0.134 C 
ATOM     26  C   UNL     1      37.644 -23.138 -11.344  0.00  0.00    +0.099 C 
BRANCH  25  29
ATOM     27  O   UNL     1      38.117 -27.047 -13.771  0.00  0.00    -0.268 OA
ATOM     28  N   UNL     1      39.959 -25.668 -13.489  0.00  0.00    -0.298 N 
ATOM     29  C   UNL     1      38.602 -25.984 -13.343  0.00  0.00    +0.264 C 
ATOM     30  C   UNL     1      40.916 -26.532 -14.141  0.00  0.00    +0.111 C 
ATOM     31  H   UNL     1      40.277 -24.809 -13.129  0.00  0.00    +0.150 HD
ENDBRANCH  25  29
ENDBRANCH  20  22
ENDBRANCH  19  20
ENDBRANCH   8  19
TORSDOF 5
ENDMDL
MODEL 9
REMARK VINA RESULT:     -10.5      4.565     10.113
REMARK  Name = 9808844
REMARK  5 active torsions:
REMARK  status: ('A' for Active; 'I' for Inactive)
REMARK    1  A    between atoms: N_2  and  C_13
REMARK    2  A    between atoms: C_8  and  O_19
REMARK    3  A    between atoms: O_19  and  C_20
REMARK    4  A    between atoms: C_20  and  C_22
REMARK    5  A    between atoms: C_25  and  C_29
REMARK                            x       y       z     vdW  Elec       q    Type
REMARK                         _______ _______ _______ _____ _____    ______ ____
ROOT
ATOM      1  O   UNL     1      33.668 -20.334 -20.592  0.00  0.00    -0.446 OA
ATOM      2  N   UNL     1      34.961 -22.707 -16.753  0.00  0.00    -0.296 N 
ATOM      3  N   UNL     1      36.597 -21.617 -18.112  0.00  0.00    -0.130 NA
ATOM      4  N   UNL     1      36.971 -20.850 -19.209  0.00  0.00    -0.106 NA
ATOM      5  C   UNL     1      34.331 -21.466 -18.753  0.00  0.00    +0.076 A 
ATOM      6  C   UNL     1      34.740 -20.703 -19.838  0.00  0.00    +0.202 A 
ATOM      7  C   UNL     1      35.303 -21.929 -17.873  0.00  0.00    +0.157 A 
ATOM      8  C   UNL     1      36.059 -20.383 -20.084  0.00  0.00    +0.279 A 
ATOM      9  C   UNL     1      32.919 -21.563 -18.861  0.00  0.00    +0.047 C 
ATOM     10  C   UNL     1      32.568 -20.860 -19.991  0.00  0.00    +0.180 C 
ATOM     11  H   UNL     1      33.995 -22.877 -16.671  0.00  0.00    +0.154 HD
ENDROOT
BRANCH   2  13
ATOM     12 CL   UNL     1      38.176 -25.164 -12.430  0.00  0.00    -0.082 Cl
ATOM     13  C   UNL     1      35.728 -23.293 -15.722  0.00  0.00    +0.049 C 
ATOM     14  C   UNL     1      35.229 -24.389 -15.020  0.00  0.00    +0.016 C 
ATOM     15  C   UNL     1      36.984 -22.775 -15.408  0.00  0.00    +0.016 C 
ATOM     16  C   UNL     1      35.986 -24.968 -14.002  0.00  0.00    +0.013 C 
ATOM     17  C   UNL     1      37.741 -23.354 -14.390  0.00  0.00    +0.013 C 
ATOM     18  C   UNL     1      37.242 -24.450 -13.687  0.00  0.00    +0.058 C 
ENDBRANCH   2  13
BRANCH   8  19
ATOM     19  O   UNL     1      36.472 -19.631 -21.152  0.00  0.00    -0.452 OA
BRANCH  19  20
ATOM     20  C   UNL     1      36.015 -18.284 -21.202  0.00  0.00    +0.234 C 
BRANCH  20  22
ATOM     21  N   UNL     1      33.913 -17.662 -24.885  0.00  0.00    -0.239 NA
ATOM     22  C   UNL     1      35.279 -18.065 -22.492  0.00  0.00    +0.024 C 
ATOM     23  C   UNL     1      34.991 -16.777 -22.911  0.00  0.00    +0.023 C 
ATOM     24  C   UNL     1      34.890 -19.155 -23.255  0.00  0.00    +0.020 C 
ATOM     25  C   UNL     1      34.311 -16.629 -24.109  0.00  0.00    +0.134 C 
ATOM     26  C   UNL     1      34.213 -18.901 -24.437  0.00  0.00    +0.099 C 
BRANCH  25  29
ATOM     27  O   UNL     1      33.715 -15.127 -25.808  0.00  0.00    -0.268 OA
ATOM     28  N   UNL     1      33.952 -14.263 -23.670  0.00  0.00    -0.298 N 
ATOM     29  C   UNL     1      33.980 -15.305 -24.605  0.00  0.00    +0.264 C 
ATOM     30  C   UNL     1      33.617 -12.897 -24.003  0.00  0.00    +0.111 C 
ATOM     31  H   UNL     1      34.171 -14.472 -22.733  0.00  0.00    +0.150 HD
ENDBRANCH  25  29
ENDBRANCH  20  22
ENDBRANCH  19  20
ENDBRANCH   8  19
TORSDOF 5
ENDMDL
