MODEL 1
REMARK VINA RESULT:     -11.6      0.000      0.000
REMARK  Name = 16363
REMARK  6 active torsions:
REMARK  status: ('A' for Active; 'I' for Inactive)
REMARK    1  A    between atoms: N_1  and  C_19
REMARK    2  A    between atoms: C_2  and  N_9
REMARK    3  A    between atoms: C_19  and  C_20
REMARK    4  A    between atoms: C_20  and  C_21
REMARK    5  A    between atoms: C_21  and  C_23
REMARK    6  A    between atoms: C_23  and  C_25
REMARK                            x       y       z     vdW  Elec       q    Type
REMARK                         _______ _______ _______ _____ _____    ______ ____
ROOT
ATOM      1  N   UNL     1      34.173 -15.999 -23.577  0.00  0.00    +0.387 N 
ATOM      2  C   UNL     1      33.663 -13.193 -22.921  0.00  0.00    +0.086 C 
ATOM      3  C   UNL     1      32.849 -13.948 -23.972  0.00  0.00    -0.000 C 
ATOM      4  C   UNL     1      34.253 -14.174 -21.908  0.00  0.00    -0.000 C 
ATOM      5  C   UNL     1      33.666 -15.077 -24.603  0.00  0.00    -0.075 C 
ATOM      6  C   UNL     1      35.024 -15.297 -22.605  0.00  0.00    -0.075 C 
ATOM      7  H   UNL     1      33.373 -16.382 -23.074  0.00  0.00    -0.080 HD
ENDROOT
BRANCH   2   9
ATOM      8  O   UNL     1      31.772 -13.490 -20.591  0.00  0.00    -0.247 OA
ATOM      9  N   UNL     1      32.861 -12.195 -22.261  0.00  0.00    -0.282 N 
ATOM     10  N   UNL     1      31.416 -11.166 -20.849  0.00  0.00    -0.305 N 
ATOM     11  C   UNL     1      32.813 -10.836 -22.601  0.00  0.00    +0.079 A 
ATOM     12  C   UNL     1      31.992 -12.431 -21.161  0.00  0.00    +0.328 A 
ATOM     13  C   UNL     1      31.924 -10.211 -21.729  0.00  0.00    +0.076 A 
ATOM     14  C   UNL     1      33.471 -10.132 -23.587  0.00  0.00    +0.019 C 
ATOM     15  C   UNL     1      31.648  -8.863 -21.796  0.00  0.00    +0.019 C 
ATOM     16  C   UNL     1      33.209  -8.761 -23.675  0.00  0.00    +0.002 C 
ATOM     17  C   UNL     1      32.307  -8.133 -22.790  0.00  0.00    +0.002 C 
ATOM     18  H   UNL     1      30.767 -10.995 -20.129  0.00  0.00    +0.170 HD
ENDBRANCH   2   9
BRANCH   1  19
ATOM     19  C   UNL     1      34.909 -17.100 -24.198  0.00  0.00    -0.077 C 
BRANCH  19  20
ATOM     20  C   UNL     1      34.517 -18.429 -23.549  0.00  0.00    -0.015 C 
BRANCH  20  21
ATOM     21  C   UNL     1      35.638 -19.003 -22.676  0.00  0.00    +0.067 C 
BRANCH  21  23
ATOM     22  O   UNL     1      35.560 -17.734 -20.625  0.00  0.00    -0.291 OA
ATOM     23  C   UNL     1      35.398 -18.816 -21.185  0.00  0.00    +0.173 C 
BRANCH  23  25
ATOM     24  F   UNL     1      33.658 -23.192 -18.186  0.00  0.00    -0.204 F 
ATOM     25  C   UNL     1      34.933 -19.985 -20.385  0.00  0.00    +0.035 C 
ATOM     26  C   UNL     1      35.875 -20.801 -19.800  0.00  0.00    +0.005 C 
ATOM     27  C   UNL     1      33.580 -20.204 -20.259  0.00  0.00    +0.005 C 
ATOM     28  C   UNL     1      35.441 -21.894 -19.051  0.00  0.00    +0.030 C 
ATOM     29  C   UNL     1      33.145 -21.297 -19.510  0.00  0.00    +0.030 C 
ATOM     30  C   UNL     1      34.075 -22.142 -18.906  0.00  0.00    +0.140 C 
ENDBRANCH  23  25
ENDBRANCH  21  23
ENDBRANCH  20  21
ENDBRANCH  19  20
ENDBRANCH   1  19
TORSDOF 6
ENDMDL
MODEL 2
REMARK VINA RESULT:     -11.4      1.640      2.527
REMARK  Name = 16363
REMARK  6 active torsions:
REMARK  status: ('A' for Active; 'I' for Inactive)
REMARK    1  A    between atoms: N_1  and  C_19
REMARK    2  A    between atoms: C_2  and  N_9
REMARK    3  A    between atoms: C_19  and  C_20
REMARK    4  A    between atoms: C_20  and  C_21
REMARK    5  A    between atoms: C_21  and  C_23
REMARK    6  A    between atoms: C_23  and  C_25
REMARK                            x       y       z     vdW  Elec       q    Type
REMARK                         _______ _______ _______ _____ _____    ______ ____
ROOT
ATOM      1  N   UNL     1      34.690 -15.092 -23.190  0.00  0.00    +0.387 N 
ATOM      2  C   UNL     1      32.882 -12.982 -22.272  0.00  0.00    +0.086 C 
ATOM      3  C   UNL     1      34.138 -13.378 -21.495  0.00  0.00    -0.000 C 
ATOM      4  C   UNL     1      33.048 -13.329 -23.752  0.00  0.00    -0.000 C 
ATOM      5  C   UNL     1      34.514 -14.838 -21.754  0.00  0.00    -0.075 C 
ATOM      6  C   UNL     1      33.461 -14.790 -23.938  0.00  0.00    -0.075 C 
ATOM      7  H   UNL     1      35.425 -14.473 -23.532  0.00  0.00    -0.080 HD
ENDROOT
BRANCH   2   9
ATOM      8  O   UNL     1      32.928 -10.757 -24.307  0.00  0.00    -0.247 OA
ATOM      9  N   UNL     1      32.586 -11.582 -22.103  0.00  0.00    -0.282 N 
ATOM     10  N   UNL     1      32.270  -9.374 -22.504  0.00  0.00    -0.305 N 
ATOM     11  C   UNL     1      32.204 -10.972 -20.901  0.00  0.00    +0.079 A 
ATOM     12  C   UNL     1      32.635 -10.600 -23.130  0.00  0.00    +0.328 A 
ATOM     13  C   UNL     1      32.012  -9.616 -21.155  0.00  0.00    +0.076 A 
ATOM     14  C   UNL     1      32.019 -11.503 -19.642  0.00  0.00    +0.019 C 
ATOM     15  C   UNL     1      31.628  -8.728 -20.175  0.00  0.00    +0.019 C 
ATOM     16  C   UNL     1      31.629 -10.621 -18.629  0.00  0.00    +0.002 C 
ATOM     17  C   UNL     1      31.436  -9.249 -18.892  0.00  0.00    +0.002 C 
ATOM     18  H   UNL     1      32.209  -8.499 -22.952  0.00  0.00    +0.170 HD
ENDBRANCH   2   9
BRANCH   1  19
ATOM     19  C   UNL     1      35.099 -16.478 -23.419  0.00  0.00    -0.077 C 
BRANCH  19  20
ATOM     20  C   UNL     1      35.405 -17.165 -22.086  0.00  0.00    -0.015 C 
BRANCH  20  21
ATOM     21  C   UNL     1      35.958 -18.580 -22.276  0.00  0.00    +0.067 C 
BRANCH  21  23
ATOM     22  O   UNL     1      37.564 -18.978 -20.519  0.00  0.00    -0.291 OA
ATOM     23  C   UNL     1      36.451 -19.215 -20.983  0.00  0.00    +0.173 C 
BRANCH  23  25
ATOM     24  F   UNL     1      33.040 -22.677 -18.236  0.00  0.00    -0.204 F 
ATOM     25  C   UNL     1      35.541 -20.139 -20.249  0.00  0.00    +0.035 C 
ATOM     26  C   UNL     1      34.181 -20.002 -20.422  0.00  0.00    +0.005 C 
ATOM     27  C   UNL     1      36.092 -21.095 -19.426  0.00  0.00    +0.005 C 
ATOM     28  C   UNL     1      33.329 -20.867 -19.736  0.00  0.00    +0.030 C 
ATOM     29  C   UNL     1      35.240 -21.960 -18.740  0.00  0.00    +0.030 C 
ATOM     30  C   UNL     1      33.859 -21.847 -18.895  0.00  0.00    +0.140 C 
ENDBRANCH  23  25
ENDBRANCH  21  23
ENDBRANCH  20  21
ENDBRANCH  19  20
ENDBRANCH   1  19
TORSDOF 6
ENDMDL
MODEL 3
REMARK VINA RESULT:     -11.4      3.516      9.426
REMARK  Name = 16363
REMARK  6 active torsions:
REMARK  status: ('A' for Active; 'I' for Inactive)
REMARK    1  A    between atoms: N_1  and  C_19
REMARK    2  A    between atoms: C_2  and  N_9
REMARK    3  A    between atoms: C_19  and  C_20
REMARK    4  A    between atoms: C_20  and  C_21
REMARK    5  A    between atoms: C_21  and  C_23
REMARK    6  A    between atoms: C_23  and  C_25
REMARK                            x       y       z     vdW  Elec       q    Type
REMARK                         _______ _______ _______ _____ _____    ______ ____
ROOT
ATOM      1  N   UNL     1      35.119 -15.548 -22.928  0.00  0.00    +0.387 N 
ATOM      2  C   UNL     1      34.872 -18.056 -21.441  0.00  0.00    +0.086 C 
ATOM      3  C   UNL     1      35.336 -18.011 -22.897  0.00  0.00    -0.000 C 
ATOM      4  C   UNL     1      35.171 -16.724 -20.752  0.00  0.00    -0.000 C 
ATOM      5  C   UNL     1      34.766 -16.792 -23.625  0.00  0.00    -0.075 C 
ATOM      6  C   UNL     1      34.608 -15.547 -21.550  0.00  0.00    -0.075 C 
ATOM      7  H   UNL     1      36.136 -15.488 -22.885  0.00  0.00    -0.080 HD
ENDROOT
BRANCH   2   9
ATOM      8  O   UNL     1      37.797 -18.661 -21.023  0.00  0.00    -0.247 OA
ATOM      9  N   UNL     1      35.488 -19.150 -20.733  0.00  0.00    -0.282 N 
ATOM     10  N   UNL     1      37.024 -20.546 -19.822  0.00  0.00    -0.305 N 
ATOM     11  C   UNL     1      34.803 -20.182 -20.078  0.00  0.00    +0.079 A 
ATOM     12  C   UNL     1      36.888 -19.353 -20.588  0.00  0.00    +0.328 A 
ATOM     13  C   UNL     1      35.753 -21.035 -19.521  0.00  0.00    +0.076 A 
ATOM     14  C   UNL     1      33.452 -20.418 -19.939  0.00  0.00    +0.019 C 
ATOM     15  C   UNL     1      35.406 -22.159 -18.803  0.00  0.00    +0.019 C 
ATOM     16  C   UNL     1      33.073 -21.553 -19.214  0.00  0.00    +0.002 C 
ATOM     17  C   UNL     1      34.040 -22.414 -18.653  0.00  0.00    +0.002 C 
ATOM     18  H   UNL     1      37.876 -20.957 -19.550  0.00  0.00    +0.170 HD
ENDBRANCH   2   9
BRANCH   1  19
ATOM     19  C   UNL     1      34.611 -14.389 -23.662  0.00  0.00    -0.077 C 
BRANCH  19  20
ATOM     20  C   UNL     1      34.206 -13.281 -22.687  0.00  0.00    -0.015 C 
BRANCH  20  21
ATOM     21  C   UNL     1      32.694 -13.040 -22.677  0.00  0.00    +0.067 C 
BRANCH  21  23
ATOM     22  O   UNL     1      31.755 -13.934 -20.642  0.00  0.00    -0.291 OA
ATOM     23  C   UNL     1      32.107 -12.942 -21.277  0.00  0.00    +0.173 C 
BRANCH  23  25
ATOM     24  F   UNL     1      31.611  -7.901 -18.928  0.00  0.00    -0.204 F 
ATOM     25  C   UNL     1      31.974 -11.596 -20.650  0.00  0.00    +0.035 C 
ATOM     26  C   UNL     1      32.014 -11.500 -19.277  0.00  0.00    +0.005 C 
ATOM     27  C   UNL     1      31.816 -10.499 -21.467  0.00  0.00    +0.005 C 
ATOM     28  C   UNL     1      31.891 -10.241 -18.690  0.00  0.00    +0.030 C 
ATOM     29  C   UNL     1      31.693  -9.240 -20.880  0.00  0.00    +0.030 C 
ATOM     30  C   UNL     1      31.730  -9.110 -19.492  0.00  0.00    +0.140 C 
ENDBRANCH  23  25
ENDBRANCH  21  23
ENDBRANCH  20  21
ENDBRANCH  19  20
ENDBRANCH   1  19
TORSDOF 6
ENDMDL
MODEL 4
REMARK VINA RESULT:     -11.3      1.265      1.998
REMARK  Name = 16363
REMARK  6 active torsions:
REMARK  status: ('A' for Active; 'I' for Inactive)
REMARK    1  A    between atoms: N_1  and  C_19
REMARK    2  A    between atoms: C_2  and  N_9
REMARK    3  A    between atoms: C_19  and  C_20
REMARK    4  A    between atoms: C_20  and  C_21
REMARK    5  A    between atoms: C_21  and  C_23
REMARK    6  A    between atoms: C_23  and  C_25
REMARK                            x       y       z     vdW  Elec       q    Type
REMARK                         _______ _______ _______ _____ _____    ______ ____
ROOT
ATOM      1  N   UNL     1      34.627 -14.895 -23.394  0.00  0.00    +0.387 N 
ATOM      2  C   UNL     1      32.862 -12.633 -22.821  0.00  0.00    +0.086 C 
ATOM      3  C   UNL     1      33.930 -13.106 -21.835  0.00  0.00    -0.000 C 
ATOM      4  C   UNL     1      33.251 -13.025 -24.246  0.00  0.00    -0.000 C 
ATOM      5  C   UNL     1      34.229 -14.596 -22.011  0.00  0.00    -0.075 C 
ATOM      6  C   UNL     1      33.573 -14.517 -24.345  0.00  0.00    -0.075 C 
ATOM      7  H   UNL     1      35.457 -14.342 -23.609  0.00  0.00    -0.080 HD
ENDROOT
BRANCH   2   9
ATOM      8  O   UNL     1      30.463 -11.119 -21.799  0.00  0.00    -0.247 OA
ATOM      9  N   UNL     1      32.654 -11.211 -22.718  0.00  0.00    -0.282 N 
ATOM     10  N   UNL     1      31.725  -9.184 -22.307  0.00  0.00    -0.305 N 
ATOM     11  C   UNL     1      33.576 -10.225 -23.094  0.00  0.00    +0.079 A 
ATOM     12  C   UNL     1      31.479 -10.584 -22.219  0.00  0.00    +0.328 A 
ATOM     13  C   UNL     1      32.999  -8.983 -22.838  0.00  0.00    +0.076 A 
ATOM     14  C   UNL     1      34.844 -10.336 -23.625  0.00  0.00    +0.019 C 
ATOM     15  C   UNL     1      33.651  -7.798 -23.098  0.00  0.00    +0.019 C 
ATOM     16  C   UNL     1      35.527  -9.146 -23.898  0.00  0.00    +0.002 C 
ATOM     17  C   UNL     1      34.937  -7.891 -23.638  0.00  0.00    +0.002 C 
ATOM     18  H   UNL     1      31.098  -8.475 -22.037  0.00  0.00    +0.170 HD
ENDBRANCH   2   9
BRANCH   1  19
ATOM     19  C   UNL     1      34.959 -16.313 -23.535  0.00  0.00    -0.077 C 
BRANCH  19  20
ATOM     20  C   UNL     1      35.336 -16.905 -22.176  0.00  0.00    -0.015 C 
BRANCH  20  21
ATOM     21  C   UNL     1      35.387 -18.436 -22.204  0.00  0.00    +0.067 C 
BRANCH  21  23
ATOM     22  O   UNL     1      37.122 -18.681 -20.544  0.00  0.00    -0.291 OA
ATOM     23  C   UNL     1      36.023 -19.042 -20.961  0.00  0.00    +0.173 C 
BRANCH  23  25
ATOM     24  F   UNL     1      33.221 -22.988 -18.177  0.00  0.00    -0.204 F 
ATOM     25  C   UNL     1      35.276 -20.095 -20.217  0.00  0.00    +0.035 C 
ATOM     26  C   UNL     1      33.903 -20.129 -20.322  0.00  0.00    +0.005 C 
ATOM     27  C   UNL     1      35.985 -20.995 -19.454  0.00  0.00    +0.005 C 
ATOM     28  C   UNL     1      33.203 -21.115 -19.627  0.00  0.00    +0.030 C 
ATOM     29  C   UNL     1      35.284 -21.981 -18.759  0.00  0.00    +0.030 C 
ATOM     30  C   UNL     1      33.894 -22.041 -18.845  0.00  0.00    +0.140 C 
ENDBRANCH  23  25
ENDBRANCH  21  23
ENDBRANCH  20  21
ENDBRANCH  19  20
ENDBRANCH   1  19
TORSDOF 6
ENDMDL
MODEL 5
REMARK VINA RESULT:     -11.1      3.382      5.925
REMARK  Name = 16363
REMARK  6 active torsions:
REMARK  status: ('A' for Active; 'I' for Inactive)
REMARK    1  A    between atoms: N_1  and  C_19
REMARK    2  A    between atoms: C_2  and  N_9
REMARK    3  A    between atoms: C_19  and  C_20
REMARK    4  A    between atoms: C_20  and  C_21
REMARK    5  A    between atoms: C_21  and  C_23
REMARK    6  A    between atoms: C_23  and  C_25
REMARK                            x       y       z     vdW  Elec       q    Type
REMARK                         _______ _______ _______ _____ _____    ______ ____
ROOT
ATOM      1  N   UNL     1      35.970 -19.970 -19.726  0.00  0.00    +0.387 N 
ATOM      2  C   UNL     1      35.362 -18.458 -22.156  0.00  0.00    +0.086 C 
ATOM      3  C   UNL     1      34.269 -19.058 -21.272  0.00  0.00    -0.000 C 
ATOM      4  C   UNL     1      36.627 -18.209 -21.334  0.00  0.00    -0.000 C 
ATOM      5  C   UNL     1      34.776 -20.290 -20.520  0.00  0.00    -0.075 C 
ATOM      6  C   UNL     1      37.057 -19.468 -20.579  0.00  0.00    -0.075 C 
ATOM      7  H   UNL     1      35.722 -19.233 -19.067  0.00  0.00    -0.080 HD
ENDROOT
BRANCH   2   9
ATOM      8  O   UNL     1      34.633 -17.955 -25.039  0.00  0.00    -0.247 OA
ATOM      9  N   UNL     1      34.912 -17.244 -22.787  0.00  0.00    -0.282 N 
ATOM     10  N   UNL     1      34.199 -15.742 -24.328  0.00  0.00    -0.305 N 
ATOM     11  C   UNL     1      34.722 -16.015 -22.141  0.00  0.00    +0.079 A 
ATOM     12  C   UNL     1      34.589 -17.101 -24.165  0.00  0.00    +0.328 A 
ATOM     13  C   UNL     1      34.284 -15.097 -23.094  0.00  0.00    +0.076 A 
ATOM     14  C   UNL     1      34.900 -15.655 -20.822  0.00  0.00    +0.019 C 
ATOM     15  C   UNL     1      34.003 -13.785 -22.782  0.00  0.00    +0.019 C 
ATOM     16  C   UNL     1      34.622 -14.328 -20.479  0.00  0.00    +0.002 C 
ATOM     17  C   UNL     1      34.178 -13.403 -21.449  0.00  0.00    +0.002 C 
ATOM     18  H   UNL     1      33.914 -15.325 -25.173  0.00  0.00    +0.170 HD
ENDBRANCH   2   9
BRANCH   1  19
ATOM     19  C   UNL     1      36.413 -21.144 -18.973  0.00  0.00    -0.077 C 
BRANCH  19  20
ATOM     20  C   UNL     1      35.318 -22.213 -18.968  0.00  0.00    -0.015 C 
BRANCH  20  21
ATOM     21  C   UNL     1      34.766 -22.473 -17.564  0.00  0.00    +0.067 C 
BRANCH  21  23
ATOM     22  O   UNL     1      32.552 -22.429 -18.524  0.00  0.00    -0.291 OA
ATOM     23  C   UNL     1      33.248 -22.584 -17.523  0.00  0.00    +0.173 C 
BRANCH  23  25
ATOM     24  F   UNL     1      30.790 -23.811 -12.662  0.00  0.00    -0.204 F 
ATOM     25  C   UNL     1      32.592 -22.912 -16.226  0.00  0.00    +0.035 C 
ATOM     26  C   UNL     1      33.379 -23.321 -15.172  0.00  0.00    +0.005 C 
ATOM     27  C   UNL     1      31.224 -22.793 -16.128  0.00  0.00    +0.005 C 
ATOM     28  C   UNL     1      32.765 -23.627 -13.958  0.00  0.00    +0.030 C 
ATOM     29  C   UNL     1      30.610 -23.099 -14.914  0.00  0.00    +0.030 C 
ATOM     30  C   UNL     1      31.380 -23.516 -13.829  0.00  0.00    +0.140 C 
ENDBRANCH  23  25
ENDBRANCH  21  23
ENDBRANCH  20  21
ENDBRANCH  19  20
ENDBRANCH   1  19
TORSDOF 6
ENDMDL
MODEL 6
REMARK VINA RESULT:     -10.9      6.171     12.177
REMARK  Name = 16363
REMARK  6 active torsions:
REMARK  status: ('A' for Active; 'I' for Inactive)
REMARK    1  A    between atoms: N_1  and  C_19
REMARK    2  A    between atoms: C_2  and  N_9
REMARK    3  A    between atoms: C_19  and  C_20
REMARK    4  A    between atoms: C_20  and  C_21
REMARK    5  A    between atoms: C_21  and  C_23
REMARK    6  A    between atoms: C_23  and  C_25
REMARK                            x       y       z     vdW  Elec       q    Type
REMARK                         _______ _______ _______ _____ _____    ______ ____
ROOT
ATOM      1  N   UNL     1      34.574 -22.666 -17.882  0.00  0.00    +0.387 N 
ATOM      2  C   UNL     1      34.960 -23.043 -15.006  0.00  0.00    +0.086 C 
ATOM      3  C   UNL     1      33.835 -23.734 -15.777  0.00  0.00    -0.000 C 
ATOM      4  C   UNL     1      36.117 -22.709 -15.949  0.00  0.00    -0.000 C 
ATOM      5  C   UNL     1      33.422 -22.921 -17.005  0.00  0.00    -0.075 C 
ATOM      6  C   UNL     1      35.630 -21.930 -17.172  0.00  0.00    -0.075 C 
ATOM      7  H   UNL     1      34.957 -23.567 -18.168  0.00  0.00    -0.080 HD
ENDROOT
BRANCH   2   9
ATOM      8  O   UNL     1      33.475 -23.912 -12.530  0.00  0.00    -0.247 OA
ATOM      9  N   UNL     1      35.413 -23.856 -13.906  0.00  0.00    -0.282 N 
ATOM     10  N   UNL     1      35.487 -25.016 -11.961  0.00  0.00    -0.305 N 
ATOM     11  C   UNL     1      36.690 -24.419 -13.784  0.00  0.00    +0.079 A 
ATOM     12  C   UNL     1      34.634 -24.217 -12.773  0.00  0.00    +0.328 A 
ATOM     13  C   UNL     1      36.728 -25.130 -12.586  0.00  0.00    +0.076 A 
ATOM     14  C   UNL     1      37.785 -24.355 -14.619  0.00  0.00    +0.019 C 
ATOM     15  C   UNL     1      37.851 -25.808 -12.165  0.00  0.00    +0.019 C 
ATOM     16  C   UNL     1      38.938 -25.035 -14.214  0.00  0.00    +0.002 C 
ATOM     17  C   UNL     1      38.971 -25.753 -12.999  0.00  0.00    +0.002 C 
ATOM     18  H   UNL     1      35.240 -25.423 -11.099  0.00  0.00    +0.170 HD
ENDBRANCH   2   9
BRANCH   1  19
ATOM     19  C   UNL     1      34.155 -21.933 -19.077  0.00  0.00    -0.077 C 
BRANCH  19  20
ATOM     20  C   UNL     1      35.253 -20.961 -19.512  0.00  0.00    -0.015 C 
BRANCH  20  21
ATOM     21  C   UNL     1      34.870 -20.178 -20.772  0.00  0.00    +0.067 C 
BRANCH  21  23
ATOM     22  O   UNL     1      36.729 -18.704 -20.329  0.00  0.00    -0.291 OA
ATOM     23  C   UNL     1      35.721 -18.937 -20.994  0.00  0.00    +0.173 C 
BRANCH  23  25
ATOM     24  F   UNL     1      34.238 -15.366 -25.021  0.00  0.00    -0.204 F 
ATOM     25  C   UNL     1      35.326 -17.983 -22.069  0.00  0.00    +0.035 C 
ATOM     26  C   UNL     1      34.884 -18.489 -23.271  0.00  0.00    +0.005 C 
ATOM     27  C   UNL     1      35.417 -16.632 -21.821  0.00  0.00    +0.005 C 
ATOM     28  C   UNL     1      34.513 -17.598 -24.277  0.00  0.00    +0.030 C 
ATOM     29  C   UNL     1      35.046 -15.740 -22.827  0.00  0.00    +0.030 C 
ATOM     30  C   UNL     1      34.594 -16.222 -24.055  0.00  0.00    +0.140 C 
ENDBRANCH  23  25
ENDBRANCH  21  23
ENDBRANCH  20  21
ENDBRANCH  19  20
ENDBRANCH   1  19
TORSDOF 6
ENDMDL
MODEL 7
REMARK VINA RESULT:     -10.9      4.205     10.116
REMARK  Name = 16363
REMARK  6 active torsions:
REMARK  status: ('A' for Active; 'I' for Inactive)
REMARK    1  A    between atoms: N_1  and  C_19
REMARK    2  A    between atoms: C_2  and  N_9
REMARK    3  A    between atoms: C_19  and  C_20
REMARK    4  A    between atoms: C_20  and  C_21
REMARK    5  A    between atoms: C_21  and  C_23
REMARK    6  A    between atoms: C_23  and  C_25
REMARK                            x       y       z     vdW  Elec       q    Type
REMARK                         _______ _______ _______ _____ _____    ______ ____
ROOT
ATOM      1  N   UNL     1      35.916 -18.977 -20.751  0.00  0.00    +0.387 N 
ATOM      2  C   UNL     1      35.305 -21.435 -19.287  0.00  0.00    +0.086 C 
ATOM      3  C   UNL     1      36.562 -20.610 -19.010  0.00  0.00    -0.000 C 
ATOM      4  C   UNL     1      34.213 -20.547 -19.883  0.00  0.00    -0.000 C 
ATOM      5  C   UNL     1      37.001 -19.833 -20.253  0.00  0.00    -0.075 C 
ATOM      6  C   UNL     1      34.728 -19.770 -21.096  0.00  0.00    -0.075 C 
ATOM      7  H   UNL     1      35.656 -18.331 -20.006  0.00  0.00    -0.080 HD
ENDROOT
BRANCH   2   9
ATOM      8  O   UNL     1      32.561 -22.503 -18.633  0.00  0.00    -0.247 OA
ATOM      9  N   UNL     1      34.839 -22.088 -18.090  0.00  0.00    -0.282 N 
ATOM     10  N   UNL     1      33.523 -23.127 -16.565  0.00  0.00    -0.305 N 
ATOM     11  C   UNL     1      35.617 -22.359 -16.956  0.00  0.00    +0.079 A 
ATOM     12  C   UNL     1      33.516 -22.561 -17.871  0.00  0.00    +0.328 A 
ATOM     13  C   UNL     1      34.802 -22.997 -16.024  0.00  0.00    +0.076 A 
ATOM     14  C   UNL     1      36.944 -22.095 -16.693  0.00  0.00    +0.019 C 
ATOM     15  C   UNL     1      35.266 -23.401 -14.791  0.00  0.00    +0.019 C 
ATOM     16  C   UNL     1      37.440 -22.495 -15.448  0.00  0.00    +0.002 C 
ATOM     17  C   UNL     1      36.609 -23.141 -14.507  0.00  0.00    +0.002 C 
ATOM     18  H   UNL     1      32.751 -23.542 -16.116  0.00  0.00    +0.170 HD
ENDBRANCH   2   9
BRANCH   1  19
ATOM     19  C   UNL     1      36.366 -18.201 -21.908  0.00  0.00    -0.077 C 
BRANCH  19  20
ATOM     20  C   UNL     1      35.169 -17.561 -22.613  0.00  0.00    -0.015 C 
BRANCH  20  21
ATOM     21  C   UNL     1      35.216 -16.031 -22.564  0.00  0.00    +0.067 C 
BRANCH  21  23
ATOM     22  O   UNL     1      34.952 -15.896 -20.169  0.00  0.00    -0.291 OA
ATOM     23  C   UNL     1      34.654 -15.449 -21.275  0.00  0.00    +0.173 C 
BRANCH  23  25
ATOM     24  F   UNL     1      31.178 -11.092 -21.595  0.00  0.00    -0.204 F 
ATOM     25  C   UNL     1      33.726 -14.286 -21.361  0.00  0.00    +0.035 C 
ATOM     26  C   UNL     1      32.844 -14.067 -20.326  0.00  0.00    +0.005 C 
ATOM     27  C   UNL     1      33.785 -13.474 -22.471  0.00  0.00    +0.005 C 
ATOM     28  C   UNL     1      31.976 -12.979 -20.406  0.00  0.00    +0.030 C 
ATOM     29  C   UNL     1      32.917 -12.385 -22.551  0.00  0.00    +0.030 C 
ATOM     30  C   UNL     1      32.013 -12.137 -21.519  0.00  0.00    +0.140 C 
ENDBRANCH  23  25
ENDBRANCH  21  23
ENDBRANCH  20  21
ENDBRANCH  19  20
ENDBRANCH   1  19
TORSDOF 6
ENDMDL
MODEL 8
REMARK VINA RESULT:     -10.7      1.161      1.884
REMARK  Name = 16363
REMARK  6 active torsions:
REMARK  status: ('A' for Active; 'I' for Inactive)
REMARK    1  A    between atoms: N_1  and  C_19
REMARK    2  A    between atoms: C_2  and  N_9
REMARK    3  A    between atoms: C_19  and  C_20
REMARK    4  A    between atoms: C_20  and  C_21
REMARK    5  A    between atoms: C_21  and  C_23
REMARK    6  A    between atoms: C_23  and  C_25
REMARK                            x       y       z     vdW  Elec       q    Type
REMARK                         _______ _______ _______ _____ _____    ______ ____
ROOT
ATOM      1  N   UNL     1      34.504 -14.569 -22.794  0.00  0.00    +0.387 N 
ATOM      2  C   UNL     1      32.540 -12.631 -21.821  0.00  0.00    +0.086 C 
ATOM      3  C   UNL     1      33.661 -13.174 -20.934  0.00  0.00    -0.000 C 
ATOM      4  C   UNL     1      32.945 -12.714 -23.292  0.00  0.00    -0.000 C 
ATOM      5  C   UNL     1      34.097 -14.570 -21.382  0.00  0.00    -0.075 C 
ATOM      6  C   UNL     1      33.406 -14.125 -23.664  0.00  0.00    -0.075 C 
ATOM      7  H   UNL     1      35.274 -13.910 -22.899  0.00  0.00    -0.080 HD
ENDROOT
BRANCH   2   9
ATOM      8  O   UNL     1      31.758 -11.510 -19.133  0.00  0.00    -0.247 OA
ATOM      9  N   UNL     1      32.199 -11.279 -21.458  0.00  0.00    -0.282 N 
ATOM     10  N   UNL     1      31.592  -9.445 -20.273  0.00  0.00    -0.305 N 
ATOM     11  C   UNL     1      32.169 -10.186 -22.334  0.00  0.00    +0.079 A 
ATOM     12  C   UNL     1      31.841 -10.842 -20.153  0.00  0.00    +0.328 A 
ATOM     13  C   UNL     1      31.795  -9.062 -21.599  0.00  0.00    +0.076 A 
ATOM     14  C   UNL     1      32.437 -10.107 -23.684  0.00  0.00    +0.019 C 
ATOM     15  C   UNL     1      31.670  -7.815 -22.169  0.00  0.00    +0.019 C 
ATOM     16  C   UNL     1      32.317  -8.851 -24.287  0.00  0.00    +0.002 C 
ATOM     17  C   UNL     1      31.938  -7.717 -23.537  0.00  0.00    +0.002 C 
ATOM     18  H   UNL     1      31.321  -8.846 -19.539  0.00  0.00    +0.170 HD
ENDBRANCH   2   9
BRANCH   1  19
ATOM     19  C   UNL     1      34.967 -15.898 -23.194  0.00  0.00    -0.077 C 
BRANCH  19  20
ATOM     20  C   UNL     1      35.400 -16.699 -21.964  0.00  0.00    -0.015 C 
BRANCH  20  21
ATOM     21  C   UNL     1      35.734 -18.154 -22.307  0.00  0.00    +0.067 C 
BRANCH  21  23
ATOM     22  O   UNL     1      37.518 -18.751 -20.795  0.00  0.00    -0.291 OA
ATOM     23  C   UNL     1      36.353 -18.921 -21.147  0.00  0.00    +0.173 C 
BRANCH  23  25
ATOM     24  F   UNL     1      33.179 -22.575 -18.364  0.00  0.00    -0.204 F 
ATOM     25  C   UNL     1      35.506 -19.896 -20.403  0.00  0.00    +0.035 C 
ATOM     26  C   UNL     1      34.138 -19.831 -20.552  0.00  0.00    +0.005 C 
ATOM     27  C   UNL     1      36.122 -20.826 -19.596  0.00  0.00    +0.005 C 
ATOM     28  C   UNL     1      33.345 -20.744 -19.857  0.00  0.00    +0.030 C 
ATOM     29  C   UNL     1      35.329 -21.739 -18.901  0.00  0.00    +0.030 C 
ATOM     30  C   UNL     1      33.941 -21.699 -19.031  0.00  0.00    +0.140 C 
ENDBRANCH  23  25
ENDBRANCH  21  23
ENDBRANCH  20  21
ENDBRANCH  19  20
ENDBRANCH   1  19
TORSDOF 6
ENDMDL
MODEL 9
REMARK VINA RESULT:     -10.7      4.663     10.311
REMARK  Name = 16363
REMARK  6 active torsions:
REMARK  status: ('A' for Active; 'I' for Inactive)
REMARK    1  A    between atoms: N_1  and  C_19
REMARK    2  A    between atoms: C_2  and  N_9
REMARK    3  A    between atoms: C_19  and  C_20
REMARK    4  A    between atoms: C_20  and  C_21
REMARK    5  A    between atoms: C_21  and  C_23
REMARK    6  A    between atoms: C_23  and  C_25
REMARK                            x       y       z     vdW  Elec       q    Type
REMARK                         _______ _______ _______ _____ _____    ______ ____
ROOT
ATOM      1  N   UNL     1      32.325 -10.598 -22.050  0.00  0.00    +0.387 N 
ATOM      2  C   UNL     1      32.797 -13.039 -23.592  0.00  0.00    +0.086 C 
ATOM      3  C   UNL     1      33.798 -11.884 -23.563  0.00  0.00    -0.000 C 
ATOM      4  C   UNL     1      31.942 -13.026 -22.325  0.00  0.00    -0.000 C 
ATOM      5  C   UNL     1      33.100 -10.550 -23.298  0.00  0.00    -0.075 C 
ATOM      6  C   UNL     1      31.304 -11.654 -22.098  0.00  0.00    -0.075 C 
ATOM      7  H   UNL     1      32.967 -10.816 -21.289  0.00  0.00    -0.080 HD
ENDROOT
BRANCH   2   9
ATOM      8  O   UNL     1      33.199 -14.706 -26.073  0.00  0.00    -0.247 OA
ATOM      9  N   UNL     1      33.468 -14.305 -23.744  0.00  0.00    -0.282 N 
ATOM     10  N   UNL     1      34.334 -16.202 -24.634  0.00  0.00    -0.305 N 
ATOM     11  C   UNL     1      34.087 -15.026 -22.714  0.00  0.00    +0.079 A 
ATOM     12  C   UNL     1      33.609 -15.021 -24.964  0.00  0.00    +0.328 A 
ATOM     13  C   UNL     1      34.616 -16.190 -23.268  0.00  0.00    +0.076 A 
ATOM     14  C   UNL     1      34.214 -14.745 -21.371  0.00  0.00    +0.019 C 
ATOM     15  C   UNL     1      35.294 -17.124 -22.517  0.00  0.00    +0.019 C 
ATOM     16  C   UNL     1      34.899 -15.678 -20.585  0.00  0.00    +0.002 C 
ATOM     17  C   UNL     1      35.433 -16.855 -21.153  0.00  0.00    +0.002 C 
ATOM     18  H   UNL     1      34.594 -16.910 -25.267  0.00  0.00    +0.170 HD
ENDBRANCH   2   9
BRANCH   1  19
ATOM     19  C   UNL     1      31.705  -9.300 -21.783  0.00  0.00    -0.077 C 
BRANCH  19  20
ATOM     20  C   UNL     1      31.952  -8.884 -20.332  0.00  0.00    -0.015 C 
BRANCH  20  21
ATOM     21  C   UNL     1      32.840  -7.642 -20.226  0.00  0.00    +0.067 C 
BRANCH  21  23
ATOM     22  O   UNL     1      31.506  -5.812 -21.061  0.00  0.00    -0.291 OA
ATOM     23  C   UNL     1      32.475  -6.551 -21.223  0.00  0.00    +0.173 C 
BRANCH  23  25
ATOM     24  F   UNL     1      35.704  -5.856 -25.724  0.00  0.00    -0.204 F 
ATOM     25  C   UNL     1      33.337  -6.365 -22.424  0.00  0.00    +0.035 C 
ATOM     26  C   UNL     1      34.540  -7.033 -22.484  0.00  0.00    +0.005 C 
ATOM     27  C   UNL     1      32.899  -5.532 -23.430  0.00  0.00    +0.005 C 
ATOM     28  C   UNL     1      35.346  -6.860 -23.608  0.00  0.00    +0.030 C 
ATOM     29  C   UNL     1      33.706  -5.359 -24.554  0.00  0.00    +0.030 C 
ATOM     30  C   UNL     1      34.929  -6.022 -24.644  0.00  0.00    +0.140 C 
ENDBRANCH  23  25
ENDBRANCH  21  23
ENDBRANCH  20  21
ENDBRANCH  19  20
ENDBRANCH   1  19
TORSDOF 6
ENDMDL
