MODEL 1
REMARK VINA RESULT:     -11.5      0.000      0.000
REMARK  Name = 24780387
REMARK  3 active torsions:
REMARK  status: ('A' for Active; 'I' for Inactive)
REMARK    1  A    between atoms: N_3  and  C_25
REMARK    2  A    between atoms: C_18  and  O_23
REMARK    3  A    between atoms: C_25  and  N_26
REMARK                            x       y       z     vdW  Elec       q    Type
REMARK                         _______ _______ _______ _____ _____    ______ ____
ROOT
ATOM      1  O   UNL     1      32.559 -22.332 -18.637  0.00  0.00    -0.270 OA
ATOM      2  O   UNL     1      36.673 -22.802 -16.586  0.00  0.00    -0.270 OA
ATOM      3  N   UNL     1      34.807 -22.484 -17.963  0.00  0.00    -0.244 N 
ATOM      4  N   UNL     1      33.622 -23.781 -12.426  0.00  0.00    -0.353 N 
ATOM      5  C   UNL     1      32.031 -22.978 -15.719  0.00  0.00    -0.020 A 
ATOM      6  C   UNL     1      32.083 -23.306 -14.356  0.00  0.00    -0.010 A 
ATOM      7  C   UNL     1      33.204 -22.829 -16.409  0.00  0.00    +0.054 A 
ATOM      8  C   UNL     1      30.618 -22.893 -16.195  0.00  0.00    +0.027 C 
ATOM      9  C   UNL     1      30.695 -23.475 -13.803  0.00  0.00    +0.028 C 
ATOM     10  C   UNL     1      33.325 -23.461 -13.725  0.00  0.00    +0.052 A 
ATOM     11  C   UNL     1      34.438 -22.978 -15.777  0.00  0.00    +0.059 A 
ATOM     12  C   UNL     1      29.861 -22.748 -14.866  0.00  0.00    +0.009 C 
ATOM     13  C   UNL     1      34.544 -23.299 -14.410  0.00  0.00    +0.024 A 
ATOM     14  C   UNL     1      33.440 -22.514 -17.817  0.00  0.00    +0.253 C 
ATOM     15  C   UNL     1      35.474 -22.752 -16.786  0.00  0.00    +0.253 C 
ATOM     16  C   UNL     1      35.591 -23.527 -13.454  0.00  0.00    +0.051 A 
ATOM     17  C   UNL     1      34.981 -23.824 -12.231  0.00  0.00    +0.060 A 
ATOM     18  C   UNL     1      37.002 -23.515 -13.493  0.00  0.00    +0.140 C 
ATOM     19  C   UNL     1      35.702 -24.106 -11.064  0.00  0.00    +0.017 C 
ATOM     20  C   UNL     1      37.739 -23.794 -12.334  0.00  0.00    +0.037 C 
ATOM     21  C   UNL     1      37.095 -24.085 -11.136  0.00  0.00    +0.005 C 
ATOM     22  H   UNL     1      32.952 -23.956 -11.725  0.00  0.00    +0.166 HD
ENDROOT
BRANCH  18  23
ATOM     23  O   UNL     1      37.757 -23.237 -14.598  0.00  0.00    -0.471 OA
ATOM     24  C   UNL     1      38.858 -24.100 -14.860  0.00  0.00    +0.252 C 
ENDBRANCH  18  23
BRANCH   3  25
ATOM     25  C   UNL     1      35.488 -22.205 -19.213  0.00  0.00    +0.028 C 
BRANCH  25  26
ATOM     26  N   UNL     1      35.382 -20.778 -19.507  0.00  0.00    +0.396 N 
ATOM     27  N   UNL     1      35.509 -18.496 -21.278  0.00  0.00    +0.383 N 
ATOM     28  C   UNL     1      36.669 -20.245 -19.973  0.00  0.00    -0.098 C 
ATOM     29  C   UNL     1      34.333 -20.526 -20.503  0.00  0.00    -0.098 C 
ATOM     30  C   UNL     1      36.559 -18.748 -20.284  0.00  0.00    -0.101 C 
ATOM     31  C   UNL     1      34.223 -19.029 -20.812  0.00  0.00    -0.101 C 
ATOM     32  C   UNL     1      35.404 -17.067 -21.570  0.00  0.00    -0.101 C 
ATOM     33  H   UNL     1      35.129 -20.296 -18.644  0.00  0.00    -0.077 HD
ATOM     34  H   UNL     1      35.762 -18.975 -22.141  0.00  0.00    -0.080 HD
ENDBRANCH  25  26
ENDBRANCH   3  25
TORSDOF 3
ENDMDL
MODEL 2
REMARK VINA RESULT:      -9.5      2.580      7.212
REMARK  Name = 24780387
REMARK  3 active torsions:
REMARK  status: ('A' for Active; 'I' for Inactive)
REMARK    1  A    between atoms: N_3  and  C_25
REMARK    2  A    between atoms: C_18  and  O_23
REMARK    3  A    between atoms: C_25  and  N_26
REMARK                            x       y       z     vdW  Elec       q    Type
REMARK                         _______ _______ _______ _____ _____    ______ ____
ROOT
ATOM      1  O   UNL     1      37.136 -23.013 -15.658  0.00  0.00    -0.270 OA
ATOM      2  O   UNL     1      33.386 -24.029 -13.157  0.00  0.00    -0.270 OA
ATOM      3  N   UNL     1      35.495 -23.636 -14.094  0.00  0.00    -0.244 N 
ATOM      4  N   UNL     1      30.977 -22.405 -17.531  0.00  0.00    -0.353 N 
ATOM      5  C   UNL     1      34.717 -22.363 -17.373  0.00  0.00    -0.020 A 
ATOM      6  C   UNL     1      33.447 -22.178 -17.939  0.00  0.00    -0.010 A 
ATOM      7  C   UNL     1      34.811 -22.860 -16.102  0.00  0.00    +0.054 A 
ATOM      8  C   UNL     1      35.793 -21.998 -18.344  0.00  0.00    +0.027 C 
ATOM      9  C   UNL     1      33.568 -21.677 -19.351  0.00  0.00    +0.028 C 
ATOM     10  C   UNL     1      32.302 -22.493 -17.193  0.00  0.00    +0.052 A 
ATOM     11  C   UNL     1      33.670 -23.166 -15.360  0.00  0.00    +0.059 A 
ATOM     12  C   UNL     1      35.009 -21.150 -19.357  0.00  0.00    +0.009 C 
ATOM     13  C   UNL     1      32.373 -22.993 -15.880  0.00  0.00    +0.024 A 
ATOM     14  C   UNL     1      35.987 -23.165 -15.288  0.00  0.00    +0.253 C 
ATOM     15  C   UNL     1      34.116 -23.666 -14.060  0.00  0.00    +0.253 C 
ATOM     16  C   UNL     1      31.020 -23.191 -15.438  0.00  0.00    +0.051 A 
ATOM     17  C   UNL     1      30.179 -22.815 -16.491  0.00  0.00    +0.060 A 
ATOM     18  C   UNL     1      30.412 -23.654 -14.251  0.00  0.00    +0.140 C 
ATOM     19  C   UNL     1      28.782 -22.878 -16.415  0.00  0.00    +0.017 C 
ATOM     20  C   UNL     1      29.016 -23.722 -14.158  0.00  0.00    +0.037 C 
ATOM     21  C   UNL     1      28.213 -23.339 -15.228  0.00  0.00    +0.005 C 
ATOM     22  H   UNL     1      30.640 -22.089 -18.401  0.00  0.00    +0.166 HD
ENDROOT
BRANCH  18  23
ATOM     23  O   UNL     1      31.081 -24.050 -13.127  0.00  0.00    -0.471 OA
ATOM     24  C   UNL     1      30.487 -25.092 -12.358  0.00  0.00    +0.252 C 
ENDBRANCH  18  23
BRANCH   3  25
ATOM     25  C   UNL     1      36.324 -24.060 -12.981  0.00  0.00    +0.028 C 
BRANCH  25  26
ATOM     26  N   UNL     1      37.559 -24.643 -13.500  0.00  0.00    +0.396 N 
ATOM     27  N   UNL     1      39.814 -26.448 -13.361  0.00  0.00    +0.383 N 
ATOM     28  C   UNL     1      38.679 -24.396 -12.583  0.00  0.00    -0.098 C 
ATOM     29  C   UNL     1      37.398 -26.084 -13.735  0.00  0.00    -0.098 C 
ATOM     30  C   UNL     1      39.975 -25.009 -13.126  0.00  0.00    -0.101 C 
ATOM     31  C   UNL     1      38.694 -26.696 -14.278  0.00  0.00    -0.101 C 
ATOM     32  C   UNL     1      41.049 -27.030 -13.882  0.00  0.00    -0.101 C 
ATOM     33  H   UNL     1      37.769 -24.194 -14.392  0.00  0.00    -0.077 HD
ATOM     34  H   UNL     1      39.605 -26.898 -12.470  0.00  0.00    -0.080 HD
ENDBRANCH  25  26
ENDBRANCH   3  25
TORSDOF 3
ENDMDL
MODEL 3
REMARK VINA RESULT:      -9.0      1.216      4.483
REMARK  Name = 24780387
REMARK  3 active torsions:
REMARK  status: ('A' for Active; 'I' for Inactive)
REMARK    1  A    between atoms: N_3  and  C_25
REMARK    2  A    between atoms: C_18  and  O_23
REMARK    3  A    between atoms: C_25  and  N_26
REMARK                            x       y       z     vdW  Elec       q    Type
REMARK                         _______ _______ _______ _____ _____    ______ ____
ROOT
ATOM      1  O   UNL     1      36.826 -22.160 -17.891  0.00  0.00    -0.270 OA
ATOM      2  O   UNL     1      32.250 -22.797 -17.804  0.00  0.00    -0.270 OA
ATOM      3  N   UNL     1      34.512 -22.389 -18.245  0.00  0.00    -0.244 N 
ATOM      4  N   UNL     1      33.269 -23.846 -12.760  0.00  0.00    -0.353 N 
ATOM      5  C   UNL     1      36.091 -22.962 -15.057  0.00  0.00    -0.020 A 
ATOM      6  C   UNL     1      35.473 -23.320 -13.850  0.00  0.00    -0.010 A 
ATOM      7  C   UNL     1      35.317 -22.790 -16.172  0.00  0.00    +0.054 A 
ATOM      8  C   UNL     1      37.563 -22.784 -14.872  0.00  0.00    +0.027 C 
ATOM      9  C   UNL     1      36.488 -23.406 -12.744  0.00  0.00    +0.028 C 
ATOM     10  C   UNL     1      34.084 -23.506 -13.809  0.00  0.00    +0.052 A 
ATOM     11  C   UNL     1      33.936 -22.982 -16.130  0.00  0.00    +0.059 A 
ATOM     12  C   UNL     1      37.791 -23.526 -13.547  0.00  0.00    +0.009 C 
ATOM     13  C   UNL     1      33.269 -23.348 -14.945  0.00  0.00    +0.024 A 
ATOM     14  C   UNL     1      35.688 -22.405 -17.533  0.00  0.00    +0.253 C 
ATOM     15  C   UNL     1      33.418 -22.723 -17.474  0.00  0.00    +0.253 C 
ATOM     16  C   UNL     1      31.921 -23.620 -14.530  0.00  0.00    +0.051 A 
ATOM     17  C   UNL     1      31.959 -23.926 -13.166  0.00  0.00    +0.060 A 
ATOM     18  C   UNL     1      30.661 -23.640 -15.168  0.00  0.00    +0.140 C 
ATOM     19  C   UNL     1      30.817 -24.245 -12.420  0.00  0.00    +0.017 C 
ATOM     20  C   UNL     1      29.510 -23.958 -14.436  0.00  0.00    +0.037 C 
ATOM     21  C   UNL     1      29.589 -24.257 -13.080  0.00  0.00    +0.005 C 
ATOM     22  H   UNL     1      33.579 -24.011 -11.840  0.00  0.00    +0.166 HD
ENDROOT
BRANCH  18  23
ATOM     23  O   UNL     1      30.446 -23.377 -16.491  0.00  0.00    -0.471 OA
ATOM     24  C   UNL     1      29.100 -23.130 -16.888  0.00  0.00    +0.252 C 
ENDBRANCH  18  23
BRANCH   3  25
ATOM     25  C   UNL     1      34.416 -22.055 -19.654  0.00  0.00    +0.028 C 
BRANCH  25  26
ATOM     26  N   UNL     1      34.747 -20.644 -19.835  0.00  0.00    +0.396 N 
ATOM     27  N   UNL     1      35.392 -18.336 -21.453  0.00  0.00    +0.383 N 
ATOM     28  C   UNL     1      36.069 -20.493 -20.456  0.00  0.00    -0.098 C 
ATOM     29  C   UNL     1      33.722 -19.967 -20.640  0.00  0.00    -0.098 C 
ATOM     30  C   UNL     1      36.416 -19.013 -20.648  0.00  0.00    -0.101 C 
ATOM     31  C   UNL     1      34.070 -18.487 -20.832  0.00  0.00    -0.101 C 
ATOM     32  C   UNL     1      35.723 -16.924 -21.632  0.00  0.00    -0.101 C 
ATOM     33  H   UNL     1      34.773 -20.206 -18.914  0.00  0.00    -0.077 HD
ATOM     34  H   UNL     1      35.366 -18.773 -22.373  0.00  0.00    -0.080 HD
ENDBRANCH  25  26
ENDBRANCH   3  25
TORSDOF 3
ENDMDL
