MODEL 1
REMARK VINA RESULT:     -11.9      0.000      0.000
REMARK  Name = 46207733
REMARK  4 active torsions:
REMARK  status: ('A' for Active; 'I' for Inactive)
REMARK    1  A    between atoms: N_2  and  C_16
REMARK    2  A    between atoms: C_10  and  C_24
REMARK    3  A    between atoms: C_17  and  O_22
REMARK    4  A    between atoms: C_24  and  C_26
REMARK                            x       y       z     vdW  Elec       q    Type
REMARK                         _______ _______ _______ _____ _____    ______ ____
ROOT
ATOM      1  O   UNL     1      36.436 -22.199 -18.019  0.00  0.00    -0.274 OA
ATOM      2  N   UNL     1      34.611 -21.346 -19.187  0.00  0.00    -0.257 N 
ATOM      3  N   UNL     1      32.401 -21.674 -18.386  0.00  0.00    -0.252 NA
ATOM      4  C   UNL     1      35.225 -22.036 -18.140  0.00  0.00    +0.236 C 
ATOM      5  C   UNL     1      33.240 -21.206 -19.249  0.00  0.00    +0.222 C 
ATOM      6  C   UNL     1      34.294 -22.589 -17.128  0.00  0.00    +0.138 C 
ATOM      7  C   UNL     1      32.912 -22.391 -17.285  0.00  0.00    +0.068 C 
ATOM      8  C   UNL     1      32.018 -22.920 -16.317  0.00  0.00    +0.014 C 
ATOM      9  C   UNL     1      34.798 -23.298 -16.038  0.00  0.00    -0.015 C 
ATOM     10  C   UNL     1      33.924 -23.819 -15.089  0.00  0.00    -0.021 C 
ATOM     11  C   UNL     1      32.539 -23.640 -15.212  0.00  0.00    -0.003 C 
ATOM     12  C   UNL     1      30.617 -22.763 -16.403  0.00  0.00    +0.001 C 
ATOM     13  C   UNL     1      31.666 -24.170 -14.247  0.00  0.00    -0.000 C 
ATOM     14  C   UNL     1      29.764 -23.296 -15.435  0.00  0.00    +0.000 C 
ATOM     15  C   UNL     1      30.288 -23.999 -14.358  0.00  0.00    -0.000 C 
ENDROOT
BRANCH   2  16
ATOM     16  C   UNL     1      35.430 -20.767 -20.229  0.00  0.00    +0.104 C 
ATOM     17  C   UNL     1      36.208 -19.557 -19.694  0.00  0.00    +0.129 C 
ATOM     18  C   UNL     1      34.559 -20.391 -21.432  0.00  0.00    +0.022 C 
ATOM     19  C   UNL     1      36.994 -18.855 -20.802  0.00  0.00    +0.031 C 
ATOM     20  C   UNL     1      35.366 -19.699 -22.526  0.00  0.00    +0.002 C 
ATOM     21  C   UNL     1      36.110 -18.483 -21.984  0.00  0.00    +0.003 C 
BRANCH  17  22
ATOM     22  O   UNL     1      37.125 -20.003 -18.696  0.00  0.00    -0.383 OA
ATOM     23  H   UNL     1      37.635 -19.247 -18.364  0.00  0.00    +0.210 HD
ENDBRANCH  17  22
ENDBRANCH   2  16
BRANCH  10  24
ATOM     24  C   UNL     1      34.532 -24.569 -13.944  0.00  0.00    +0.054 C 
BRANCH  24  26
ATOM     25  N   UNL     1      38.281 -23.997 -13.881  0.00  0.00    -0.248 NA
ATOM     26  C   UNL     1      36.017 -24.816 -14.098  0.00  0.00    +0.001 C 
ATOM     27  C   UNL     1      36.494 -26.031 -14.579  0.00  0.00    -0.001 C 
ATOM     28  C   UNL     1      36.942 -23.841 -13.766  0.00  0.00    +0.094 C 
ATOM     29  C   UNL     1      37.864 -26.229 -14.711  0.00  0.00    +0.014 C 
ATOM     30  C   UNL     1      38.708 -25.191 -14.351  0.00  0.00    +0.059 C 
ATOM     31  C   UNL     1      40.185 -25.368 -14.480  0.00  0.00    +0.052 C 
ENDBRANCH  24  26
ENDBRANCH  10  24
TORSDOF 4
ENDMDL
MODEL 2
REMARK VINA RESULT:     -11.4      1.832      5.422
REMARK  Name = 46207733
REMARK  4 active torsions:
REMARK  status: ('A' for Active; 'I' for Inactive)
REMARK    1  A    between atoms: N_2  and  C_16
REMARK    2  A    between atoms: C_10  and  C_24
REMARK    3  A    between atoms: C_17  and  O_22
REMARK    4  A    between atoms: C_24  and  C_26
REMARK                            x       y       z     vdW  Elec       q    Type
REMARK                         _______ _______ _______ _____ _____    ______ ____
ROOT
ATOM      1  O   UNL     1      32.703 -22.406 -18.437  0.00  0.00    -0.274 OA
ATOM      2  N   UNL     1      34.965 -21.868 -18.316  0.00  0.00    -0.257 N 
ATOM      3  N   UNL     1      36.227 -22.375 -16.371  0.00  0.00    -0.252 NA
ATOM      4  C   UNL     1      33.767 -22.390 -17.825  0.00  0.00    +0.236 C 
ATOM      5  C   UNL     1      36.121 -21.890 -17.563  0.00  0.00    +0.222 C 
ATOM      6  C   UNL     1      33.849 -22.957 -16.458  0.00  0.00    +0.138 C 
ATOM      7  C   UNL     1      35.076 -22.930 -15.775  0.00  0.00    +0.068 C 
ATOM      8  C   UNL     1      35.157 -23.472 -14.465  0.00  0.00    +0.014 C 
ATOM      9  C   UNL     1      32.711 -23.506 -15.867  0.00  0.00    -0.015 C 
ATOM     10  C   UNL     1      32.787 -24.037 -14.584  0.00  0.00    -0.021 C 
ATOM     11  C   UNL     1      33.995 -24.028 -13.872  0.00  0.00    -0.003 C 
ATOM     12  C   UNL     1      36.353 -23.483 -13.714  0.00  0.00    +0.001 C 
ATOM     13  C   UNL     1      34.060 -24.567 -12.576  0.00  0.00    -0.000 C 
ATOM     14  C   UNL     1      36.400 -24.022 -12.427  0.00  0.00    +0.000 C 
ATOM     15  C   UNL     1      35.254 -24.564 -11.859  0.00  0.00    -0.000 C 
ENDROOT
BRANCH   2  16
ATOM     16  C   UNL     1      34.994 -21.289 -19.641  0.00  0.00    +0.104 C 
ATOM     17  C   UNL     1      36.253 -20.433 -19.828  0.00  0.00    +0.129 C 
ATOM     18  C   UNL     1      33.718 -20.478 -19.888  0.00  0.00    +0.022 C 
ATOM     19  C   UNL     1      36.255 -19.716 -21.179  0.00  0.00    +0.031 C 
ATOM     20  C   UNL     1      33.739 -19.779 -21.243  0.00  0.00    +0.002 C 
ATOM     21  C   UNL     1      34.983 -18.910 -21.401  0.00  0.00    +0.003 C 
BRANCH  17  22
ATOM     22  O   UNL     1      37.401 -21.278 -19.759  0.00  0.00    -0.383 OA
ATOM     23  H   UNL     1      37.135 -22.162 -19.460  0.00  0.00    +0.210 HD
ENDBRANCH  17  22
ENDBRANCH   2  16
BRANCH  10  24
ATOM     24  C   UNL     1      31.528 -24.611 -14.009  0.00  0.00    +0.054 C 
BRANCH  24  26
ATOM     25  N   UNL     1      28.770 -22.122 -14.776  0.00  0.00    -0.248 NA
ATOM     26  C   UNL     1      30.266 -24.013 -14.591  0.00  0.00    +0.001 C 
ATOM     27  C   UNL     1      29.452 -24.751 -15.444  0.00  0.00    -0.001 C 
ATOM     28  C   UNL     1      29.885 -22.715 -14.291  0.00  0.00    +0.094 C 
ATOM     29  C   UNL     1      28.297 -24.175 -15.963  0.00  0.00    +0.014 C 
ATOM     30  C   UNL     1      28.004 -22.869 -15.602  0.00  0.00    +0.059 C 
ATOM     31  C   UNL     1      26.772 -22.219 -16.140  0.00  0.00    +0.052 C 
ENDBRANCH  24  26
ENDBRANCH  10  24
TORSDOF 4
ENDMDL
MODEL 3
REMARK VINA RESULT:     -11.4      2.583      7.088
REMARK  Name = 46207733
REMARK  4 active torsions:
REMARK  status: ('A' for Active; 'I' for Inactive)
REMARK    1  A    between atoms: N_2  and  C_16
REMARK    2  A    between atoms: C_10  and  C_24
REMARK    3  A    between atoms: C_17  and  O_22
REMARK    4  A    between atoms: C_24  and  C_26
REMARK                            x       y       z     vdW  Elec       q    Type
REMARK                         _______ _______ _______ _____ _____    ______ ____
ROOT
ATOM      1  O   UNL     1      31.909 -22.783 -16.234  0.00  0.00    -0.274 OA
ATOM      2  N   UNL     1      31.290 -23.861 -14.265  0.00  0.00    -0.257 N 
ATOM      3  N   UNL     1      32.931 -24.554 -12.697  0.00  0.00    -0.252 NA
ATOM      4  C   UNL     1      32.204 -23.318 -15.169  0.00  0.00    +0.236 C 
ATOM      5  C   UNL     1      31.705 -24.445 -13.086  0.00  0.00    +0.222 C 
ATOM      6  C   UNL     1      33.624 -23.423 -14.757  0.00  0.00    +0.138 C 
ATOM      7  C   UNL     1      33.941 -24.038 -13.535  0.00  0.00    +0.068 C 
ATOM      8  C   UNL     1      35.301 -24.141 -13.139  0.00  0.00    +0.014 C 
ATOM      9  C   UNL     1      34.625 -22.914 -15.586  0.00  0.00    -0.015 C 
ATOM     10  C   UNL     1      35.957 -23.014 -15.200  0.00  0.00    -0.021 C 
ATOM     11  C   UNL     1      36.312 -23.621 -13.987  0.00  0.00    -0.003 C 
ATOM     12  C   UNL     1      35.701 -24.744 -11.926  0.00  0.00    +0.001 C 
ATOM     13  C   UNL     1      37.661 -23.716 -13.607  0.00  0.00    -0.000 C 
ATOM     14  C   UNL     1      37.047 -24.830 -11.565  0.00  0.00    +0.000 C 
ATOM     15  C   UNL     1      38.026 -24.317 -12.405  0.00  0.00    -0.000 C 
ENDROOT
BRANCH   2  16
ATOM     16  C   UNL     1      29.877 -23.811 -14.571  0.00  0.00    +0.104 C 
ATOM     17  C   UNL     1      29.573 -24.612 -15.844  0.00  0.00    +0.129 C 
ATOM     18  C   UNL     1      29.419 -22.355 -14.698  0.00  0.00    +0.022 C 
ATOM     19  C   UNL     1      28.105 -24.482 -16.257  0.00  0.00    +0.031 C 
ATOM     20  C   UNL     1      27.953 -22.250 -15.102  0.00  0.00    +0.002 C 
ATOM     21  C   UNL     1      27.673 -23.028 -16.385  0.00  0.00    +0.003 C 
BRANCH  17  22
ATOM     22  O   UNL     1      29.859 -25.989 -15.603  0.00  0.00    -0.383 OA
ATOM     23  H   UNL     1      29.359 -26.292 -14.829  0.00  0.00    +0.210 HD
ENDBRANCH  17  22
ENDBRANCH   2  16
BRANCH  10  24
ATOM     24  C   UNL     1      36.980 -22.446 -16.136  0.00  0.00    +0.054 C 
BRANCH  24  26
ATOM     25  N   UNL     1      36.512 -20.193 -19.150  0.00  0.00    -0.248 NA
ATOM     26  C   UNL     1      36.389 -21.850 -17.394  0.00  0.00    +0.001 C 
ATOM     27  C   UNL     1      35.226 -22.368 -17.954  0.00  0.00    -0.001 C 
ATOM     28  C   UNL     1      36.989 -20.773 -18.025  0.00  0.00    +0.094 C 
ATOM     29  C   UNL     1      34.705 -21.799 -19.111  0.00  0.00    +0.014 C 
ATOM     30  C   UNL     1      35.380 -20.723 -19.666  0.00  0.00    +0.059 C 
ATOM     31  C   UNL     1      34.850 -20.087 -20.908  0.00  0.00    +0.052 C 
ENDBRANCH  24  26
ENDBRANCH  10  24
TORSDOF 4
ENDMDL
MODEL 4
REMARK VINA RESULT:     -11.1      1.853      6.820
REMARK  Name = 46207733
REMARK  4 active torsions:
REMARK  status: ('A' for Active; 'I' for Inactive)
REMARK    1  A    between atoms: N_2  and  C_16
REMARK    2  A    between atoms: C_10  and  C_24
REMARK    3  A    between atoms: C_17  and  O_22
REMARK    4  A    between atoms: C_24  and  C_26
REMARK                            x       y       z     vdW  Elec       q    Type
REMARK                         _______ _______ _______ _____ _____    ______ ____
ROOT
ATOM      1  O   UNL     1      36.447 -23.260 -15.985  0.00  0.00    -0.274 OA
ATOM      2  N   UNL     1      35.671 -23.985 -13.914  0.00  0.00    -0.257 N 
ATOM      3  N   UNL     1      33.347 -24.004 -13.430  0.00  0.00    -0.252 NA
ATOM      4  C   UNL     1      35.523 -23.486 -15.209  0.00  0.00    +0.236 C 
ATOM      5  C   UNL     1      34.578 -24.214 -13.103  0.00  0.00    +0.222 C 
ATOM      6  C   UNL     1      34.123 -23.231 -15.622  0.00  0.00    +0.138 C 
ATOM      7  C   UNL     1      33.081 -23.497 -14.719  0.00  0.00    +0.068 C 
ATOM      8  C   UNL     1      31.739 -23.253 -15.113  0.00  0.00    +0.014 C 
ATOM      9  C   UNL     1      33.858 -22.730 -16.897  0.00  0.00    -0.015 C 
ATOM     10  C   UNL     1      32.544 -22.489 -17.284  0.00  0.00    -0.021 C 
ATOM     11  C   UNL     1      31.478 -22.744 -16.410  0.00  0.00    -0.003 C 
ATOM     12  C   UNL     1      30.636 -23.495 -14.264  0.00  0.00    +0.001 C 
ATOM     13  C   UNL     1      30.155 -22.498 -16.813  0.00  0.00    -0.000 C 
ATOM     14  C   UNL     1      29.327 -23.244 -14.680  0.00  0.00    +0.000 C 
ATOM     15  C   UNL     1      29.087 -22.745 -15.953  0.00  0.00    -0.000 C 
ENDROOT
BRANCH   2  16
ATOM     16  C   UNL     1      36.997 -24.268 -13.411  0.00  0.00    +0.104 C 
ATOM     17  C   UNL     1      37.392 -25.719 -13.717  0.00  0.00    +0.129 C 
ATOM     18  C   UNL     1      37.064 -23.970 -11.910  0.00  0.00    +0.022 C 
ATOM     19  C   UNL     1      38.743 -26.081 -13.097  0.00  0.00    +0.031 C 
ATOM     20  C   UNL     1      38.421 -24.331 -11.316  0.00  0.00    +0.002 C 
ATOM     21  C   UNL     1      38.785 -25.784 -11.604  0.00  0.00    +0.003 C 
BRANCH  17  22
ATOM     22  O   UNL     1      37.480 -25.885 -15.131  0.00  0.00    -0.383 OA
ATOM     23  H   UNL     1      37.227 -26.791 -15.367  0.00  0.00    +0.210 HD
ENDBRANCH  17  22
ENDBRANCH   2  16
BRANCH  10  24
ATOM     24  C   UNL     1      32.330 -21.952 -18.666  0.00  0.00    +0.054 C 
BRANCH  24  26
ATOM     25  N   UNL     1      34.451 -19.412 -20.520  0.00  0.00    -0.248 NA
ATOM     26  C   UNL     1      33.542 -21.251 -19.241  0.00  0.00    +0.001 C 
ATOM     27  C   UNL     1      34.822 -21.757 -19.043  0.00  0.00    -0.001 C 
ATOM     28  C   UNL     1      33.411 -20.086 -19.979  0.00  0.00    +0.094 C 
ATOM     29  C   UNL     1      35.917 -21.091 -19.584  0.00  0.00    +0.014 C 
ATOM     30  C   UNL     1      35.680 -19.933 -20.307  0.00  0.00    +0.059 C 
ATOM     31  C   UNL     1      36.832 -19.193 -20.902  0.00  0.00    +0.052 C 
ENDBRANCH  24  26
ENDBRANCH  10  24
TORSDOF 4
ENDMDL
MODEL 5
REMARK VINA RESULT:     -11.1     11.087     16.622
REMARK  Name = 46207733
REMARK  4 active torsions:
REMARK  status: ('A' for Active; 'I' for Inactive)
REMARK    1  A    between atoms: N_2  and  C_16
REMARK    2  A    between atoms: C_10  and  C_24
REMARK    3  A    between atoms: C_17  and  O_22
REMARK    4  A    between atoms: C_24  and  C_26
REMARK                            x       y       z     vdW  Elec       q    Type
REMARK                         _______ _______ _______ _____ _____    ______ ____
ROOT
ATOM      1  O   UNL     1      34.803 -11.478 -24.306  0.00  0.00    -0.274 OA
ATOM      2  N   UNL     1      33.043 -12.043 -22.891  0.00  0.00    -0.257 N 
ATOM      3  N   UNL     1      31.848 -10.363 -21.715  0.00  0.00    -0.252 NA
ATOM      4  C   UNL     1      33.913 -11.155 -23.526  0.00  0.00    +0.236 C 
ATOM      5  C   UNL     1      32.065 -11.597 -22.026  0.00  0.00    +0.222 C 
ATOM      6  C   UNL     1      33.695  -9.727 -23.194  0.00  0.00    +0.138 C 
ATOM      7  C   UNL     1      32.671  -9.378 -22.298  0.00  0.00    +0.068 C 
ATOM      8  C   UNL     1      32.461  -8.010 -21.979  0.00  0.00    +0.014 C 
ATOM      9  C   UNL     1      34.508  -8.750 -23.770  0.00  0.00    -0.015 C 
ATOM     10  C   UNL     1      34.305  -7.410 -23.458  0.00  0.00    -0.021 C 
ATOM     11  C   UNL     1      33.291  -7.024 -22.569  0.00  0.00    -0.003 C 
ATOM     12  C   UNL     1      31.452  -7.578 -21.089  0.00  0.00    +0.001 C 
ATOM     13  C   UNL     1      33.095  -5.668 -22.261  0.00  0.00    -0.000 C 
ATOM     14  C   UNL     1      31.271  -6.226 -20.793  0.00  0.00    +0.000 C 
ATOM     15  C   UNL     1      32.092  -5.272 -21.379  0.00  0.00    -0.000 C 
ENDROOT
BRANCH   2  16
ATOM     16  C   UNL     1      33.170 -13.461 -23.146  0.00  0.00    +0.104 C 
ATOM     17  C   UNL     1      34.470 -14.004 -22.537  0.00  0.00    +0.129 C 
ATOM     18  C   UNL     1      33.096 -13.732 -24.652  0.00  0.00    +0.022 C 
ATOM     19  C   UNL     1      34.688 -15.476 -22.888  0.00  0.00    +0.031 C 
ATOM     20  C   UNL     1      33.309 -15.207 -24.977  0.00  0.00    +0.002 C 
ATOM     21  C   UNL     1      34.619 -15.723 -24.389  0.00  0.00    +0.003 C 
BRANCH  17  22
ATOM     22  O   UNL     1      34.402 -13.879 -21.117  0.00  0.00    -0.383 OA
ATOM     23  H   UNL     1      35.135 -13.325 -20.805  0.00  0.00    +0.210 HD
ENDBRANCH  17  22
ENDBRANCH   2  16
BRANCH  10  24
ATOM     24  C   UNL     1      35.212  -6.414 -24.112  0.00  0.00    +0.054 C 
BRANCH  24  26
ATOM     25  N   UNL     1      35.448  -5.553 -27.798  0.00  0.00    -0.248 NA
ATOM     26  C   UNL     1      34.802  -6.051 -25.522  0.00  0.00    +0.001 C 
ATOM     27  C   UNL     1      33.463  -5.880 -25.856  0.00  0.00    -0.001 C 
ATOM     28  C   UNL     1      35.747  -5.879 -26.520  0.00  0.00    +0.094 C 
ATOM     29  C   UNL     1      33.115  -5.545 -27.161  0.00  0.00    +0.014 C 
ATOM     30  C   UNL     1      34.136  -5.396 -28.086  0.00  0.00    +0.059 C 
ATOM     31  C   UNL     1      33.800  -5.037 -29.496  0.00  0.00    +0.052 C 
ENDBRANCH  24  26
ENDBRANCH  10  24
TORSDOF 4
ENDMDL
MODEL 6
REMARK VINA RESULT:     -10.9      5.102      8.929
REMARK  Name = 46207733
REMARK  4 active torsions:
REMARK  status: ('A' for Active; 'I' for Inactive)
REMARK    1  A    between atoms: N_2  and  C_16
REMARK    2  A    between atoms: C_10  and  C_24
REMARK    3  A    between atoms: C_17  and  O_22
REMARK    4  A    between atoms: C_24  and  C_26
REMARK                            x       y       z     vdW  Elec       q    Type
REMARK                         _______ _______ _______ _____ _____    ______ ____
ROOT
ATOM      1  O   UNL     1      35.019 -14.006 -20.814  0.00  0.00    -0.274 OA
ATOM      2  N   UNL     1      33.846 -13.759 -22.809  0.00  0.00    -0.257 N 
ATOM      3  N   UNL     1      33.559 -15.599 -24.281  0.00  0.00    -0.252 NA
ATOM      4  C   UNL     1      34.577 -14.474 -21.859  0.00  0.00    +0.236 C 
ATOM      5  C   UNL     1      33.382 -14.361 -23.961  0.00  0.00    +0.222 C 
ATOM      6  C   UNL     1      34.802 -15.901 -22.191  0.00  0.00    +0.138 C 
ATOM      7  C   UNL     1      34.287 -16.416 -23.391  0.00  0.00    +0.068 C 
ATOM      8  C   UNL     1      34.501 -17.783 -23.711  0.00  0.00    +0.014 C 
ATOM      9  C   UNL     1      35.521 -16.710 -21.311  0.00  0.00    -0.015 C 
ATOM     10  C   UNL     1      35.734 -18.049 -21.623  0.00  0.00    -0.021 C 
ATOM     11  C   UNL     1      35.234 -18.599 -22.812  0.00  0.00    -0.003 C 
ATOM     12  C   UNL     1      34.016 -18.377 -24.897  0.00  0.00    +0.001 C 
ATOM     13  C   UNL     1      35.454 -19.953 -23.116  0.00  0.00    -0.000 C 
ATOM     14  C   UNL     1      34.245 -19.724 -25.184  0.00  0.00    +0.000 C 
ATOM     15  C   UNL     1      34.964 -20.511 -24.295  0.00  0.00    -0.000 C 
ENDROOT
BRANCH   2  16
ATOM     16  C   UNL     1      33.571 -12.358 -22.583  0.00  0.00    +0.104 C 
ATOM     17  C   UNL     1      32.063 -12.122 -22.427  0.00  0.00    +0.129 C 
ATOM     18  C   UNL     1      34.159 -11.517 -23.720  0.00  0.00    +0.022 C 
ATOM     19  C   UNL     1      31.732 -10.634 -22.301  0.00  0.00    +0.031 C 
ATOM     20  C   UNL     1      33.822 -10.037 -23.569  0.00  0.00    +0.002 C 
ATOM     21  C   UNL     1      32.318  -9.818 -23.445  0.00  0.00    +0.003 C 
BRANCH  17  22
ATOM     22  O   UNL     1      31.609 -12.791 -21.251  0.00  0.00    -0.383 OA
ATOM     23  H   UNL     1      32.328 -12.825 -20.601  0.00  0.00    +0.210 HD
ENDBRANCH  17  22
ENDBRANCH   2  16
BRANCH  10  24
ATOM     24  C   UNL     1      36.513 -18.862 -20.636  0.00  0.00    +0.054 C 
BRANCH  24  26
ATOM     25  N   UNL     1      35.679 -22.008 -18.688  0.00  0.00    -0.248 NA
ATOM     26  C   UNL     1      35.712 -19.974 -19.995  0.00  0.00    +0.001 C 
ATOM     27  C   UNL     1      34.326 -20.012 -20.104  0.00  0.00    -0.001 C 
ATOM     28  C   UNL     1      36.335 -20.986 -19.283  0.00  0.00    +0.094 C 
ATOM     29  C   UNL     1      33.616 -21.047 -19.506  0.00  0.00    +0.014 C 
ATOM     30  C   UNL     1      34.333 -22.011 -18.814  0.00  0.00    +0.059 C 
ATOM     31  C   UNL     1      33.603 -23.137 -18.160  0.00  0.00    +0.052 C 
ENDBRANCH  24  26
ENDBRANCH  10  24
TORSDOF 4
ENDMDL
MODEL 7
REMARK VINA RESULT:     -10.6     11.482     15.234
REMARK  Name = 46207733
REMARK  4 active torsions:
REMARK  status: ('A' for Active; 'I' for Inactive)
REMARK    1  A    between atoms: N_2  and  C_16
REMARK    2  A    between atoms: C_10  and  C_24
REMARK    3  A    between atoms: C_17  and  O_22
REMARK    4  A    between atoms: C_24  and  C_26
REMARK                            x       y       z     vdW  Elec       q    Type
REMARK                         _______ _______ _______ _____ _____    ______ ____
ROOT
ATOM      1  O   UNL     1      31.966  -8.342 -25.319  0.00  0.00    -0.274 OA
ATOM      2  N   UNL     1      32.580  -6.487 -24.052  0.00  0.00    -0.257 N 
ATOM      3  N   UNL     1      32.654  -6.611 -21.683  0.00  0.00    -0.252 NA
ATOM      4  C   UNL     1      32.175  -7.811 -24.232  0.00  0.00    +0.236 C 
ATOM      5  C   UNL     1      32.794  -5.966 -22.793  0.00  0.00    +0.222 C 
ATOM      6  C   UNL     1      32.002  -8.585 -22.980  0.00  0.00    +0.138 C 
ATOM      7  C   UNL     1      32.246  -7.959 -21.746  0.00  0.00    +0.068 C 
ATOM      8  C   UNL     1      32.081  -8.699 -20.545  0.00  0.00    +0.014 C 
ATOM      9  C   UNL     1      31.599  -9.919 -23.041  0.00  0.00    -0.015 C 
ATOM     10  C   UNL     1      31.436 -10.645 -21.865  0.00  0.00    -0.021 C 
ATOM     11  C   UNL     1      31.671 -10.054 -20.616  0.00  0.00    -0.003 C 
ATOM     12  C   UNL     1      32.307  -8.142 -19.267  0.00  0.00    +0.001 C 
ATOM     13  C   UNL     1      31.503 -10.797 -19.436  0.00  0.00    -0.000 C 
ATOM     14  C   UNL     1      32.136  -8.895 -18.104  0.00  0.00    +0.000 C 
ATOM     15  C   UNL     1      31.733 -10.221 -18.188  0.00  0.00    -0.000 C 
ENDROOT
BRANCH   2  16
ATOM     16  C   UNL     1      32.777  -5.644 -25.210  0.00  0.00    +0.104 C 
ATOM     17  C   UNL     1      34.221  -5.130 -25.264  0.00  0.00    +0.129 C 
ATOM     18  C   UNL     1      31.768  -4.492 -25.198  0.00  0.00    +0.022 C 
ATOM     19  C   UNL     1      34.429  -4.144 -26.415  0.00  0.00    +0.031 C 
ATOM     20  C   UNL     1      31.990  -3.526 -26.358  0.00  0.00    +0.002 C 
ATOM     21  C   UNL     1      33.422  -3.003 -26.380  0.00  0.00    +0.003 C 
BRANCH  17  22
ATOM     22  O   UNL     1      35.099  -6.239 -25.450  0.00  0.00    -0.383 OA
ATOM     23  H   UNL     1      36.018  -5.944 -25.352  0.00  0.00    +0.210 HD
ENDBRANCH  17  22
ENDBRANCH   2  16
BRANCH  10  24
ATOM     24  C   UNL     1      31.001 -12.072 -22.003  0.00  0.00    +0.054 C 
BRANCH  24  26
ATOM     25  N   UNL     1      33.610 -14.295 -23.627  0.00  0.00    -0.248 NA
ATOM     26  C   UNL     1      32.149 -13.045 -22.161  0.00  0.00    +0.001 C 
ATOM     27  C   UNL     1      32.792 -13.581 -21.050  0.00  0.00    -0.001 C 
ATOM     28  C   UNL     1      32.592 -13.430 -23.416  0.00  0.00    +0.094 C 
ATOM     29  C   UNL     1      33.844 -14.473 -21.227  0.00  0.00    +0.014 C 
ATOM     30  C   UNL     1      34.211 -14.795 -22.524  0.00  0.00    +0.059 C 
ATOM     31  C   UNL     1      35.336 -15.750 -22.751  0.00  0.00    +0.052 C 
ENDBRANCH  24  26
ENDBRANCH  10  24
TORSDOF 4
ENDMDL
MODEL 8
REMARK VINA RESULT:     -10.5      9.125     14.080
REMARK  Name = 46207733
REMARK  4 active torsions:
REMARK  status: ('A' for Active; 'I' for Inactive)
REMARK    1  A    between atoms: N_2  and  C_16
REMARK    2  A    between atoms: C_10  and  C_24
REMARK    3  A    between atoms: C_17  and  O_22
REMARK    4  A    between atoms: C_24  and  C_26
REMARK                            x       y       z     vdW  Elec       q    Type
REMARK                         _______ _______ _______ _____ _____    ______ ____
ROOT
ATOM      1  O   UNL     1      33.712 -13.302 -24.578  0.00  0.00    -0.274 OA
ATOM      2  N   UNL     1      33.978 -14.521 -22.612  0.00  0.00    -0.257 N 
ATOM      3  N   UNL     1      33.293 -13.617 -20.527  0.00  0.00    -0.252 NA
ATOM      4  C   UNL     1      33.592 -13.408 -23.361  0.00  0.00    +0.236 C 
ATOM      5  C   UNL     1      33.807 -14.560 -21.243  0.00  0.00    +0.222 C 
ATOM      6  C   UNL     1      32.997 -12.303 -22.573  0.00  0.00    +0.138 C 
ATOM      7  C   UNL     1      32.867 -12.443 -21.182  0.00  0.00    +0.068 C 
ATOM      8  C   UNL     1      32.298 -11.386 -20.424  0.00  0.00    +0.014 C 
ATOM      9  C   UNL     1      32.575 -11.140 -23.219  0.00  0.00    -0.015 C 
ATOM     10  C   UNL     1      32.018 -10.103 -22.479  0.00  0.00    -0.021 C 
ATOM     11  C   UNL     1      31.872 -10.208 -21.089  0.00  0.00    -0.003 C 
ATOM     12  C   UNL     1      32.133 -11.450 -19.023  0.00  0.00    +0.001 C 
ATOM     13  C   UNL     1      31.307  -9.153 -20.352  0.00  0.00    -0.000 C 
ATOM     14  C   UNL     1      31.571 -10.393 -18.306  0.00  0.00    +0.000 C 
ATOM     15  C   UNL     1      31.158  -9.245 -18.970  0.00  0.00    -0.000 C 
ENDROOT
BRANCH   2  16
ATOM     16  C   UNL     1      34.571 -15.655 -23.285  0.00  0.00    +0.104 C 
ATOM     17  C   UNL     1      33.519 -16.399 -24.117  0.00  0.00    +0.129 C 
ATOM     18  C   UNL     1      35.240 -16.580 -22.263  0.00  0.00    +0.022 C 
ATOM     19  C   UNL     1      34.091 -17.670 -24.748  0.00  0.00    +0.031 C 
ATOM     20  C   UNL     1      35.809 -17.835 -22.916  0.00  0.00    +0.002 C 
ATOM     21  C   UNL     1      34.743 -18.578 -23.715  0.00  0.00    +0.003 C 
BRANCH  17  22
ATOM     22  O   UNL     1      33.061 -15.539 -25.159  0.00  0.00    -0.383 OA
ATOM     23  H   UNL     1      32.091 -15.525 -25.165  0.00  0.00    +0.210 HD
ENDBRANCH  17  22
ENDBRANCH   2  16
BRANCH  10  24
ATOM     24  C   UNL     1      31.586  -8.884 -23.236  0.00  0.00    +0.054 C 
BRANCH  24  26
ATOM     25  N   UNL     1      33.570  -6.376 -25.275  0.00  0.00    -0.248 NA
ATOM     26  C   UNL     1      32.737  -8.030 -23.721  0.00  0.00    +0.001 C 
ATOM     27  C   UNL     1      33.983  -8.091 -23.106  0.00  0.00    -0.001 C 
ATOM     28  C   UNL     1      32.583  -7.164 -24.792  0.00  0.00    +0.094 C 
ATOM     29  C   UNL     1      35.023  -7.295 -23.574  0.00  0.00    +0.014 C 
ATOM     30  C   UNL     1      34.767  -6.461 -24.651  0.00  0.00    +0.059 C 
ATOM     31  C   UNL     1      35.860  -5.593 -25.181  0.00  0.00    +0.052 C 
ENDBRANCH  24  26
ENDBRANCH  10  24
TORSDOF 4
ENDMDL
MODEL 9
REMARK VINA RESULT:     -10.1     12.548     17.976
REMARK  Name = 46207733
REMARK  4 active torsions:
REMARK  status: ('A' for Active; 'I' for Inactive)
REMARK    1  A    between atoms: N_2  and  C_16
REMARK    2  A    between atoms: C_10  and  C_24
REMARK    3  A    between atoms: C_17  and  O_22
REMARK    4  A    between atoms: C_24  and  C_26
REMARK                            x       y       z     vdW  Elec       q    Type
REMARK                         _______ _______ _______ _____ _____    ______ ____
ROOT
ATOM      1  O   UNL     1      32.508 -10.002 -24.807  0.00  0.00    -0.274 OA
ATOM      2  N   UNL     1      32.194  -9.995 -22.500  0.00  0.00    -0.257 N 
ATOM      3  N   UNL     1      31.880  -7.955 -21.328  0.00  0.00    -0.252 NA
ATOM      4  C   UNL     1      32.320  -9.397 -23.756  0.00  0.00    +0.236 C 
ATOM      5  C   UNL     1      31.982  -9.241 -21.364  0.00  0.00    +0.222 C 
ATOM      6  C   UNL     1      32.208  -7.919 -23.756  0.00  0.00    +0.138 C 
ATOM      7  C   UNL     1      31.993  -7.246 -22.543  0.00  0.00    +0.068 C 
ATOM      8  C   UNL     1      31.886  -5.830 -22.541  0.00  0.00    +0.014 C 
ATOM      9  C   UNL     1      32.320  -7.217 -24.957  0.00  0.00    -0.015 C 
ATOM     10  C   UNL     1      32.216  -5.830 -24.957  0.00  0.00    -0.021 C 
ATOM     11  C   UNL     1      32.000  -5.124 -23.765  0.00  0.00    -0.003 C 
ATOM     12  C   UNL     1      31.669  -5.081 -21.363  0.00  0.00    +0.001 C 
ATOM     13  C   UNL     1      31.897  -3.723 -23.778  0.00  0.00    -0.000 C 
ATOM     14  C   UNL     1      31.569  -3.689 -21.393  0.00  0.00    +0.000 C 
ATOM     15  C   UNL     1      31.684  -3.011 -22.600  0.00  0.00    -0.000 C 
ENDROOT
BRANCH   2  16
ATOM     16  C   UNL     1      32.288 -11.433 -22.389  0.00  0.00    +0.104 C 
ATOM     17  C   UNL     1      31.763 -11.904 -21.026  0.00  0.00    +0.129 C 
ATOM     18  C   UNL     1      33.733 -11.884 -22.623  0.00  0.00    +0.022 C 
ATOM     19  C   UNL     1      31.956 -13.409 -20.834  0.00  0.00    +0.031 C 
ATOM     20  C   UNL     1      33.900 -13.388 -22.433  0.00  0.00    +0.002 C 
ATOM     21  C   UNL     1      33.400 -13.835 -21.063  0.00  0.00    +0.003 C 
BRANCH  17  22
ATOM     22  O   UNL     1      30.370 -11.609 -20.941  0.00  0.00    -0.383 OA
ATOM     23  H   UNL     1      30.129 -11.448 -20.015  0.00  0.00    +0.210 HD
ENDBRANCH  17  22
ENDBRANCH   2  16
BRANCH  10  24
ATOM     24  C   UNL     1      32.345  -5.139 -26.280  0.00  0.00    +0.054 C 
BRANCH  24  26
ATOM     25  N   UNL     1      34.536  -6.464 -29.078  0.00  0.00    -0.248 NA
ATOM     26  C   UNL     1      33.578  -5.541 -27.059  0.00  0.00    +0.001 C 
ATOM     27  C   UNL     1      34.850  -5.379 -26.520  0.00  0.00    -0.001 C 
ATOM     28  C   UNL     1      33.475  -6.083 -28.330  0.00  0.00    +0.094 C 
ATOM     29  C   UNL     1      35.965  -5.758 -27.259  0.00  0.00    +0.014 C 
ATOM     30  C   UNL     1      35.756  -6.290 -28.522  0.00  0.00    +0.059 C 
ATOM     31  C   UNL     1      36.930  -6.709 -29.344  0.00  0.00    +0.052 C 
ENDBRANCH  24  26
ENDBRANCH  10  24
TORSDOF 4
ENDMDL
