MODEL 1
REMARK VINA RESULT:     -11.2      0.000      0.000
REMARK  Name = 44462738
REMARK  5 active torsions:
REMARK  status: ('A' for Active; 'I' for Inactive)
REMARK    1  A    between atoms: N_1  and  C_17
REMARK    2  A    between atoms: C_8  and  C_30
REMARK    3  A    between atoms: C_12  and  N_19
REMARK    4  A    between atoms: N_18  and  C_26
REMARK    5  A    between atoms: C_33  and  C_36
REMARK                            x       y       z     vdW  Elec       q    Type
REMARK                         _______ _______ _______ _____ _____    ______ ____
ROOT
ATOM      1  N   UNL     1      34.257 -14.026 -24.116  0.00  0.00    -0.296 N 
ATOM      2  N   UNL     1      34.987 -15.062 -22.154  0.00  0.00    -0.225 NA
ATOM      3  N   UNL     1      34.561 -17.614 -23.199  0.00  0.00    -0.167 N 
ATOM      4  N   UNL     1      33.840 -16.782 -25.124  0.00  0.00    -0.203 NA
ATOM      5  N   UNL     1      34.253 -18.702 -23.946  0.00  0.00    -0.150 NA
ATOM      6  C   UNL     1      34.521 -15.159 -23.382  0.00  0.00    +0.166 C 
ATOM      7  C   UNL     1      34.297 -16.478 -23.935  0.00  0.00    +0.188 C 
ATOM      8  C   UNL     1      35.052 -17.479 -21.898  0.00  0.00    +0.098 C 
ATOM      9  C   UNL     1      35.243 -16.222 -21.441  0.00  0.00    +0.117 C 
ATOM     10  C   UNL     1      33.832 -18.144 -25.083  0.00  0.00    +0.219 C 
ATOM     11  H   UNL     1      34.359 -14.107 -25.092  0.00  0.00    +0.154 HD
ENDROOT
BRANCH   1  17
ATOM     12  C   UNL     1      33.070 -10.260 -22.685  0.00  0.00    +0.048 C 
ATOM     13  C   UNL     1      34.146 -10.364 -23.568  0.00  0.00    +0.016 C 
ATOM     14  C   UNL     1      32.388 -11.406 -22.279  0.00  0.00    +0.016 C 
ATOM     15  C   UNL     1      34.540 -11.614 -24.043  0.00  0.00    +0.016 C 
ATOM     16  C   UNL     1      32.782 -12.658 -22.754  0.00  0.00    +0.016 C 
ATOM     17  C   UNL     1      33.858 -12.761 -23.636  0.00  0.00    +0.050 C 
BRANCH  12  19
ATOM     18  N   UNL     1      31.627  -6.478 -22.925  0.00  0.00    +0.392 N 
ATOM     19  N   UNL     1      32.682  -9.030 -22.219  0.00  0.00    -0.313 N 
ATOM     20  C   UNL     1      32.531  -6.748 -21.782  0.00  0.00    -0.036 C 
ATOM     21  C   UNL     1      31.309  -8.582 -21.944  0.00  0.00    +0.050 C 
ATOM     22  C   UNL     1      31.554  -7.503 -20.885  0.00  0.00    -0.002 C 
ATOM     23  C   UNL     1      30.877  -7.736 -23.149  0.00  0.00    -0.057 C 
ATOM     24  C   UNL     1      33.565  -7.866 -22.074  0.00  0.00    +0.070 C 
ATOM     25  H   UNL     1      31.003  -5.706 -22.694  0.00  0.00    -0.079 HD
BRANCH  18  26
ATOM     26  C   UNL     1      32.281  -5.976 -24.120  0.00  0.00    -0.058 C 
ATOM     27  C   UNL     1      31.590  -4.705 -24.606  0.00  0.00    -0.023 C 
ATOM     28  C   UNL     1      32.265  -7.055 -25.198  0.00  0.00    -0.023 C 
ENDBRANCH  18  26
ENDBRANCH  12  19
ENDBRANCH   1  17
BRANCH   8  30
ATOM     29  O   UNL     1      36.555 -20.101 -19.819  0.00  0.00    -0.446 OA
ATOM     30  C   UNL     1      35.369 -18.645 -21.055  0.00  0.00    +0.058 C 
ATOM     31  C   UNL     1      34.492 -19.656 -20.592  0.00  0.00    +0.047 C 
ATOM     32  C   UNL     1      36.612 -18.961 -20.558  0.00  0.00    +0.181 C 
ATOM     33  C   UNL     1      35.262 -20.517 -19.846  0.00  0.00    +0.198 C 
BRANCH  33  36
ATOM     34  O   UNL     1      35.760 -22.328 -18.424  0.00  0.00    -0.267 OA
ATOM     35  N   UNL     1      33.616 -22.203 -19.227  0.00  0.00    -0.323 N 
ATOM     36  C   UNL     1      34.930 -21.707 -19.140  0.00  0.00    +0.277 C 
ATOM     37  H   UNL     1      33.367 -23.025 -18.745  0.00  0.00    +0.145 HD
ATOM     38  H   UNL     1      32.946 -21.729 -19.770  0.00  0.00    +0.145 HD
ENDBRANCH  33  36
ENDBRANCH   8  30
TORSDOF 5
ENDMDL
MODEL 2
REMARK VINA RESULT:     -10.2      3.069      5.283
REMARK  Name = 44462738
REMARK  5 active torsions:
REMARK  status: ('A' for Active; 'I' for Inactive)
REMARK    1  A    between atoms: N_1  and  C_17
REMARK    2  A    between atoms: C_8  and  C_30
REMARK    3  A    between atoms: C_12  and  N_19
REMARK    4  A    between atoms: N_18  and  C_26
REMARK    5  A    between atoms: C_33  and  C_36
REMARK                            x       y       z     vdW  Elec       q    Type
REMARK                         _______ _______ _______ _____ _____    ______ ____
ROOT
ATOM      1  N   UNL     1      32.213  -9.991 -22.847  0.00  0.00    -0.296 N 
ATOM      2  N   UNL     1      33.286 -11.701 -24.021  0.00  0.00    -0.225 NA
ATOM      3  N   UNL     1      33.122 -13.456 -21.858  0.00  0.00    -0.167 N 
ATOM      4  N   UNL     1      32.094 -11.934 -20.613  0.00  0.00    -0.203 NA
ATOM      5  N   UNL     1      32.916 -14.071 -20.668  0.00  0.00    -0.150 NA
ATOM      6  C   UNL     1      32.712 -11.271 -22.917  0.00  0.00    +0.166 C 
ATOM      7  C   UNL     1      32.621 -12.173 -21.788  0.00  0.00    +0.188 C 
ATOM      8  C   UNL     1      33.728 -13.883 -23.042  0.00  0.00    +0.098 C 
ATOM      9  C   UNL     1      33.779 -12.996 -24.060  0.00  0.00    +0.117 C 
ATOM     10  C   UNL     1      32.298 -13.118 -19.968  0.00  0.00    +0.219 C 
ATOM     11  H   UNL     1      31.440  -9.858 -22.251  0.00  0.00    +0.154 HD
ENDROOT
BRANCH   1  17
ATOM     12  C   UNL     1      33.591  -6.584 -24.880  0.00  0.00    +0.048 C 
ATOM     13  C   UNL     1      32.302  -7.063 -25.115  0.00  0.00    +0.016 C 
ATOM     14  C   UNL     1      34.422  -7.236 -23.970  0.00  0.00    +0.016 C 
ATOM     15  C   UNL     1      31.844  -8.194 -24.440  0.00  0.00    +0.016 C 
ATOM     16  C   UNL     1      33.964  -8.369 -23.295  0.00  0.00    +0.016 C 
ATOM     17  C   UNL     1      32.676  -8.847 -23.529  0.00  0.00    +0.050 C 
BRANCH  12  19
ATOM     18  N   UNL     1      34.704  -4.360 -28.081  0.00  0.00    +0.392 N 
ATOM     19  N   UNL     1      34.041  -5.471 -25.543  0.00  0.00    -0.313 N 
ATOM     20  C   UNL     1      35.311  -3.968 -26.788  0.00  0.00    -0.036 C 
ATOM     21  C   UNL     1      33.226  -4.485 -26.268  0.00  0.00    +0.050 C 
ATOM     22  C   UNL     1      34.115  -3.241 -26.180  0.00  0.00    -0.002 C 
ATOM     23  C   UNL     1      33.340  -4.837 -27.758  0.00  0.00    -0.057 C 
ATOM     24  C   UNL     1      35.451  -5.154 -25.798  0.00  0.00    +0.070 C 
ATOM     25  H   UNL     1      34.680  -3.554 -28.707  0.00  0.00    -0.079 HD
BRANCH  18  26
ATOM     26  C   UNL     1      35.477  -5.309 -28.861  0.00  0.00    -0.058 C 
ATOM     27  C   UNL     1      36.207  -4.594 -29.994  0.00  0.00    -0.023 C 
ATOM     28  C   UNL     1      34.551  -6.394 -29.404  0.00  0.00    -0.023 C 
ENDBRANCH  18  26
ENDBRANCH  12  19
ENDBRANCH   1  17
BRANCH   8  30
ATOM     29  O   UNL     1      34.879 -17.182 -24.159  0.00  0.00    -0.446 OA
ATOM     30  C   UNL     1      34.275 -15.241 -23.196  0.00  0.00    +0.058 C 
ATOM     31  C   UNL     1      34.868 -16.064 -22.208  0.00  0.00    +0.047 C 
ATOM     32  C   UNL     1      34.306 -15.966 -24.365  0.00  0.00    +0.181 C 
ATOM     33  C   UNL     1      35.217 -17.233 -22.844  0.00  0.00    +0.198 C 
BRANCH  33  36
ATOM     34  O   UNL     1      35.250 -19.530 -22.320  0.00  0.00    -0.267 OA
ATOM     35  N   UNL     1      37.179 -18.352 -21.932  0.00  0.00    -0.323 N 
ATOM     36  C   UNL     1      35.842 -18.418 -22.362  0.00  0.00    +0.277 C 
ATOM     37  H   UNL     1      37.628 -19.162 -21.596  0.00  0.00    +0.145 HD
ATOM     38  H   UNL     1      37.667 -17.498 -21.967  0.00  0.00    +0.145 HD
ENDBRANCH  33  36
ENDBRANCH   8  30
TORSDOF 5
ENDMDL
MODEL 3
REMARK VINA RESULT:      -9.6      2.520      4.810
REMARK  Name = 44462738
REMARK  5 active torsions:
REMARK  status: ('A' for Active; 'I' for Inactive)
REMARK    1  A    between atoms: N_1  and  C_17
REMARK    2  A    between atoms: C_8  and  C_30
REMARK    3  A    between atoms: C_12  and  N_19
REMARK    4  A    between atoms: N_18  and  C_26
REMARK    5  A    between atoms: C_33  and  C_36
REMARK                            x       y       z     vdW  Elec       q    Type
REMARK                         _______ _______ _______ _____ _____    ______ ____
ROOT
ATOM      1  N   UNL     1      32.041 -10.448 -22.681  0.00  0.00    -0.296 N 
ATOM      2  N   UNL     1      33.293 -12.132 -23.707  0.00  0.00    -0.225 NA
ATOM      3  N   UNL     1      33.194 -13.756 -21.440  0.00  0.00    -0.167 N 
ATOM      4  N   UNL     1      31.999 -12.252 -20.330  0.00  0.00    -0.203 NA
ATOM      5  N   UNL     1      32.995 -14.312 -20.221  0.00  0.00    -0.150 NA
ATOM      6  C   UNL     1      32.646 -11.683 -22.652  0.00  0.00    +0.166 C 
ATOM      7  C   UNL     1      32.587 -12.518 -21.470  0.00  0.00    +0.188 C 
ATOM      8  C   UNL     1      33.876 -14.203 -22.574  0.00  0.00    +0.098 C 
ATOM      9  C   UNL     1      33.892 -13.379 -23.646  0.00  0.00    +0.117 C 
ATOM     10  C   UNL     1      32.275 -13.372 -19.604  0.00  0.00    +0.219 C 
ATOM     11  H   UNL     1      31.238 -10.344 -22.120  0.00  0.00    +0.154 HD
ENDROOT
BRANCH   1  17
ATOM     12  C   UNL     1      33.210  -7.070 -24.886  0.00  0.00    +0.048 C 
ATOM     13  C   UNL     1      31.959  -7.648 -25.105  0.00  0.00    +0.016 C 
ATOM     14  C   UNL     1      34.072  -7.613 -23.934  0.00  0.00    +0.016 C 
ATOM     15  C   UNL     1      31.571  -8.770 -24.374  0.00  0.00    +0.016 C 
ATOM     16  C   UNL     1      33.684  -8.736 -23.201  0.00  0.00    +0.016 C 
ATOM     17  C   UNL     1      32.434  -9.313 -23.421  0.00  0.00    +0.050 C 
BRANCH  12  19
ATOM     18  N   UNL     1      32.822  -3.378 -26.516  0.00  0.00    +0.392 N 
ATOM     19  N   UNL     1      33.591  -5.966 -25.605  0.00  0.00    -0.313 N 
ATOM     20  C   UNL     1      33.758  -4.291 -27.214  0.00  0.00    -0.036 C 
ATOM     21  C   UNL     1      34.108  -4.698 -25.070  0.00  0.00    +0.050 C 
ATOM     22  C   UNL     1      34.939  -4.192 -26.253  0.00  0.00    -0.002 C 
ATOM     23  C   UNL     1      32.933  -3.711 -25.077  0.00  0.00    -0.057 C 
ATOM     24  C   UNL     1      33.385  -5.787 -27.048  0.00  0.00    +0.070 C 
ATOM     25  H   UNL     1      33.087  -2.410 -26.698  0.00  0.00    -0.079 HD
BRANCH  18  26
ATOM     26  C   UNL     1      31.457  -3.403 -27.010  0.00  0.00    -0.058 C 
ATOM     27  C   UNL     1      31.426  -3.066 -28.498  0.00  0.00    -0.023 C 
ATOM     28  C   UNL     1      30.609  -2.420 -26.207  0.00  0.00    -0.023 C 
ENDBRANCH  18  26
ENDBRANCH  12  19
ENDBRANCH   1  17
BRANCH   8  30
ATOM     29  O   UNL     1      35.333 -17.457 -23.437  0.00  0.00    -0.446 OA
ATOM     30  C   UNL     1      34.539 -15.518 -22.622  0.00  0.00    +0.058 C 
ATOM     31  C   UNL     1      35.162 -16.224 -21.565  0.00  0.00    +0.047 C 
ATOM     32  C   UNL     1      34.669 -16.310 -23.739  0.00  0.00    +0.181 C 
ATOM     33  C   UNL     1      35.628 -17.397 -22.112  0.00  0.00    +0.198 C 
BRANCH  33  36
ATOM     34  O   UNL     1      35.746 -19.440 -20.947  0.00  0.00    -0.267 OA
ATOM     35  N   UNL     1      37.733 -18.528 -21.640  0.00  0.00    -0.323 N 
ATOM     36  C   UNL     1      36.331 -18.491 -21.535  0.00  0.00    +0.277 C 
ATOM     37  H   UNL     1      38.236 -19.278 -21.247  0.00  0.00    +0.145 HD
ATOM     38  H   UNL     1      38.211 -17.805 -22.105  0.00  0.00    +0.145 HD
ENDBRANCH  33  36
ENDBRANCH   8  30
TORSDOF 5
ENDMDL
MODEL 4
REMARK VINA RESULT:      -9.5      5.190     10.205
REMARK  Name = 44462738
REMARK  5 active torsions:
REMARK  status: ('A' for Active; 'I' for Inactive)
REMARK    1  A    between atoms: N_1  and  C_17
REMARK    2  A    between atoms: C_8  and  C_30
REMARK    3  A    between atoms: C_12  and  N_19
REMARK    4  A    between atoms: N_18  and  C_26
REMARK    5  A    between atoms: C_33  and  C_36
REMARK                            x       y       z     vdW  Elec       q    Type
REMARK                         _______ _______ _______ _____ _____    ______ ____
ROOT
ATOM      1  N   UNL     1      32.836 -22.580 -18.241  0.00  0.00    -0.296 N 
ATOM      2  N   UNL     1      34.644 -23.012 -16.827  0.00  0.00    -0.225 NA
ATOM      3  N   UNL     1      32.980 -23.891 -14.767  0.00  0.00    -0.167 N 
ATOM      4  N   UNL     1      31.162 -23.532 -15.988  0.00  0.00    -0.203 NA
ATOM      5  N   UNL     1      31.951 -24.246 -13.959  0.00  0.00    -0.150 NA
ATOM      6  C   UNL     1      33.344 -23.008 -17.037  0.00  0.00    +0.166 C 
ATOM      7  C   UNL     1      32.470 -23.463 -15.975  0.00  0.00    +0.188 C 
ATOM      8  C   UNL     1      34.363 -23.882 -14.573  0.00  0.00    +0.098 C 
ATOM      9  C   UNL     1      35.124 -23.449 -15.603  0.00  0.00    +0.117 C 
ATOM     10  C   UNL     1      30.895 -24.014 -14.741  0.00  0.00    +0.219 C 
ATOM     11  H   UNL     1      31.989 -22.994 -18.527  0.00  0.00    +0.154 HD
ENDROOT
BRANCH   1  17
ATOM     12  C   UNL     1      34.471 -19.717 -20.843  0.00  0.00    +0.048 C 
ATOM     13  C   UNL     1      35.301 -20.650 -20.221  0.00  0.00    +0.016 C 
ATOM     14  C   UNL     1      33.098 -19.736 -20.602  0.00  0.00    +0.016 C 
ATOM     15  C   UNL     1      34.759 -21.601 -19.357  0.00  0.00    +0.016 C 
ATOM     16  C   UNL     1      32.554 -20.687 -19.737  0.00  0.00    +0.016 C 
ATOM     17  C   UNL     1      33.384 -21.619 -19.115  0.00  0.00    +0.050 C 
BRANCH  12  19
ATOM     18  N   UNL     1      35.173 -16.010 -22.327  0.00  0.00    +0.392 N 
ATOM     19  N   UNL     1      35.005 -18.783 -21.694  0.00  0.00    -0.313 N 
ATOM     20  C   UNL     1      35.288 -17.122 -23.300  0.00  0.00    -0.036 C 
ATOM     21  C   UNL     1      36.180 -17.935 -21.448  0.00  0.00    +0.050 C 
ATOM     22  C   UNL     1      36.653 -17.659 -22.879  0.00  0.00    -0.002 C 
ATOM     23  C   UNL     1      35.644 -16.558 -21.033  0.00  0.00    -0.057 C 
ATOM     24  C   UNL     1      34.388 -18.334 -22.948  0.00  0.00    +0.070 C 
ATOM     25  H   UNL     1      35.748 -15.225 -22.632  0.00  0.00    -0.079 HD
BRANCH  18  26
ATOM     26  C   UNL     1      33.860 -15.395 -22.249  0.00  0.00    -0.058 C 
ATOM     27  C   UNL     1      33.596 -14.553 -23.494  0.00  0.00    -0.023 C 
ATOM     28  C   UNL     1      33.772 -14.547 -20.984  0.00  0.00    -0.023 C 
ENDBRANCH  18  26
ENDBRANCH  12  19
ENDBRANCH   1  17
BRANCH   8  30
ATOM     29  O   UNL     1      36.209 -25.559 -11.884  0.00  0.00    -0.446 OA
ATOM     30  C   UNL     1      34.981 -24.335 -13.316  0.00  0.00    +0.058 C 
ATOM     31  C   UNL     1      34.854 -23.771 -12.024  0.00  0.00    +0.047 C 
ATOM     32  C   UNL     1      35.816 -25.420 -13.178  0.00  0.00    +0.181 C 
ATOM     33  C   UNL     1      35.619 -24.552 -11.189  0.00  0.00    +0.198 C 
BRANCH  33  36
ATOM     34  O   UNL     1      35.296 -25.215  -8.952  0.00  0.00    -0.267 OA
ATOM     35  N   UNL     1      36.813 -23.535  -9.325  0.00  0.00    -0.323 N 
ATOM     36  C   UNL     1      35.871 -24.470  -9.791  0.00  0.00    +0.277 C 
ATOM     37  H   UNL     1      37.000 -23.464  -8.360  0.00  0.00    +0.145 HD
ATOM     38  H   UNL     1      37.284 -22.951  -9.962  0.00  0.00    +0.145 HD
ENDBRANCH  33  36
ENDBRANCH   8  30
TORSDOF 5
ENDMDL
MODEL 5
REMARK VINA RESULT:      -8.9      5.434     12.548
REMARK  Name = 44462738
REMARK  5 active torsions:
REMARK  status: ('A' for Active; 'I' for Inactive)
REMARK    1  A    between atoms: N_1  and  C_17
REMARK    2  A    between atoms: C_8  and  C_30
REMARK    3  A    between atoms: C_12  and  N_19
REMARK    4  A    between atoms: N_18  and  C_26
REMARK    5  A    between atoms: C_33  and  C_36
REMARK                            x       y       z     vdW  Elec       q    Type
REMARK                         _______ _______ _______ _____ _____    ______ ____
ROOT
ATOM      1  N   UNL     1      35.527 -21.765 -18.730  0.00  0.00    -0.296 N 
ATOM      2  N   UNL     1      34.082 -20.879 -20.337  0.00  0.00    -0.225 NA
ATOM      3  N   UNL     1      36.045 -19.164 -21.333  0.00  0.00    -0.167 N 
ATOM      4  N   UNL     1      37.534 -19.902 -19.864  0.00  0.00    -0.203 NA
ATOM      5  N   UNL     1      37.166 -18.449 -21.596  0.00  0.00    -0.150 NA
ATOM      6  C   UNL     1      35.273 -20.908 -19.776  0.00  0.00    +0.166 C 
ATOM      7  C   UNL     1      36.300 -20.023 -20.285  0.00  0.00    +0.188 C 
ATOM      8  C   UNL     1      34.771 -19.153 -21.906  0.00  0.00    +0.098 C 
ATOM      9  C   UNL     1      33.858 -20.005 -21.389  0.00  0.00    +0.117 C 
ATOM     10  C   UNL     1      38.020 -18.934 -20.692  0.00  0.00    +0.219 C 
ATOM     11  H   UNL     1      36.454 -22.088 -18.648  0.00  0.00    +0.154 HD
ENDROOT
BRANCH   1  17
ATOM     12  C   UNL     1      32.817 -23.168 -15.844  0.00  0.00    +0.048 C 
ATOM     13  C   UNL     1      34.181 -23.119 -15.555  0.00  0.00    +0.016 C 
ATOM     14  C   UNL     1      32.353 -22.750 -17.091  0.00  0.00    +0.016 C 
ATOM     15  C   UNL     1      35.081 -22.654 -16.513  0.00  0.00    +0.016 C 
ATOM     16  C   UNL     1      33.253 -22.284 -18.050  0.00  0.00    +0.016 C 
ATOM     17  C   UNL     1      34.616 -22.235 -17.761  0.00  0.00    +0.050 C 
BRANCH  12  19
ATOM     18  N   UNL     1      29.291 -24.585 -14.432  0.00  0.00    +0.392 N 
ATOM     19  N   UNL     1      31.932 -23.625 -14.901  0.00  0.00    -0.313 N 
ATOM     20  C   UNL     1      30.124 -23.849 -13.452  0.00  0.00    -0.036 C 
ATOM     21  C   UNL     1      31.584 -25.025 -14.622  0.00  0.00    +0.050 C 
ATOM     22  C   UNL     1      31.151 -24.938 -13.155  0.00  0.00    -0.002 C 
ATOM     23  C   UNL     1      30.243 -25.288 -15.321  0.00  0.00    -0.057 C 
ATOM     24  C   UNL     1      31.032 -22.778 -14.108  0.00  0.00    +0.070 C 
ATOM     25  H   UNL     1      28.682 -25.240 -13.941  0.00  0.00    -0.079 HD
BRANCH  18  26
ATOM     26  C   UNL     1      28.325 -23.772 -15.149  0.00  0.00    -0.058 C 
ATOM     27  C   UNL     1      28.649 -23.757 -16.640  0.00  0.00    -0.023 C 
ATOM     28  C   UNL     1      28.323 -22.359 -14.573  0.00  0.00    -0.023 C 
ENDBRANCH  18  26
ENDBRANCH  12  19
ENDBRANCH   1  17
BRANCH   8  30
ATOM     29  O   UNL     1      33.830 -17.620 -25.102  0.00  0.00    -0.446 OA
ATOM     30  C   UNL     1      34.428 -18.272 -23.035  0.00  0.00    +0.058 C 
ATOM     31  C   UNL     1      34.375 -16.858 -23.059  0.00  0.00    +0.047 C 
ATOM     32  C   UNL     1      34.088 -18.688 -24.302  0.00  0.00    +0.181 C 
ATOM     33  C   UNL     1      34.007 -16.510 -24.338  0.00  0.00    +0.198 C 
BRANCH  33  36
ATOM     34  O   UNL     1      33.411 -15.114 -26.139  0.00  0.00    -0.267 OA
ATOM     35  N   UNL     1      34.011 -14.079 -24.182  0.00  0.00    -0.323 N 
ATOM     36  C   UNL     1      33.798 -15.241 -24.946  0.00  0.00    +0.277 C 
ATOM     37  H   UNL     1      33.871 -13.192 -24.586  0.00  0.00    +0.145 HD
ATOM     38  H   UNL     1      34.301 -14.153 -23.244  0.00  0.00    +0.145 HD
ENDBRANCH  33  36
ENDBRANCH   8  30
TORSDOF 5
ENDMDL
