MODEL 1
REMARK VINA RESULT:     -11.6      0.000      0.000
REMARK  Name = 127737
REMARK  3 active torsions:
REMARK  status: ('A' for Active; 'I' for Inactive)
REMARK    1  A    between atoms: N_2  and  S_15
REMARK    2  A    between atoms: N_3  and  C_9
REMARK    3  A    between atoms: S_15  and  C_23
REMARK                            x       y       z     vdW  Elec       q    Type
REMARK                         _______ _______ _______ _____ _____    ______ ____
ROOT
ATOM      1  O   UNL     1      34.493 -16.712 -22.502  0.00  0.00    -0.251 OA
ATOM      2  N   UNL     1      35.763 -17.254 -20.633  0.00  0.00    -0.169 N 
ATOM      3  N   UNL     1      34.665 -15.202 -20.729  0.00  0.00    -0.267 N 
ATOM      4  C   UNL     1      34.914 -16.388 -21.398  0.00  0.00    +0.323 C 
ATOM      5  H   UNL     1      36.025 -16.952 -19.732  0.00  0.00    +0.178 HD
ATOM      6  H   UNL     1      35.087 -15.108 -19.845  0.00  0.00    +0.156 HD
ENDROOT
BRANCH   3   9
ATOM      7 CL   UNL     1      34.069 -11.387 -24.051  0.00  0.00    -0.081 Cl
ATOM      8 CL   UNL     1      31.339 -10.638 -22.484  0.00  0.00    -0.081 Cl
ATOM      9  C   UNL     1      33.879 -14.107 -21.161  0.00  0.00    +0.053 C 
ATOM     10  C   UNL     1      34.292 -13.366 -22.256  0.00  0.00    +0.027 C 
ATOM     11  C   UNL     1      32.714 -13.799 -20.479  0.00  0.00    +0.016 C 
ATOM     12  C   UNL     1      33.518 -12.287 -22.682  0.00  0.00    +0.069 C 
ATOM     13  C   UNL     1      31.939 -12.719 -20.905  0.00  0.00    +0.014 C 
ATOM     14  C   UNL     1      32.341 -11.963 -22.005  0.00  0.00    +0.068 C 
ENDBRANCH   3   9
BRANCH   2  15
ATOM     15  S   UNL     1      36.359 -18.772 -21.160  0.00  0.00    +0.077 S 
ATOM     16  O   UNL     1      37.700 -18.963 -20.622  0.00  0.00    -0.150 OA
ATOM     17  O   UNL     1      36.136 -18.891 -22.593  0.00  0.00    -0.150 OA
BRANCH  15  23
ATOM     18  O   UNL     1      32.780 -22.544 -18.444  0.00  0.00    -0.475 OA
ATOM     19  C   UNL     1      34.866 -21.623 -18.788  0.00  0.00    +0.017 C 
ATOM     20  C   UNL     1      35.113 -22.692 -17.795  0.00  0.00    +0.077 C 
ATOM     21  C   UNL     1      33.522 -21.617 -19.131  0.00  0.00    +0.135 C 
ATOM     22  C   UNL     1      33.667 -22.981 -17.388  0.00  0.00    +0.210 C 
ATOM     23  C   UNL     1      35.267 -19.878 -20.362  0.00  0.00    +0.125 C 
ATOM     24  C   UNL     1      35.758 -20.763 -19.399  0.00  0.00    +0.019 C 
ATOM     25  C   UNL     1      33.016 -20.760 -20.088  0.00  0.00    +0.038 C 
ATOM     26  C   UNL     1      33.905 -19.878 -20.706  0.00  0.00    +0.023 C 
ENDBRANCH  15  23
ENDBRANCH   2  15
TORSDOF 3
ENDMDL
MODEL 2
REMARK VINA RESULT:     -11.6      0.686      1.444
REMARK  Name = 127737
REMARK  3 active torsions:
REMARK  status: ('A' for Active; 'I' for Inactive)
REMARK    1  A    between atoms: N_2  and  S_15
REMARK    2  A    between atoms: N_3  and  C_9
REMARK    3  A    between atoms: S_15  and  C_23
REMARK                            x       y       z     vdW  Elec       q    Type
REMARK                         _______ _______ _______ _____ _____    ______ ____
ROOT
ATOM      1  O   UNL     1      34.838 -16.439 -22.939  0.00  0.00    -0.251 OA
ATOM      2  N   UNL     1      35.507 -17.165 -20.835  0.00  0.00    -0.169 N 
ATOM      3  N   UNL     1      34.554 -15.053 -21.082  0.00  0.00    -0.267 N 
ATOM      4  C   UNL     1      34.940 -16.207 -21.740  0.00  0.00    +0.323 C 
ATOM      5  H   UNL     1      35.513 -16.933 -19.877  0.00  0.00    +0.178 HD
ATOM      6  H   UNL     1      34.712 -15.037 -20.110  0.00  0.00    +0.156 HD
ENDROOT
BRANCH   3   9
ATOM      7 CL   UNL     1      30.981 -11.446 -20.672  0.00  0.00    -0.081 Cl
ATOM      8 CL   UNL     1      32.120 -10.204 -23.434  0.00  0.00    -0.081 Cl
ATOM      9  C   UNL     1      33.962 -13.892 -21.632  0.00  0.00    +0.053 C 
ATOM     10  C   UNL     1      32.895 -13.299 -20.977  0.00  0.00    +0.027 C 
ATOM     11  C   UNL     1      34.460 -13.373 -22.816  0.00  0.00    +0.016 C 
ATOM     12  C   UNL     1      32.311 -12.155 -21.520  0.00  0.00    +0.069 C 
ATOM     13  C   UNL     1      33.876 -12.229 -23.359  0.00  0.00    +0.014 C 
ATOM     14  C   UNL     1      32.801 -11.620 -22.711  0.00  0.00    +0.068 C 
ENDBRANCH   3   9
BRANCH   2  15
ATOM     15  S   UNL     1      36.174 -18.677 -21.286  0.00  0.00    +0.077 S 
ATOM     16  O   UNL     1      37.516 -18.785 -20.729  0.00  0.00    -0.150 OA
ATOM     17  O   UNL     1      35.971 -18.872 -22.714  0.00  0.00    -0.150 OA
BRANCH  15  23
ATOM     18  O   UNL     1      32.733 -22.480 -18.436  0.00  0.00    -0.475 OA
ATOM     19  C   UNL     1      34.799 -21.549 -18.867  0.00  0.00    +0.017 C 
ATOM     20  C   UNL     1      35.095 -22.622 -17.893  0.00  0.00    +0.077 C 
ATOM     21  C   UNL     1      33.441 -21.545 -19.150  0.00  0.00    +0.135 C 
ATOM     22  C   UNL     1      33.669 -22.919 -17.423  0.00  0.00    +0.210 C 
ATOM     23  C   UNL     1      35.123 -19.792 -20.447  0.00  0.00    +0.125 C 
ATOM     24  C   UNL     1      35.660 -20.681 -19.512  0.00  0.00    +0.019 C 
ATOM     25  C   UNL     1      32.889 -20.685 -20.078  0.00  0.00    +0.038 C 
ATOM     26  C   UNL     1      33.746 -19.796 -20.730  0.00  0.00    +0.023 C 
ENDBRANCH  15  23
ENDBRANCH   2  15
TORSDOF 3
ENDMDL
MODEL 3
REMARK VINA RESULT:     -11.0      3.636      5.628
REMARK  Name = 127737
REMARK  3 active torsions:
REMARK  status: ('A' for Active; 'I' for Inactive)
REMARK    1  A    between atoms: N_2  and  S_15
REMARK    2  A    between atoms: N_3  and  C_9
REMARK    3  A    between atoms: S_15  and  C_23
REMARK                            x       y       z     vdW  Elec       q    Type
REMARK                         _______ _______ _______ _____ _____    ______ ____
ROOT
ATOM      1  O   UNL     1      32.938 -20.819 -20.223  0.00  0.00    -0.251 OA
ATOM      2  N   UNL     1      34.595 -21.644 -18.817  0.00  0.00    -0.169 N 
ATOM      3  N   UNL     1      35.104 -19.957 -20.341  0.00  0.00    -0.267 N 
ATOM      4  C   UNL     1      34.105 -20.782 -19.854  0.00  0.00    +0.323 C 
ATOM      5  H   UNL     1      35.531 -21.526 -18.536  0.00  0.00    +0.178 HD
ATOM      6  H   UNL     1      35.991 -20.062 -19.928  0.00  0.00    +0.156 HD
ENDROOT
BRANCH   3   9
ATOM      7 CL   UNL     1      35.009 -15.012 -21.560  0.00  0.00    -0.081 Cl
ATOM      8 CL   UNL     1      34.694 -15.925 -24.648  0.00  0.00    -0.081 Cl
ATOM      9  C   UNL     1      35.007 -18.981 -21.361  0.00  0.00    +0.053 C 
ATOM     10  C   UNL     1      35.049 -17.639 -21.021  0.00  0.00    +0.027 C 
ATOM     11  C   UNL     1      34.872 -19.388 -22.678  0.00  0.00    +0.016 C 
ATOM     12  C   UNL     1      34.954 -16.676 -22.026  0.00  0.00    +0.069 C 
ATOM     13  C   UNL     1      34.777 -18.425 -23.684  0.00  0.00    +0.014 C 
ATOM     14  C   UNL     1      34.817 -17.070 -23.358  0.00  0.00    +0.068 C 
ENDBRANCH   3   9
BRANCH   2  15
ATOM     15  S   UNL     1      33.680 -22.859 -18.029  0.00  0.00    +0.077 S 
ATOM     16  O   UNL     1      33.844 -24.113 -18.751  0.00  0.00    -0.150 OA
ATOM     17  O   UNL     1      32.343 -22.346 -17.772  0.00  0.00    -0.150 OA
BRANCH  15  23
ATOM     18  O   UNL     1      36.343 -23.290 -12.819  0.00  0.00    -0.475 OA
ATOM     19  C   UNL     1      34.533 -23.646 -14.202  0.00  0.00    +0.017 C 
ATOM     20  C   UNL     1      34.075 -24.151 -12.889  0.00  0.00    +0.077 C 
ATOM     21  C   UNL     1      35.821 -23.147 -14.079  0.00  0.00    +0.135 C 
ATOM     22  C   UNL     1      35.423 -24.197 -12.167  0.00  0.00    +0.210 C 
ATOM     23  C   UNL     1      34.502 -22.980 -16.492  0.00  0.00    +0.125 C 
ATOM     24  C   UNL     1      33.852 -23.567 -15.403  0.00  0.00    +0.019 C 
ATOM     25  C   UNL     1      36.479 -22.552 -15.138  0.00  0.00    +0.038 C 
ATOM     26  C   UNL     1      35.807 -22.475 -16.359  0.00  0.00    +0.023 C 
ENDBRANCH  15  23
ENDBRANCH   2  15
TORSDOF 3
ENDMDL
MODEL 4
REMARK VINA RESULT:     -10.7      3.921      5.955
REMARK  Name = 127737
REMARK  3 active torsions:
REMARK  status: ('A' for Active; 'I' for Inactive)
REMARK    1  A    between atoms: N_2  and  S_15
REMARK    2  A    between atoms: N_3  and  C_9
REMARK    3  A    between atoms: S_15  and  C_23
REMARK                            x       y       z     vdW  Elec       q    Type
REMARK                         _______ _______ _______ _____ _____    ______ ____
ROOT
ATOM      1  O   UNL     1      32.969 -20.937 -20.002  0.00  0.00    -0.251 OA
ATOM      2  N   UNL     1      34.609 -21.826 -18.616  0.00  0.00    -0.169 N 
ATOM      3  N   UNL     1      35.167 -20.164 -20.151  0.00  0.00    -0.267 N 
ATOM      4  C   UNL     1      34.142 -20.947 -19.649  0.00  0.00    +0.323 C 
ATOM      5  H   UNL     1      35.554 -21.746 -18.348  0.00  0.00    +0.178 HD
ATOM      6  H   UNL     1      36.054 -20.305 -19.749  0.00  0.00    +0.156 HD
ENDROOT
BRANCH   3   9
ATOM      7 CL   UNL     1      33.744 -19.013 -24.904  0.00  0.00    -0.081 Cl
ATOM      8 CL   UNL     1      34.904 -16.038 -24.380  0.00  0.00    -0.081 Cl
ATOM      9  C   UNL     1      35.097 -19.187 -21.172  0.00  0.00    +0.053 C 
ATOM     10  C   UNL     1      34.529 -19.520 -22.391  0.00  0.00    +0.027 C 
ATOM     11  C   UNL     1      35.599 -17.919 -20.932  0.00  0.00    +0.016 C 
ATOM     12  C   UNL     1      34.460 -18.557 -23.398  0.00  0.00    +0.069 C 
ATOM     13  C   UNL     1      35.529 -16.956 -21.940  0.00  0.00    +0.014 C 
ATOM     14  C   UNL     1      34.960 -17.275 -23.172  0.00  0.00    +0.068 C 
ENDBRANCH   3   9
BRANCH   2  15
ATOM     15  S   UNL     1      33.656 -23.001 -17.812  0.00  0.00    +0.077 S 
ATOM     16  O   UNL     1      33.791 -24.273 -18.510  0.00  0.00    -0.150 OA
ATOM     17  O   UNL     1      32.331 -22.447 -17.576  0.00  0.00    -0.150 OA
BRANCH  15  23
ATOM     18  O   UNL     1      36.268 -23.408 -12.575  0.00  0.00    -0.475 OA
ATOM     19  C   UNL     1      34.469 -23.765 -13.973  0.00  0.00    +0.017 C 
ATOM     20  C   UNL     1      33.996 -24.258 -12.661  0.00  0.00    +0.077 C 
ATOM     21  C   UNL     1      35.759 -23.272 -13.841  0.00  0.00    +0.135 C 
ATOM     22  C   UNL     1      35.337 -24.306 -11.925  0.00  0.00    +0.210 C 
ATOM     23  C   UNL     1      34.463 -23.115 -16.267  0.00  0.00    +0.125 C 
ATOM     24  C   UNL     1      33.800 -23.691 -15.180  0.00  0.00    +0.019 C 
ATOM     25  C   UNL     1      36.429 -22.688 -14.898  0.00  0.00    +0.038 C 
ATOM     26  C   UNL     1      35.769 -22.616 -16.126  0.00  0.00    +0.023 C 
ENDBRANCH  15  23
ENDBRANCH   2  15
TORSDOF 3
ENDMDL
MODEL 5
REMARK VINA RESULT:      -9.9      6.640     10.331
REMARK  Name = 127737
REMARK  3 active torsions:
REMARK  status: ('A' for Active; 'I' for Inactive)
REMARK    1  A    between atoms: N_2  and  S_15
REMARK    2  A    between atoms: N_3  and  C_9
REMARK    3  A    between atoms: S_15  and  C_23
REMARK                            x       y       z     vdW  Elec       q    Type
REMARK                         _______ _______ _______ _____ _____    ______ ____
ROOT
ATOM      1  O   UNL     1      33.745 -23.822 -16.139  0.00  0.00    -0.251 OA
ATOM      2  N   UNL     1      34.955 -22.265 -17.370  0.00  0.00    -0.169 N 
ATOM      3  N   UNL     1      35.555 -22.716 -15.164  0.00  0.00    -0.267 N 
ATOM      4  C   UNL     1      34.671 -23.021 -16.184  0.00  0.00    +0.323 C 
ATOM      5  H   UNL     1      35.744 -21.676 -17.352  0.00  0.00    +0.178 HD
ATOM      6  H   UNL     1      36.243 -22.044 -15.376  0.00  0.00    +0.156 HD
ENDROOT
BRANCH   3   9
ATOM      7 CL   UNL     1      38.390 -24.037 -11.144  0.00  0.00    -0.081 Cl
ATOM      8 CL   UNL     1      35.649 -24.961  -9.694  0.00  0.00    -0.081 Cl
ATOM      9  C   UNL     1      35.593 -23.252 -13.855  0.00  0.00    +0.053 C 
ATOM     10  C   UNL     1      36.812 -23.373 -13.208  0.00  0.00    +0.027 C 
ATOM     11  C   UNL     1      34.411 -23.643 -13.249  0.00  0.00    +0.016 C 
ATOM     12  C   UNL     1      36.849 -23.901 -11.917  0.00  0.00    +0.069 C 
ATOM     13  C   UNL     1      34.449 -24.171 -11.958  0.00  0.00    +0.014 C 
ATOM     14  C   UNL     1      35.668 -24.300 -11.292  0.00  0.00    +0.068 C 
ENDBRANCH   3   9
BRANCH   2  15
ATOM     15  S   UNL     1      34.031 -22.305 -18.812  0.00  0.00    +0.077 S 
ATOM     16  O   UNL     1      32.672 -21.872 -18.513  0.00  0.00    -0.150 OA
ATOM     17  O   UNL     1      34.250 -23.582 -19.473  0.00  0.00    -0.150 OA
BRANCH  15  23
ATOM     18  O   UNL     1      36.594 -18.185 -22.111  0.00  0.00    -0.475 OA
ATOM     19  C   UNL     1      34.801 -19.541 -21.598  0.00  0.00    +0.017 C 
ATOM     20  C   UNL     1      34.365 -18.832 -22.821  0.00  0.00    +0.077 C 
ATOM     21  C   UNL     1      36.088 -19.143 -21.269  0.00  0.00    +0.135 C 
ATOM     22  C   UNL     1      35.438 -17.742 -22.861  0.00  0.00    +0.210 C 
ATOM     23  C   UNL     1      34.817 -21.074 -19.771  0.00  0.00    +0.125 C 
ATOM     24  C   UNL     1      34.148 -20.513 -20.862  0.00  0.00    +0.019 C 
ATOM     25  C   UNL     1      36.773 -19.692 -20.203  0.00  0.00    +0.038 C 
ATOM     26  C   UNL     1      36.122 -20.667 -19.444  0.00  0.00    +0.023 C 
ENDBRANCH  15  23
ENDBRANCH   2  15
TORSDOF 3
ENDMDL
MODEL 6
REMARK VINA RESULT:      -9.7      5.584     10.788
REMARK  Name = 127737
REMARK  3 active torsions:
REMARK  status: ('A' for Active; 'I' for Inactive)
REMARK    1  A    between atoms: N_2  and  S_15
REMARK    2  A    between atoms: N_3  and  C_9
REMARK    3  A    between atoms: S_15  and  C_23
REMARK                            x       y       z     vdW  Elec       q    Type
REMARK                         _______ _______ _______ _____ _____    ______ ____
ROOT
ATOM      1  O   UNL     1      32.063 -13.463 -21.962  0.00  0.00    -0.251 OA
ATOM      2  N   UNL     1      33.021 -11.494 -22.741  0.00  0.00    -0.169 N 
ATOM      3  N   UNL     1      34.018 -13.541 -23.236  0.00  0.00    -0.267 N 
ATOM      4  C   UNL     1      32.961 -12.920 -22.593  0.00  0.00    +0.323 C 
ATOM      5  H   UNL     1      33.742 -11.127 -23.303  0.00  0.00    +0.178 HD
ATOM      6  H   UNL     1      34.652 -12.946 -23.698  0.00  0.00    +0.156 HD
ENDROOT
BRANCH   3   9
ATOM      7 CL   UNL     1      35.843 -17.687 -20.907  0.00  0.00    -0.081 Cl
ATOM      8 CL   UNL     1      35.171 -19.329 -23.613  0.00  0.00    -0.081 Cl
ATOM      9  C   UNL     1      34.299 -14.925 -23.312  0.00  0.00    +0.053 C 
ATOM     10  C   UNL     1      34.862 -15.563 -22.219  0.00  0.00    +0.027 C 
ATOM     11  C   UNL     1      34.006 -15.614 -24.477  0.00  0.00    +0.016 C 
ATOM     12  C   UNL     1      35.140 -16.929 -22.293  0.00  0.00    +0.069 C 
ATOM     13  C   UNL     1      34.284 -16.980 -24.551  0.00  0.00    +0.014 C 
ATOM     14  C   UNL     1      34.850 -17.637 -23.459  0.00  0.00    +0.068 C 
ENDBRANCH   3   9
BRANCH   2  15
ATOM     15  S   UNL     1      31.938 -10.380 -22.019  0.00  0.00    +0.077 S 
ATOM     16  O   UNL     1      32.285 -10.230 -20.613  0.00  0.00    -0.150 OA
ATOM     17  O   UNL     1      30.578 -10.742 -22.389  0.00  0.00    -0.150 OA
BRANCH  15  23
ATOM     18  O   UNL     1      33.381  -5.419 -24.799  0.00  0.00    -0.475 OA
ATOM     19  C   UNL     1      33.949  -7.315 -23.615  0.00  0.00    +0.017 C 
ATOM     20  C   UNL     1      35.240  -6.617 -23.800  0.00  0.00    +0.077 C 
ATOM     21  C   UNL     1      32.933  -6.561 -24.185  0.00  0.00    +0.135 C 
ATOM     22  C   UNL     1      34.815  -5.603 -24.864  0.00  0.00    +0.210 C 
ATOM     23  C   UNL     1      32.337  -8.902 -22.861  0.00  0.00    +0.125 C 
ATOM     24  C   UNL     1      33.670  -8.489 -22.942  0.00  0.00    +0.019 C 
ATOM     25  C   UNL     1      31.608  -6.943 -24.107  0.00  0.00    +0.038 C 
ATOM     26  C   UNL     1      31.313  -8.133 -23.439  0.00  0.00    +0.023 C 
ENDBRANCH  15  23
ENDBRANCH   2  15
TORSDOF 3
ENDMDL
MODEL 7
REMARK VINA RESULT:      -9.7      6.417      8.909
REMARK  Name = 127737
REMARK  3 active torsions:
REMARK  status: ('A' for Active; 'I' for Inactive)
REMARK    1  A    between atoms: N_2  and  S_15
REMARK    2  A    between atoms: N_3  and  C_9
REMARK    3  A    between atoms: S_15  and  C_23
REMARK                            x       y       z     vdW  Elec       q    Type
REMARK                         _______ _______ _______ _____ _____    ______ ____
ROOT
ATOM      1  O   UNL     1      34.226 -22.324 -15.311  0.00  0.00    -0.251 OA
ATOM      2  N   UNL     1      32.726 -24.093 -15.165  0.00  0.00    -0.169 N 
ATOM      3  N   UNL     1      33.064 -23.029 -17.210  0.00  0.00    -0.267 N 
ATOM      4  C   UNL     1      33.424 -23.059 -15.874  0.00  0.00    +0.323 C 
ATOM      5  H   UNL     1      32.133 -24.680 -15.689  0.00  0.00    +0.178 HD
ATOM      6  H   UNL     1      32.400 -23.698 -17.493  0.00  0.00    +0.156 HD
ENDROOT
BRANCH   3   9
ATOM      7 CL   UNL     1      37.057 -21.178 -19.774  0.00  0.00    -0.081 Cl
ATOM      8 CL   UNL     1      34.964 -19.355 -21.436  0.00  0.00    -0.081 Cl
ATOM      9  C   UNL     1      33.533 -22.155 -18.218  0.00  0.00    +0.053 C 
ATOM     10  C   UNL     1      34.892 -22.091 -18.482  0.00  0.00    +0.027 C 
ATOM     11  C   UNL     1      32.625 -21.380 -18.920  0.00  0.00    +0.016 C 
ATOM     12  C   UNL     1      35.355 -21.228 -19.477  0.00  0.00    +0.069 C 
ATOM     13  C   UNL     1      33.088 -20.518 -19.915  0.00  0.00    +0.014 C 
ATOM     14  C   UNL     1      34.452 -20.442 -20.193  0.00  0.00    +0.068 C 
ENDBRANCH   3   9
BRANCH   2  15
ATOM     15  S   UNL     1      32.843 -24.389 -13.481  0.00  0.00    +0.077 S 
ATOM     16  O   UNL     1      32.274 -25.698 -13.193  0.00  0.00    -0.150 OA
ATOM     17  O   UNL     1      32.354 -23.219 -12.766  0.00  0.00    -0.150 OA
BRANCH  15  23
ATOM     18  O   UNL     1      38.657 -24.726 -12.777  0.00  0.00    -0.475 OA
ATOM     19  C   UNL     1      36.709 -25.338 -13.848  0.00  0.00    +0.017 C 
ATOM     20  C   UNL     1      37.744 -26.172 -14.498  0.00  0.00    +0.077 C 
ATOM     21  C   UNL     1      37.298 -24.561 -12.861  0.00  0.00    +0.135 C 
ATOM     22  C   UNL     1      38.992 -25.451 -13.984  0.00  0.00    +0.210 C 
ATOM     23  C   UNL     1      34.573 -24.461 -13.253  0.00  0.00    +0.125 C 
ATOM     24  C   UNL     1      35.343 -25.306 -14.057  0.00  0.00    +0.019 C 
ATOM     25  C   UNL     1      36.556 -23.728 -12.048  0.00  0.00    +0.038 C 
ATOM     26  C   UNL     1      35.176 -23.678 -12.254  0.00  0.00    +0.023 C 
ENDBRANCH  15  23
ENDBRANCH   2  15
TORSDOF 3
ENDMDL
MODEL 8
REMARK VINA RESULT:      -9.6      4.665      8.646
REMARK  Name = 127737
REMARK  3 active torsions:
REMARK  status: ('A' for Active; 'I' for Inactive)
REMARK    1  A    between atoms: N_2  and  S_15
REMARK    2  A    between atoms: N_3  and  C_9
REMARK    3  A    between atoms: S_15  and  C_23
REMARK                            x       y       z     vdW  Elec       q    Type
REMARK                         _______ _______ _______ _____ _____    ______ ____
ROOT
ATOM      1  O   UNL     1      36.418 -19.967 -19.788  0.00  0.00    -0.251 OA
ATOM      2  N   UNL     1      34.829 -19.518 -21.423  0.00  0.00    -0.169 N 
ATOM      3  N   UNL     1      34.309 -20.961 -19.670  0.00  0.00    -0.267 N 
ATOM      4  C   UNL     1      35.288 -20.153 -20.222  0.00  0.00    +0.323 C 
ATOM      5  H   UNL     1      33.893 -19.673 -21.688  0.00  0.00    +0.178 HD
ATOM      6  H   UNL     1      33.453 -20.995 -20.154  0.00  0.00    +0.156 HD
ENDROOT
BRANCH   3   9
ATOM      7 CL   UNL     1      37.189 -22.676 -15.835  0.00  0.00    -0.081 Cl
ATOM      8 CL   UNL     1      34.576 -24.257 -14.767  0.00  0.00    -0.081 Cl
ATOM      9  C   UNL     1      34.388 -21.746 -18.495  0.00  0.00    +0.053 C 
ATOM     10  C   UNL     1      35.591 -21.827 -17.813  0.00  0.00    +0.027 C 
ATOM     11  C   UNL     1      33.261 -22.417 -18.051  0.00  0.00    +0.016 C 
ATOM     12  C   UNL     1      35.669 -22.601 -16.655  0.00  0.00    +0.069 C 
ATOM     13  C   UNL     1      33.339 -23.191 -16.892  0.00  0.00    +0.014 C 
ATOM     14  C   UNL     1      34.543 -23.282 -16.195  0.00  0.00    +0.068 C 
ENDBRANCH   3   9
BRANCH   2  15
ATOM     15  S   UNL     1      35.778 -18.511 -22.433  0.00  0.00    +0.077 S 
ATOM     16  O   UNL     1      35.466 -18.811 -23.824  0.00  0.00    -0.150 OA
ATOM     17  O   UNL     1      37.160 -18.562 -21.980  0.00  0.00    -0.150 OA
BRANCH  15  23
ATOM     18  O   UNL     1      33.695 -13.160 -21.228  0.00  0.00    -0.475 OA
ATOM     19  C   UNL     1      34.288 -14.812 -22.725  0.00  0.00    +0.017 C 
ATOM     20  C   UNL     1      33.880 -13.685 -23.591  0.00  0.00    +0.077 C 
ATOM     21  C   UNL     1      34.182 -14.432 -21.395  0.00  0.00    +0.135 C 
ATOM     22  C   UNL     1      33.192 -12.811 -22.540  0.00  0.00    +0.210 C 
ATOM     23  C   UNL     1      35.154 -16.927 -22.043  0.00  0.00    +0.125 C 
ATOM     24  C   UNL     1      34.778 -16.058 -23.070  0.00  0.00    +0.019 C 
ATOM     25  C   UNL     1      34.559 -15.269 -20.363  0.00  0.00    +0.038 C 
ATOM     26  C   UNL     1      35.046 -16.534 -20.698  0.00  0.00    +0.023 C 
ENDBRANCH  15  23
ENDBRANCH   2  15
TORSDOF 3
ENDMDL
MODEL 9
REMARK VINA RESULT:      -9.5      6.830     10.323
REMARK  Name = 127737
REMARK  3 active torsions:
REMARK  status: ('A' for Active; 'I' for Inactive)
REMARK    1  A    between atoms: N_2  and  S_15
REMARK    2  A    between atoms: N_3  and  C_9
REMARK    3  A    between atoms: S_15  and  C_23
REMARK                            x       y       z     vdW  Elec       q    Type
REMARK                         _______ _______ _______ _____ _____    ______ ____
ROOT
ATOM      1  O   UNL     1      33.520 -23.925 -15.758  0.00  0.00    -0.251 OA
ATOM      2  N   UNL     1      34.716 -22.555 -17.205  0.00  0.00    -0.169 N 
ATOM      3  N   UNL     1      35.480 -22.887 -15.029  0.00  0.00    -0.267 N 
ATOM      4  C   UNL     1      34.490 -23.199 -15.944  0.00  0.00    +0.323 C 
ATOM      5  H   UNL     1      35.541 -22.025 -17.301  0.00  0.00    +0.178 HD
ATOM      6  H   UNL     1      36.189 -22.284 -15.350  0.00  0.00    +0.156 HD
ENDROOT
BRANCH   3   9
ATOM      7 CL   UNL     1      38.559 -23.925 -11.106  0.00  0.00    -0.081 Cl
ATOM      8 CL   UNL     1      35.913 -24.733  -9.428  0.00  0.00    -0.081 Cl
ATOM      9  C   UNL     1      35.599 -23.327 -13.690  0.00  0.00    +0.053 C 
ATOM     10  C   UNL     1      36.855 -23.406 -13.111  0.00  0.00    +0.027 C 
ATOM     11  C   UNL     1      34.457 -23.670 -12.985  0.00  0.00    +0.016 C 
ATOM     12  C   UNL     1      36.973 -23.839 -11.790  0.00  0.00    +0.069 C 
ATOM     13  C   UNL     1      34.575 -24.103 -11.664  0.00  0.00    +0.014 C 
ATOM     14  C   UNL     1      35.833 -24.188 -11.067  0.00  0.00    +0.068 C 
ENDBRANCH   3   9
BRANCH   2  15
ATOM     15  S   UNL     1      33.666 -22.632 -18.557  0.00  0.00    +0.077 S 
ATOM     16  O   UNL     1      32.306 -22.361 -18.112  0.00  0.00    -0.150 OA
ATOM     17  O   UNL     1      33.951 -23.849 -19.302  0.00  0.00    -0.150 OA
BRANCH  15  23
ATOM     18  O   UNL     1      35.642 -18.108 -21.728  0.00  0.00    -0.475 OA
ATOM     19  C   UNL     1      35.995 -19.905 -20.326  0.00  0.00    +0.017 C 
ATOM     20  C   UNL     1      37.345 -19.325 -20.499  0.00  0.00    +0.077 C 
ATOM     21  C   UNL     1      35.074 -19.145 -21.031  0.00  0.00    +0.135 C 
ATOM     22  C   UNL     1      37.059 -18.401 -21.685  0.00  0.00    +0.210 C 
ATOM     23  C   UNL     1      34.225 -21.283 -19.517  0.00  0.00    +0.125 C 
ATOM     24  C   UNL     1      35.588 -20.978 -19.556  0.00  0.00    +0.019 C 
ATOM     25  C   UNL     1      33.721 -19.420 -20.998  0.00  0.00    +0.038 C 
ATOM     26  C   UNL     1      33.298 -20.508 -20.233  0.00  0.00    +0.023 C 
ENDBRANCH  15  23
ENDBRANCH   2  15
TORSDOF 3
ENDMDL
