MODEL 1
REMARK VINA RESULT:     -11.0      0.000      0.000
REMARK  Name = 9796590
REMARK  3 active torsions:
REMARK  status: ('A' for Active; 'I' for Inactive)
REMARK    1  A    between atoms: C_1  and  C_13
REMARK    2  A    between atoms: C_9  and  C_23
REMARK    3  A    between atoms: C_13  and  O_19
REMARK                            x       y       z     vdW  Elec       q    Type
REMARK                         _______ _______ _______ _____ _____    ______ ____
ROOT
ATOM      1  C   UNL     1      35.995 -23.731 -15.104  0.00  0.00    +0.007 C 
ATOM      2  C   UNL     1      34.879 -23.583 -15.927  0.00  0.00    -0.002 C 
ATOM      3  C   UNL     1      37.165 -23.031 -15.382  0.00  0.00    -0.002 C 
ATOM      4  C   UNL     1      34.920 -22.731 -17.043  0.00  0.00    -0.000 C 
ATOM      5  C   UNL     1      36.110 -22.019 -17.326  0.00  0.00    +0.000 C 
ATOM      6  C   UNL     1      37.224 -22.180 -16.486  0.00  0.00    -0.000 C 
ATOM      7  C   UNL     1      33.807 -22.569 -17.883  0.00  0.00    +0.000 C 
ATOM      8  C   UNL     1      36.151 -21.167 -18.442  0.00  0.00    +0.005 C 
ATOM      9  C   UNL     1      35.035 -21.018 -19.266  0.00  0.00    +0.053 C 
ATOM     10  C   UNL     1      33.865 -21.719 -18.987  0.00  0.00    +0.005 C 
ENDROOT
BRANCH   1  13
ATOM     11  N   UNL     1      37.759 -24.736 -12.413  0.00  0.00    -0.270 N 
ATOM     12  N   UNL     1      37.607 -23.158 -10.910  0.00  0.00    -0.225 NA
ATOM     13  C   UNL     1      35.934 -24.657 -13.899  0.00  0.00    +0.141 C 
ATOM     14  C   UNL     1      36.694 -26.029 -14.022  0.00  0.00    +0.059 C 
ATOM     15  C   UNL     1      36.610 -24.071 -12.715  0.00  0.00    +0.078 C 
ATOM     16  C   UNL     1      38.044 -25.845 -13.296  0.00  0.00    +0.100 C 
ATOM     17  C   UNL     1      36.524 -23.083 -11.772  0.00  0.00    +0.113 C 
ATOM     18  C   UNL     1      38.332 -24.180 -11.333  0.00  0.00    +0.167 C 
BRANCH  13  19
ATOM     19  O   UNL     1      34.575 -24.925 -13.552  0.00  0.00    -0.377 OA
ATOM     20  H   UNL     1      34.181 -24.134 -13.152  0.00  0.00    +0.211 HD
ENDBRANCH  13  19
ENDBRANCH   1  13
BRANCH   9  23
ATOM     21  O   UNL     1      34.161 -20.102 -21.240  0.00  0.00    -0.270 OA
ATOM     22  N   UNL     1      36.225 -19.316 -20.534  0.00  0.00    -0.299 N 
ATOM     23  C   UNL     1      35.094 -20.133 -20.417  0.00  0.00    +0.246 C 
ATOM     24  C   UNL     1      36.419 -18.367 -21.606  0.00  0.00    +0.111 C 
ATOM     25  H   UNL     1      36.926 -19.391 -19.847  0.00  0.00    +0.150 HD
ENDBRANCH   9  23
TORSDOF 3
ENDMDL
MODEL 2
REMARK VINA RESULT:     -10.4      3.813      5.305
REMARK  Name = 9796590
REMARK  3 active torsions:
REMARK  status: ('A' for Active; 'I' for Inactive)
REMARK    1  A    between atoms: C_1  and  C_13
REMARK    2  A    between atoms: C_9  and  C_23
REMARK    3  A    between atoms: C_13  and  O_19
REMARK                            x       y       z     vdW  Elec       q    Type
REMARK                         _______ _______ _______ _____ _____    ______ ____
ROOT
ATOM      1  C   UNL     1      35.219 -23.494 -15.047  0.00  0.00    +0.007 C 
ATOM      2  C   UNL     1      34.209 -23.575 -14.089  0.00  0.00    -0.002 C 
ATOM      3  C   UNL     1      34.904 -23.186 -16.367  0.00  0.00    -0.002 C 
ATOM      4  C   UNL     1      32.868 -23.349 -14.440  0.00  0.00    -0.000 C 
ATOM      5  C   UNL     1      32.548 -23.035 -15.783  0.00  0.00    +0.000 C 
ATOM      6  C   UNL     1      33.577 -22.957 -16.734  0.00  0.00    -0.000 C 
ATOM      7  C   UNL     1      31.837 -23.426 -13.489  0.00  0.00    +0.000 C 
ATOM      8  C   UNL     1      31.207 -22.808 -16.134  0.00  0.00    +0.005 C 
ATOM      9  C   UNL     1      30.196 -22.889 -15.176  0.00  0.00    +0.053 C 
ATOM     10  C   UNL     1      30.511 -23.197 -13.856  0.00  0.00    +0.005 C 
ENDROOT
BRANCH   1  13
ATOM     11  N   UNL     1      37.135 -25.230 -12.885  0.00  0.00    -0.270 N 
ATOM     12  N   UNL     1      37.228 -27.289 -13.607  0.00  0.00    -0.225 NA
ATOM     13  C   UNL     1      36.665 -23.742 -14.650  0.00  0.00    +0.141 C 
ATOM     14  C   UNL     1      37.196 -22.964 -13.391  0.00  0.00    +0.059 C 
ATOM     15  C   UNL     1      36.888 -25.146 -14.221  0.00  0.00    +0.078 C 
ATOM     16  C   UNL     1      37.130 -23.952 -12.206  0.00  0.00    +0.100 C 
ATOM     17  C   UNL     1      36.945 -26.439 -14.665  0.00  0.00    +0.113 C 
ATOM     18  C   UNL     1      37.339 -26.512 -12.542  0.00  0.00    +0.167 C 
BRANCH  13  19
ATOM     19  O   UNL     1      37.533 -23.466 -15.749  0.00  0.00    -0.377 OA
ATOM     20  H   UNL     1      38.425 -23.788 -15.546  0.00  0.00    +0.211 HD
ENDBRANCH  13  19
ENDBRANCH   1  13
BRANCH   9  23
ATOM     21  O   UNL     1      28.020 -22.121 -14.758  0.00  0.00    -0.270 OA
ATOM     22  N   UNL     1      28.437 -23.025 -16.852  0.00  0.00    -0.299 N 
ATOM     23  C   UNL     1      28.813 -22.652 -15.556  0.00  0.00    +0.246 C 
ATOM     24  C   UNL     1      27.109 -22.832 -17.386  0.00  0.00    +0.111 C 
ATOM     25  H   UNL     1      29.116 -23.440 -17.432  0.00  0.00    +0.150 HD
ENDBRANCH   9  23
TORSDOF 3
ENDMDL
MODEL 3
REMARK VINA RESULT:     -10.0      3.852      9.149
REMARK  Name = 9796590
REMARK  3 active torsions:
REMARK  status: ('A' for Active; 'I' for Inactive)
REMARK    1  A    between atoms: C_1  and  C_13
REMARK    2  A    between atoms: C_9  and  C_23
REMARK    3  A    between atoms: C_13  and  O_19
REMARK                            x       y       z     vdW  Elec       q    Type
REMARK                         _______ _______ _______ _____ _____    ______ ____
ROOT
ATOM      1  C   UNL     1      35.140 -19.521 -21.246  0.00  0.00    +0.007 C 
ATOM      2  C   UNL     1      35.911 -20.172 -20.284  0.00  0.00    -0.002 C 
ATOM      3  C   UNL     1      33.756 -19.668 -21.247  0.00  0.00    -0.002 C 
ATOM      4  C   UNL     1      35.306 -20.982 -19.308  0.00  0.00    -0.000 C 
ATOM      5  C   UNL     1      33.899 -21.132 -19.309  0.00  0.00    +0.000 C 
ATOM      6  C   UNL     1      33.138 -20.468 -20.285  0.00  0.00    -0.000 C 
ATOM      7  C   UNL     1      36.066 -21.645 -18.331  0.00  0.00    +0.000 C 
ATOM      8  C   UNL     1      33.293 -21.941 -18.334  0.00  0.00    +0.005 C 
ATOM      9  C   UNL     1      34.065 -22.593 -17.371  0.00  0.00    +0.053 C 
ATOM     10  C   UNL     1      35.448 -22.445 -17.370  0.00  0.00    +0.005 C 
ENDROOT
BRANCH   1  13
ATOM     11  N   UNL     1      34.577 -16.920 -23.315  0.00  0.00    -0.270 N 
ATOM     12  N   UNL     1      34.635 -15.102 -22.105  0.00  0.00    -0.225 NA
ATOM     13  C   UNL     1      35.811 -18.648 -22.294  0.00  0.00    +0.141 C 
ATOM     14  C   UNL     1      35.511 -18.991 -23.799  0.00  0.00    +0.059 C 
ATOM     15  C   UNL     1      35.335 -17.243 -22.231  0.00  0.00    +0.078 C 
ATOM     16  C   UNL     1      34.421 -18.001 -24.264  0.00  0.00    +0.100 C 
ATOM     17  C   UNL     1      35.364 -16.101 -21.477  0.00  0.00    +0.113 C 
ATOM     18  C   UNL     1      34.176 -15.642 -23.222  0.00  0.00    +0.167 C 
BRANCH  13  19
ATOM     19  O   UNL     1      37.226 -18.650 -22.105  0.00  0.00    -0.377 OA
ATOM     20  H   UNL     1      37.602 -17.833 -22.467  0.00  0.00    +0.211 HD
ENDBRANCH  13  19
ENDBRANCH   1  13
BRANCH   9  23
ATOM     21  O   UNL     1      34.098 -24.193 -15.657  0.00  0.00    -0.270 OA
ATOM     22  N   UNL     1      32.034 -23.308 -16.236  0.00  0.00    -0.299 N 
ATOM     23  C   UNL     1      33.423 -23.428 -16.369  0.00  0.00    +0.246 C 
ATOM     24  C   UNL     1      31.257 -24.050 -15.270  0.00  0.00    +0.111 C 
ATOM     25  H   UNL     1      31.562 -22.682 -16.832  0.00  0.00    +0.150 HD
ENDBRANCH   9  23
TORSDOF 3
ENDMDL
MODEL 4
REMARK VINA RESULT:     -10.0      3.227      4.795
REMARK  Name = 9796590
REMARK  3 active torsions:
REMARK  status: ('A' for Active; 'I' for Inactive)
REMARK    1  A    between atoms: C_1  and  C_13
REMARK    2  A    between atoms: C_9  and  C_23
REMARK    3  A    between atoms: C_13  and  O_19
REMARK                            x       y       z     vdW  Elec       q    Type
REMARK                         _______ _______ _______ _____ _____    ______ ____
ROOT
ATOM      1  C   UNL     1      33.904 -22.208 -18.248  0.00  0.00    +0.007 C 
ATOM      2  C   UNL     1      35.140 -21.711 -18.662  0.00  0.00    -0.002 C 
ATOM      3  C   UNL     1      32.728 -21.664 -18.755  0.00  0.00    -0.002 C 
ATOM      4  C   UNL     1      35.214 -20.659 -19.590  0.00  0.00    -0.000 C 
ATOM      5  C   UNL     1      34.018 -20.106 -20.106  0.00  0.00    +0.000 C 
ATOM      6  C   UNL     1      32.783 -20.619 -19.679  0.00  0.00    -0.000 C 
ATOM      7  C   UNL     1      36.449 -20.145 -20.018  0.00  0.00    +0.000 C 
ATOM      8  C   UNL     1      34.092 -19.054 -21.034  0.00  0.00    +0.005 C 
ATOM      9  C   UNL     1      35.328 -18.556 -21.448  0.00  0.00    +0.053 C 
ATOM     10  C   UNL     1      36.504 -19.101 -20.941  0.00  0.00    +0.005 C 
ENDROOT
BRANCH   1  13
ATOM     11  N   UNL     1      33.172 -22.895 -15.031  0.00  0.00    -0.270 N 
ATOM     12  N   UNL     1      30.995 -22.934 -14.854  0.00  0.00    -0.225 NA
ATOM     13  C   UNL     1      33.842 -23.348 -17.243  0.00  0.00    +0.141 C 
ATOM     14  C   UNL     1      35.056 -23.486 -16.254  0.00  0.00    +0.059 C 
ATOM     15  C   UNL     1      32.721 -23.178 -16.285  0.00  0.00    +0.078 C 
ATOM     16  C   UNL     1      34.613 -22.834 -14.925  0.00  0.00    +0.100 C 
ATOM     17  C   UNL     1      31.359 -23.197 -16.166  0.00  0.00    +0.113 C 
ATOM     18  C   UNL     1      32.129 -22.759 -14.196  0.00  0.00    +0.167 C 
BRANCH  13  19
ATOM     19  O   UNL     1      33.668 -24.593 -17.920  0.00  0.00    -0.377 OA
ATOM     20  H   UNL     1      34.513 -24.872 -18.306  0.00  0.00    +0.211 HD
ENDBRANCH  13  19
ENDBRANCH   1  13
BRANCH   9  23
ATOM     21  O   UNL     1      36.045 -16.440 -22.161  0.00  0.00    -0.270 OA
ATOM     22  N   UNL     1      34.698 -17.643 -23.614  0.00  0.00    -0.299 N 
ATOM     23  C   UNL     1      35.388 -17.467 -22.409  0.00  0.00    +0.246 C 
ATOM     24  C   UNL     1      34.682 -16.665 -24.677  0.00  0.00    +0.111 C 
ATOM     25  H   UNL     1      34.198 -18.481 -23.746  0.00  0.00    +0.150 HD
ENDBRANCH   9  23
TORSDOF 3
ENDMDL
MODEL 5
REMARK VINA RESULT:      -9.9      7.263     13.127
REMARK  Name = 9796590
REMARK  3 active torsions:
REMARK  status: ('A' for Active; 'I' for Inactive)
REMARK    1  A    between atoms: C_1  and  C_13
REMARK    2  A    between atoms: C_9  and  C_23
REMARK    3  A    between atoms: C_13  and  O_19
REMARK                            x       y       z     vdW  Elec       q    Type
REMARK                         _______ _______ _______ _____ _____    ______ ____
ROOT
ATOM      1  C   UNL     1      32.237 -12.343 -21.219  0.00  0.00    +0.007 C 
ATOM      2  C   UNL     1      32.872 -12.890 -22.333  0.00  0.00    -0.002 C 
ATOM      3  C   UNL     1      32.323 -12.981 -19.985  0.00  0.00    -0.002 C 
ATOM      4  C   UNL     1      33.603 -14.084 -22.227  0.00  0.00    -0.000 C 
ATOM      5  C   UNL     1      33.690 -14.733 -20.973  0.00  0.00    +0.000 C 
ATOM      6  C   UNL     1      33.045 -14.168 -19.861  0.00  0.00    -0.000 C 
ATOM      7  C   UNL     1      34.249 -14.650 -23.339  0.00  0.00    +0.000 C 
ATOM      8  C   UNL     1      34.421 -15.928 -20.867  0.00  0.00    +0.005 C 
ATOM      9  C   UNL     1      35.057 -16.475 -21.982  0.00  0.00    +0.053 C 
ATOM     10  C   UNL     1      34.970 -15.837 -23.215  0.00  0.00    +0.005 C 
ENDROOT
BRANCH   1  13
ATOM     11  N   UNL     1      32.589  -8.991 -21.220  0.00  0.00    -0.270 N 
ATOM     12  N   UNL     1      33.397  -8.423 -23.169  0.00  0.00    -0.225 NA
ATOM     13  C   UNL     1      31.450 -11.049 -21.351  0.00  0.00    +0.141 C 
ATOM     14  C   UNL     1      31.093 -10.298 -20.016  0.00  0.00    +0.059 C 
ATOM     15  C   UNL     1      32.226 -10.000 -22.059  0.00  0.00    +0.078 C 
ATOM     16  C   UNL     1      32.135  -9.169 -19.858  0.00  0.00    +0.100 C 
ATOM     17  C   UNL     1      32.738  -9.639 -23.275  0.00  0.00    +0.113 C 
ATOM     18  C   UNL     1      33.279  -8.063 -21.901  0.00  0.00    +0.167 C 
BRANCH  13  19
ATOM     19  O   UNL     1      30.242 -11.278 -22.076  0.00  0.00    -0.377 OA
ATOM     20  H   UNL     1      29.818 -12.088 -21.750  0.00  0.00    +0.211 HD
ENDBRANCH  13  19
ENDBRANCH   1  13
BRANCH   9  23
ATOM     21  O   UNL     1      36.137 -18.359 -22.866  0.00  0.00    -0.270 OA
ATOM     22  N   UNL     1      36.157 -18.116 -20.560  0.00  0.00    -0.299 N 
ATOM     23  C   UNL     1      35.809 -17.713 -21.855  0.00  0.00    +0.246 C 
ATOM     24  C   UNL     1      36.922 -19.307 -20.273  0.00  0.00    +0.111 C 
ATOM     25  H   UNL     1      35.864 -17.557 -19.805  0.00  0.00    +0.150 HD
ENDBRANCH   9  23
TORSDOF 3
ENDMDL
MODEL 6
REMARK VINA RESULT:      -9.8      0.836      1.690
REMARK  Name = 9796590
REMARK  3 active torsions:
REMARK  status: ('A' for Active; 'I' for Inactive)
REMARK    1  A    between atoms: C_1  and  C_13
REMARK    2  A    between atoms: C_9  and  C_23
REMARK    3  A    between atoms: C_13  and  O_19
REMARK                            x       y       z     vdW  Elec       q    Type
REMARK                         _______ _______ _______ _____ _____    ______ ____
ROOT
ATOM      1  C   UNL     1      34.968 -23.962 -15.451  0.00  0.00    +0.007 C 
ATOM      2  C   UNL     1      35.987 -23.203 -16.025  0.00  0.00    -0.002 C 
ATOM      3  C   UNL     1      33.686 -23.931 -15.990  0.00  0.00    -0.002 C 
ATOM      4  C   UNL     1      35.735 -22.400 -17.149  0.00  0.00    -0.000 C 
ATOM      5  C   UNL     1      34.431 -22.367 -17.699  0.00  0.00    +0.000 C 
ATOM      6  C   UNL     1      33.417 -23.139 -17.108  0.00  0.00    -0.000 C 
ATOM      7  C   UNL     1      36.748 -21.628 -17.741  0.00  0.00    +0.000 C 
ATOM      8  C   UNL     1      34.179 -21.564 -18.823  0.00  0.00    +0.005 C 
ATOM      9  C   UNL     1      35.198 -20.804 -19.398  0.00  0.00    +0.053 C 
ATOM     10  C   UNL     1      36.480 -20.836 -18.858  0.00  0.00    +0.005 C 
ENDROOT
BRANCH   1  13
ATOM     11  N   UNL     1      37.440 -24.872 -13.348  0.00  0.00    -0.270 N 
ATOM     12  N   UNL     1      37.748 -23.218 -11.953  0.00  0.00    -0.225 NA
ATOM     13  C   UNL     1      35.258 -24.827 -14.234  0.00  0.00    +0.141 C 
ATOM     14  C   UNL     1      35.939 -26.218 -14.501  0.00  0.00    +0.059 C 
ATOM     15  C   UNL     1      36.257 -24.197 -13.334  0.00  0.00    +0.078 C 
ATOM     16  C   UNL     1      37.445 -26.029 -14.215  0.00  0.00    +0.100 C 
ATOM     17  C   UNL     1      36.459 -23.163 -12.462  0.00  0.00    +0.113 C 
ATOM     18  C   UNL     1      38.309 -24.276 -12.516  0.00  0.00    +0.167 C 
BRANCH  13  19
ATOM     19  O   UNL     1      34.060 -25.047 -13.489  0.00  0.00    -0.377 OA
ATOM     20  H   UNL     1      33.805 -24.228 -13.037  0.00  0.00    +0.211 HD
ENDBRANCH  13  19
ENDBRANCH   1  13
BRANCH   9  23
ATOM     21  O   UNL     1      33.854 -20.107 -21.189  0.00  0.00    -0.270 OA
ATOM     22  N   UNL     1      35.889 -19.030 -20.914  0.00  0.00    -0.299 N 
ATOM     23  C   UNL     1      34.920 -19.978 -20.561  0.00  0.00    +0.246 C 
ATOM     24  C   UNL     1      35.749 -18.121 -22.028  0.00  0.00    +0.111 C 
ATOM     25  H   UNL     1      36.710 -18.981 -20.373  0.00  0.00    +0.150 HD
ENDBRANCH   9  23
TORSDOF 3
ENDMDL
MODEL 7
REMARK VINA RESULT:      -9.8      1.799      2.277
REMARK  Name = 9796590
REMARK  3 active torsions:
REMARK  status: ('A' for Active; 'I' for Inactive)
REMARK    1  A    between atoms: C_1  and  C_13
REMARK    2  A    between atoms: C_9  and  C_23
REMARK    3  A    between atoms: C_13  and  O_19
REMARK                            x       y       z     vdW  Elec       q    Type
REMARK                         _______ _______ _______ _____ _____    ______ ____
ROOT
ATOM      1  C   UNL     1      36.946 -23.393 -14.955  0.00  0.00    +0.007 C 
ATOM      2  C   UNL     1      35.630 -23.567 -15.382  0.00  0.00    -0.002 C 
ATOM      3  C   UNL     1      37.802 -22.551 -15.659  0.00  0.00    -0.002 C 
ATOM      4  C   UNL     1      35.153 -22.899 -16.523  0.00  0.00    -0.000 C 
ATOM      5  C   UNL     1      36.023 -22.044 -17.239  0.00  0.00    +0.000 C 
ATOM      6  C   UNL     1      37.345 -21.880 -16.793  0.00  0.00    -0.000 C 
ATOM      7  C   UNL     1      33.830 -23.062 -16.968  0.00  0.00    +0.000 C 
ATOM      8  C   UNL     1      35.546 -21.376 -18.379  0.00  0.00    +0.005 C 
ATOM      9  C   UNL     1      34.230 -21.550 -18.807  0.00  0.00    +0.053 C 
ATOM     10  C   UNL     1      33.374 -22.391 -18.103  0.00  0.00    +0.005 C 
ENDROOT
BRANCH   1  13
ATOM     11  N   UNL     1      38.577 -26.172 -13.970  0.00  0.00    -0.270 N 
ATOM     12  N   UNL     1      40.704 -25.846 -14.347  0.00  0.00    -0.225 NA
ATOM     13  C   UNL     1      37.445 -24.122 -13.718  0.00  0.00    +0.141 C 
ATOM     14  C   UNL     1      36.563 -25.314 -13.195  0.00  0.00    +0.059 C 
ATOM     15  C   UNL     1      38.732 -24.819 -13.969  0.00  0.00    +0.078 C 
ATOM     16  C   UNL     1      37.221 -26.608 -13.722  0.00  0.00    +0.100 C 
ATOM     17  C   UNL     1      40.064 -24.623 -14.209  0.00  0.00    +0.113 C 
ATOM     18  C   UNL     1      39.763 -26.762 -14.191  0.00  0.00    +0.167 C 
BRANCH  13  19
ATOM     19  O   UNL     1      37.638 -23.199 -12.646  0.00  0.00    -0.377 OA
ATOM     20  H   UNL     1      38.090 -23.645 -11.913  0.00  0.00    +0.211 HD
ENDBRANCH  13  19
ENDBRANCH   1  13
BRANCH   9  23
ATOM     21  O   UNL     1      32.535 -20.794 -20.241  0.00  0.00    -0.270 OA
ATOM     22  N   UNL     1      34.716 -20.242 -20.801  0.00  0.00    -0.299 N 
ATOM     23  C   UNL     1      33.752 -20.853 -19.989  0.00  0.00    +0.246 C 
ATOM     24  C   UNL     1      34.398 -19.493 -21.994  0.00  0.00    +0.111 C 
ATOM     25  H   UNL     1      35.663 -20.327 -20.543  0.00  0.00    +0.150 HD
ENDBRANCH   9  23
TORSDOF 3
ENDMDL
MODEL 8
REMARK VINA RESULT:      -9.7      5.985      9.773
REMARK  Name = 9796590
REMARK  3 active torsions:
REMARK  status: ('A' for Active; 'I' for Inactive)
REMARK    1  A    between atoms: C_1  and  C_13
REMARK    2  A    between atoms: C_9  and  C_23
REMARK    3  A    between atoms: C_13  and  O_19
REMARK                            x       y       z     vdW  Elec       q    Type
REMARK                         _______ _______ _______ _____ _____    ______ ____
ROOT
ATOM      1  C   UNL     1      35.184 -17.143 -22.046  0.00  0.00    +0.007 C 
ATOM      2  C   UNL     1      34.759 -16.457 -23.183  0.00  0.00    -0.002 C 
ATOM      3  C   UNL     1      35.099 -16.540 -20.795  0.00  0.00    -0.002 C 
ATOM      4  C   UNL     1      34.242 -15.154 -23.082  0.00  0.00    -0.000 C 
ATOM      5  C   UNL     1      34.156 -14.541 -21.810  0.00  0.00    +0.000 C 
ATOM      6  C   UNL     1      34.587 -15.247 -20.676  0.00  0.00    -0.000 C 
ATOM      7  C   UNL     1      33.809 -14.447 -24.216  0.00  0.00    +0.000 C 
ATOM      8  C   UNL     1      33.639 -13.238 -21.709  0.00  0.00    +0.005 C 
ATOM      9  C   UNL     1      33.214 -12.551 -22.847  0.00  0.00    +0.053 C 
ATOM     10  C   UNL     1      33.299 -13.155 -24.097  0.00  0.00    +0.005 C 
ENDROOT
BRANCH   1  13
ATOM     11  N   UNL     1      35.968 -19.878 -20.239  0.00  0.00    -0.270 N 
ATOM     12  N   UNL     1      34.099 -20.911 -19.778  0.00  0.00    -0.225 NA
ATOM     13  C   UNL     1      35.740 -18.552 -22.173  0.00  0.00    +0.141 C 
ATOM     14  C   UNL     1      37.257 -18.750 -21.808  0.00  0.00    +0.059 C 
ATOM     15  C   UNL     1      35.100 -19.488 -21.213  0.00  0.00    +0.078 C 
ATOM     16  C   UNL     1      37.291 -19.307 -20.368  0.00  0.00    +0.100 C 
ATOM     17  C   UNL     1      33.933 -20.135 -20.916  0.00  0.00    +0.113 C 
ATOM     18  C   UNL     1      35.353 -20.728 -19.400  0.00  0.00    +0.167 C 
BRANCH  13  19
ATOM     19  O   UNL     1      35.525 -19.050 -23.494  0.00  0.00    -0.377 OA
ATOM     20  H   UNL     1      35.511 -20.019 -23.476  0.00  0.00    +0.211 HD
ENDBRANCH  13  19
ENDBRANCH   1  13
BRANCH   9  23
ATOM     21  O   UNL     1      32.149 -10.827 -21.665  0.00  0.00    -0.270 OA
ATOM     22  N   UNL     1      32.822 -10.362 -23.835  0.00  0.00    -0.299 N 
ATOM     23  C   UNL     1      32.682 -11.204 -22.725  0.00  0.00    +0.246 C 
ATOM     24  C   UNL     1      32.368  -8.991 -23.861  0.00  0.00    +0.111 C 
ATOM     25  H   UNL     1      33.254 -10.725 -24.642  0.00  0.00    +0.150 HD
ENDBRANCH   9  23
TORSDOF 3
ENDMDL
MODEL 9
REMARK VINA RESULT:      -9.5      7.772     13.569
REMARK  Name = 9796590
REMARK  3 active torsions:
REMARK  status: ('A' for Active; 'I' for Inactive)
REMARK    1  A    between atoms: C_1  and  C_13
REMARK    2  A    between atoms: C_9  and  C_23
REMARK    3  A    between atoms: C_13  and  O_19
REMARK                            x       y       z     vdW  Elec       q    Type
REMARK                         _______ _______ _______ _____ _____    ______ ____
ROOT
ATOM      1  C   UNL     1      32.388 -11.569 -21.923  0.00  0.00    +0.007 C 
ATOM      2  C   UNL     1      32.631 -12.464 -20.881  0.00  0.00    -0.002 C 
ATOM      3  C   UNL     1      32.870 -11.838 -23.200  0.00  0.00    -0.002 C 
ATOM      4  C   UNL     1      33.361 -13.643 -21.105  0.00  0.00    -0.000 C 
ATOM      5  C   UNL     1      33.851 -13.917 -22.404  0.00  0.00    +0.000 C 
ATOM      6  C   UNL     1      33.597 -13.005 -23.441  0.00  0.00    -0.000 C 
ATOM      7  C   UNL     1      33.615 -14.556 -20.068  0.00  0.00    +0.000 C 
ATOM      8  C   UNL     1      34.581 -15.096 -22.627  0.00  0.00    +0.005 C 
ATOM      9  C   UNL     1      34.824 -15.992 -21.586  0.00  0.00    +0.053 C 
ATOM     10  C   UNL     1      34.342 -15.722 -20.309  0.00  0.00    +0.005 C 
ENDROOT
BRANCH   1  13
ATOM     11  N   UNL     1      32.663  -8.463 -20.643  0.00  0.00    -0.270 N 
ATOM     12  N   UNL     1      33.692  -7.237 -22.129  0.00  0.00    -0.225 NA
ATOM     13  C   UNL     1      31.595 -10.298 -21.663  0.00  0.00    +0.141 C 
ATOM     14  C   UNL     1      31.060 -10.084 -20.200  0.00  0.00    +0.059 C 
ATOM     15  C   UNL     1      32.429  -9.082 -21.833  0.00  0.00    +0.078 C 
ATOM     16  C   UNL     1      32.049  -9.120 -19.510  0.00  0.00    +0.100 C 
ATOM     17  C   UNL     1      33.079  -8.310 -22.757  0.00  0.00    +0.113 C 
ATOM     18  C   UNL     1      33.411  -7.366 -20.843  0.00  0.00    +0.167 C 
BRANCH  13  19
ATOM     19  O   UNL     1      30.491 -10.214 -22.564  0.00  0.00    -0.377 OA
ATOM     20  H   UNL     1      30.743 -10.590 -23.422  0.00  0.00    +0.211 HD
ENDBRANCH  13  19
ENDBRANCH   1  13
BRANCH   9  23
ATOM     21  O   UNL     1      35.810 -17.583 -22.998  0.00  0.00    -0.270 OA
ATOM     22  N   UNL     1      36.053 -17.903 -20.714  0.00  0.00    -0.299 N 
ATOM     23  C   UNL     1      35.582 -17.207 -21.834  0.00  0.00    +0.246 C 
ATOM     24  C   UNL     1      36.841 -19.111 -20.797  0.00  0.00    +0.111 C 
ATOM     25  H   UNL     1      35.837 -17.549 -19.821  0.00  0.00    +0.150 HD
ENDBRANCH   9  23
TORSDOF 3
ENDMDL
