MODEL 1
REMARK VINA RESULT:     -12.0      0.000      0.000
REMARK  Name = 5327066
REMARK  6 active torsions:
REMARK  status: ('A' for Active; 'I' for Inactive)
REMARK    1  A    between atoms: C_2  and  C_6
REMARK    2  A    between atoms: C_2  and  C_20
REMARK    3  A    between atoms: C_3  and  O_9
REMARK    4  A    between atoms: O_9  and  C_11
REMARK    5  A    between atoms: N_18  and  C_24
REMARK    6  A    between atoms: C_21  and  N_30
REMARK                            x       y       z     vdW  Elec       q    Type
REMARK                         _______ _______ _______ _____ _____    ______ ____
ROOT
ATOM      1  O   UNL     1      37.434 -19.265 -20.306  0.00  0.00    -0.286 OA
ATOM      2  C   UNL     1      36.242 -19.309 -20.646  0.00  0.00    +0.200 C 
ENDROOT
BRANCH   2   6
ATOM      3  C   UNL     1      35.009 -21.987 -18.344  0.00  0.00    +0.138 C 
ATOM      4  C   UNL     1      35.862 -21.099 -18.989  0.00  0.00    +0.040 C 
ATOM      5  C   UNL     1      33.657 -22.028 -18.663  0.00  0.00    +0.037 C 
ATOM      6  C   UNL     1      35.356 -20.241 -19.966  0.00  0.00    +0.042 C 
ATOM      7  C   UNL     1      33.151 -21.170 -19.638  0.00  0.00    +0.003 C 
ATOM      8  C   UNL     1      34.000 -20.277 -20.291  0.00  0.00    +0.003 C 
BRANCH   3   9
ATOM      9  O   UNL     1      35.506 -22.829 -17.384  0.00  0.00    -0.479 OA
BRANCH   9  11
ATOM     10  N   UNL     1      37.109 -24.226 -14.506  0.00  0.00    +0.384 N 
ATOM     11  C   UNL     1      35.421 -22.383 -16.032  0.00  0.00    +0.162 C 
ATOM     12  C   UNL     1      36.810 -21.992 -15.526  0.00  0.00    +0.020 C 
ATOM     13  C   UNL     1      34.839 -23.511 -15.180  0.00  0.00    +0.020 C 
ATOM     14  C   UNL     1      37.718 -23.214 -15.370  0.00  0.00    -0.078 C 
ATOM     15  C   UNL     1      35.821 -24.675 -15.034  0.00  0.00    -0.078 C 
ATOM     16  H   UNL     1      36.967 -23.827 -13.578  0.00  0.00    -0.085 HD
ATOM     17  H   UNL     1      37.736 -25.030 -14.463  0.00  0.00    -0.085 HD
ENDBRANCH   9  11
ENDBRANCH   3   9
ENDBRANCH   2   6
BRANCH   2  20
ATOM     18  N   UNL     1      34.961 -16.769 -22.821  0.00  0.00    -0.177 N 
ATOM     19  N   UNL     1      35.114 -17.720 -23.758  0.00  0.00    -0.171 NA
ATOM     20  C   UNL     1      35.740 -18.438 -21.729  0.00  0.00    +0.088 C 
ATOM     21  C   UNL     1      35.332 -17.164 -21.569  0.00  0.00    +0.122 C 
ATOM     22  C   UNL     1      35.600 -18.753 -23.065  0.00  0.00    +0.124 C 
BRANCH  18  24
ATOM     23  F   UNL     1      32.984 -11.832 -24.269  0.00  0.00    -0.204 F 
ATOM     24  C   UNL     1      34.460 -15.519 -23.188  0.00  0.00    +0.075 C 
ATOM     25  C   UNL     1      34.619 -14.440 -22.329  0.00  0.00    +0.019 C 
ATOM     26  C   UNL     1      33.811 -15.373 -24.406  0.00  0.00    +0.019 C 
ATOM     27  C   UNL     1      34.117 -13.191 -22.695  0.00  0.00    +0.031 C 
ATOM     28  C   UNL     1      33.311 -14.123 -24.773  0.00  0.00    +0.031 C 
ATOM     29  C   UNL     1      33.464 -13.032 -23.917  0.00  0.00    +0.140 C 
ENDBRANCH  18  24
BRANCH  21  30
ATOM     30  N   UNL     1      35.248 -16.341 -20.500  0.00  0.00    -0.344 N 
ATOM     31  H   UNL     1      34.494 -16.424 -19.872  0.00  0.00    +0.144 HD
ATOM     32  H   UNL     1      35.941 -15.658 -20.350  0.00  0.00    +0.144 HD
ENDBRANCH  21  30
ENDBRANCH   2  20
TORSDOF 6
ENDMDL
MODEL 2
REMARK VINA RESULT:     -11.7      2.589      4.157
REMARK  Name = 5327066
REMARK  6 active torsions:
REMARK  status: ('A' for Active; 'I' for Inactive)
REMARK    1  A    between atoms: C_2  and  C_6
REMARK    2  A    between atoms: C_2  and  C_20
REMARK    3  A    between atoms: C_3  and  O_9
REMARK    4  A    between atoms: O_9  and  C_11
REMARK    5  A    between atoms: N_18  and  C_24
REMARK    6  A    between atoms: C_21  and  N_30
REMARK                            x       y       z     vdW  Elec       q    Type
REMARK                         _______ _______ _______ _____ _____    ______ ____
ROOT
ATOM      1  O   UNL     1      33.897 -23.791 -19.386  0.00  0.00    -0.286 OA
ATOM      2  C   UNL     1      34.207 -22.822 -18.675  0.00  0.00    +0.200 C 
ENDROOT
BRANCH   2   6
ATOM      3  C   UNL     1      34.524 -22.938 -14.950  0.00  0.00    +0.138 C 
ATOM      4  C   UNL     1      34.865 -22.909 -16.298  0.00  0.00    +0.040 C 
ATOM      5  C   UNL     1      33.192 -22.911 -14.556  0.00  0.00    +0.037 C 
ATOM      6  C   UNL     1      33.859 -22.853 -17.263  0.00  0.00    +0.042 C 
ATOM      7  C   UNL     1      32.187 -22.854 -15.520  0.00  0.00    +0.003 C 
ATOM      8  C   UNL     1      32.520 -22.825 -16.874  0.00  0.00    +0.003 C 
BRANCH   3   9
ATOM      9  O   UNL     1      35.512 -22.993 -14.002  0.00  0.00    -0.479 OA
BRANCH   9  11
ATOM     10  N   UNL     1      38.108 -24.185 -11.848  0.00  0.00    +0.384 N 
ATOM     11  C   UNL     1      35.452 -24.074 -13.074  0.00  0.00    +0.162 C 
ATOM     12  C   UNL     1      35.722 -23.559 -11.660  0.00  0.00    +0.020 C 
ATOM     13  C   UNL     1      36.493 -25.119 -13.472  0.00  0.00    +0.020 C 
ATOM     14  C   UNL     1      37.177 -23.114 -11.490  0.00  0.00    -0.078 C 
ATOM     15  C   UNL     1      37.919 -24.619 -13.232  0.00  0.00    -0.078 C 
ATOM     16  H   UNL     1      37.955 -24.979 -11.226  0.00  0.00    -0.085 HD
ATOM     17  H   UNL     1      39.059 -23.828 -11.751  0.00  0.00    -0.085 HD
ENDBRANCH   9  11
ENDBRANCH   3   9
ENDBRANCH   2   6
BRANCH   2  20
ATOM     18  N   UNL     1      35.337 -19.865 -20.350  0.00  0.00    -0.177 N 
ATOM     19  N   UNL     1      36.511 -20.186 -19.781  0.00  0.00    -0.171 NA
ATOM     20  C   UNL     1      34.902 -21.657 -19.260  0.00  0.00    +0.088 C 
ATOM     21  C   UNL     1      34.327 -20.735 -20.057  0.00  0.00    +0.122 C 
ATOM     22  C   UNL     1      36.226 -21.303 -19.106  0.00  0.00    +0.124 C 
BRANCH  18  24
ATOM     23  F   UNL     1      34.998 -15.366 -23.515  0.00  0.00    -0.204 F 
ATOM     24  C   UNL     1      35.250 -18.726 -21.151  0.00  0.00    +0.075 C 
ATOM     25  C   UNL     1      35.143 -18.864 -22.528  0.00  0.00    +0.019 C 
ATOM     26  C   UNL     1      35.274 -17.470 -20.560  0.00  0.00    +0.019 C 
ATOM     27  C   UNL     1      35.058 -17.726 -23.329  0.00  0.00    +0.031 C 
ATOM     28  C   UNL     1      35.188 -16.331 -21.360  0.00  0.00    +0.031 C 
ATOM     29  C   UNL     1      35.080 -16.459 -22.745  0.00  0.00    +0.140 C 
ENDBRANCH  18  24
BRANCH  21  30
ATOM     30  N   UNL     1      33.075 -20.573 -20.540  0.00  0.00    -0.344 N 
ATOM     31  H   UNL     1      32.903 -19.913 -21.250  0.00  0.00    +0.144 HD
ATOM     32  H   UNL     1      32.336 -21.116 -20.182  0.00  0.00    +0.144 HD
ENDBRANCH  21  30
ENDBRANCH   2  20
TORSDOF 6
ENDMDL
MODEL 3
REMARK VINA RESULT:     -11.7      3.005      4.531
REMARK  Name = 5327066
REMARK  6 active torsions:
REMARK  status: ('A' for Active; 'I' for Inactive)
REMARK    1  A    between atoms: C_2  and  C_6
REMARK    2  A    between atoms: C_2  and  C_20
REMARK    3  A    between atoms: C_3  and  O_9
REMARK    4  A    between atoms: O_9  and  C_11
REMARK    5  A    between atoms: N_18  and  C_24
REMARK    6  A    between atoms: C_21  and  N_30
REMARK                            x       y       z     vdW  Elec       q    Type
REMARK                         _______ _______ _______ _____ _____    ______ ____
ROOT
ATOM      1  O   UNL     1      33.861 -23.187 -19.482  0.00  0.00    -0.286 OA
ATOM      2  C   UNL     1      34.533 -22.382 -18.819  0.00  0.00    +0.200 C 
ENDROOT
BRANCH   2   6
ATOM      3  C   UNL     1      33.830 -23.450 -15.304  0.00  0.00    +0.138 C 
ATOM      4  C   UNL     1      33.671 -23.233 -16.668  0.00  0.00    +0.040 C 
ATOM      5  C   UNL     1      34.992 -23.053 -14.654  0.00  0.00    +0.037 C 
ATOM      6  C   UNL     1      34.690 -22.612 -17.391  0.00  0.00    +0.042 C 
ATOM      7  C   UNL     1      36.011 -22.433 -15.377  0.00  0.00    +0.003 C 
ATOM      8  C   UNL     1      35.860 -22.212 -16.746  0.00  0.00    +0.003 C 
BRANCH   3   9
ATOM      9  O   UNL     1      32.829 -24.059 -14.594  0.00  0.00    -0.479 OA
BRANCH   9  11
ATOM     10  N   UNL     1      29.580 -25.288 -13.733  0.00  0.00    +0.384 N 
ATOM     11  C   UNL     1      31.634 -23.307 -14.393  0.00  0.00    +0.162 C 
ATOM     12  C   UNL     1      31.126 -23.515 -12.966  0.00  0.00    +0.020 C 
ATOM     13  C   UNL     1      30.588 -23.770 -15.407  0.00  0.00    +0.020 C 
ATOM     14  C   UNL     1      30.609 -24.939 -12.752  0.00  0.00    -0.078 C 
ATOM     15  C   UNL     1      30.089 -25.183 -15.101  0.00  0.00    -0.078 C 
ATOM     16  H   UNL     1      28.789 -24.653 -13.623  0.00  0.00    -0.085 HD
ATOM     17  H   UNL     1      29.296 -26.254 -13.570  0.00  0.00    -0.085 HD
ENDBRANCH   9  11
ENDBRANCH   3   9
ENDBRANCH   2   6
BRANCH   2  20
ATOM     18  N   UNL     1      35.443 -19.418 -20.610  0.00  0.00    -0.177 N 
ATOM     19  N   UNL     1      36.668 -19.700 -20.134  0.00  0.00    -0.171 NA
ATOM     20  C   UNL     1      35.147 -21.206 -19.471  0.00  0.00    +0.088 C 
ATOM     21  C   UNL     1      34.485 -20.311 -20.228  0.00  0.00    +0.122 C 
ATOM     22  C   UNL     1      36.469 -20.815 -19.427  0.00  0.00    +0.124 C 
BRANCH  18  24
ATOM     23  F   UNL     1      34.725 -14.971 -23.786  0.00  0.00    -0.204 F 
ATOM     24  C   UNL     1      35.262 -18.291 -21.414  0.00  0.00    +0.075 C 
ATOM     25  C   UNL     1      35.182 -17.036 -20.826  0.00  0.00    +0.019 C 
ATOM     26  C   UNL     1      35.163 -18.443 -22.791  0.00  0.00    +0.019 C 
ATOM     27  C   UNL     1      34.999 -15.912 -21.630  0.00  0.00    +0.031 C 
ATOM     28  C   UNL     1      34.982 -17.317 -23.595  0.00  0.00    +0.031 C 
ATOM     29  C   UNL     1      34.900 -16.052 -23.014  0.00  0.00    +0.140 C 
ENDBRANCH  18  24
BRANCH  21  30
ATOM     30  N   UNL     1      33.194 -20.188 -20.611  0.00  0.00    -0.344 N 
ATOM     31  H   UNL     1      32.471 -20.342 -19.961  0.00  0.00    +0.144 HD
ATOM     32  H   UNL     1      32.977 -19.945 -21.540  0.00  0.00    +0.144 HD
ENDBRANCH  21  30
ENDBRANCH   2  20
TORSDOF 6
ENDMDL
MODEL 4
REMARK VINA RESULT:     -11.2      2.575      4.173
REMARK  Name = 5327066
REMARK  6 active torsions:
REMARK  status: ('A' for Active; 'I' for Inactive)
REMARK    1  A    between atoms: C_2  and  C_6
REMARK    2  A    between atoms: C_2  and  C_20
REMARK    3  A    between atoms: C_3  and  O_9
REMARK    4  A    between atoms: O_9  and  C_11
REMARK    5  A    between atoms: N_18  and  C_24
REMARK    6  A    between atoms: C_21  and  N_30
REMARK                            x       y       z     vdW  Elec       q    Type
REMARK                         _______ _______ _______ _____ _____    ______ ____
ROOT
ATOM      1  O   UNL     1      33.767 -23.643 -19.198  0.00  0.00    -0.286 OA
ATOM      2  C   UNL     1      34.306 -22.763 -18.509  0.00  0.00    +0.200 C 
ENDROOT
BRANCH   2   6
ATOM      3  C   UNL     1      35.352 -23.246 -14.950  0.00  0.00    +0.138 C 
ATOM      4  C   UNL     1      35.414 -23.137 -16.335  0.00  0.00    +0.040 C 
ATOM      5  C   UNL     1      34.141 -23.102 -14.282  0.00  0.00    +0.037 C 
ATOM      6  C   UNL     1      34.250 -22.880 -17.060  0.00  0.00    +0.042 C 
ATOM      7  C   UNL     1      32.978 -22.844 -15.007  0.00  0.00    +0.003 C 
ATOM      8  C   UNL     1      33.032 -22.733 -16.396  0.00  0.00    +0.003 C 
BRANCH   3   9
ATOM      9  O   UNL     1      36.494 -23.499 -14.238  0.00  0.00    -0.479 OA
BRANCH   9  11
ATOM     10  N   UNL     1      38.638 -26.333 -13.819  0.00  0.00    +0.384 N 
ATOM     11  C   UNL     1      36.418 -24.515 -13.240  0.00  0.00    +0.162 C 
ATOM     12  C   UNL     1      37.703 -24.526 -12.412  0.00  0.00    +0.020 C 
ATOM     13  C   UNL     1      36.212 -25.864 -13.928  0.00  0.00    +0.020 C 
ATOM     14  C   UNL     1      38.898 -25.018 -13.232  0.00  0.00    -0.078 C 
ATOM     15  C   UNL     1      37.463 -26.308 -14.689  0.00  0.00    -0.078 C 
ATOM     16  H   UNL     1      38.482 -27.006 -13.068  0.00  0.00    -0.085 HD
ATOM     17  H   UNL     1      39.448 -26.598 -14.381  0.00  0.00    -0.085 HD
ENDBRANCH   9  11
ENDBRANCH   3   9
ENDBRANCH   2   6
BRANCH   2  20
ATOM     18  N   UNL     1      35.376 -19.869 -20.326  0.00  0.00    -0.177 N 
ATOM     19  N   UNL     1      36.560 -20.146 -19.754  0.00  0.00    -0.171 NA
ATOM     20  C   UNL     1      34.979 -21.615 -19.153  0.00  0.00    +0.088 C 
ATOM     21  C   UNL     1      34.383 -20.740 -19.985  0.00  0.00    +0.122 C 
ATOM     22  C   UNL     1      36.298 -21.235 -19.026  0.00  0.00    +0.124 C 
BRANCH  18  24
ATOM     23  F   UNL     1      34.942 -15.525 -23.690  0.00  0.00    -0.204 F 
ATOM     24  C   UNL     1      35.266 -18.769 -21.178  0.00  0.00    +0.075 C 
ATOM     25  C   UNL     1      35.103 -18.973 -22.541  0.00  0.00    +0.019 C 
ATOM     26  C   UNL     1      35.321 -17.487 -20.649  0.00  0.00    +0.019 C 
ATOM     27  C   UNL     1      34.994 -17.874 -23.392  0.00  0.00    +0.031 C 
ATOM     28  C   UNL     1      35.211 -16.387 -21.501  0.00  0.00    +0.031 C 
ATOM     29  C   UNL     1      35.048 -16.581 -22.872  0.00  0.00    +0.140 C 
ENDBRANCH  18  24
BRANCH  21  30
ATOM     30  N   UNL     1      33.125 -20.619 -20.464  0.00  0.00    -0.344 N 
ATOM     31  H   UNL     1      32.955 -20.705 -21.431  0.00  0.00    +0.144 HD
ATOM     32  H   UNL     1      32.378 -20.446 -19.847  0.00  0.00    +0.144 HD
ENDBRANCH  21  30
ENDBRANCH   2  20
TORSDOF 6
ENDMDL
MODEL 5
REMARK VINA RESULT:     -11.1      3.492      5.177
REMARK  Name = 5327066
REMARK  6 active torsions:
REMARK  status: ('A' for Active; 'I' for Inactive)
REMARK    1  A    between atoms: C_2  and  C_6
REMARK    2  A    between atoms: C_2  and  C_20
REMARK    3  A    between atoms: C_3  and  O_9
REMARK    4  A    between atoms: O_9  and  C_11
REMARK    5  A    between atoms: N_18  and  C_24
REMARK    6  A    between atoms: C_21  and  N_30
REMARK                            x       y       z     vdW  Elec       q    Type
REMARK                         _______ _______ _______ _____ _____    ______ ____
ROOT
ATOM      1  O   UNL     1      36.932 -22.237 -17.969  0.00  0.00    -0.286 OA
ATOM      2  C   UNL     1      35.708 -22.039 -17.924  0.00  0.00    +0.200 C 
ENDROOT
BRANCH   2   6
ATOM      3  C   UNL     1      32.877 -23.385 -15.882  0.00  0.00    +0.138 C 
ATOM      4  C   UNL     1      33.592 -22.860 -16.953  0.00  0.00    +0.040 C 
ATOM      5  C   UNL     1      33.505 -23.640 -14.669  0.00  0.00    +0.037 C 
ATOM      6  C   UNL     1      34.953 -22.588 -16.808  0.00  0.00    +0.042 C 
ATOM      7  C   UNL     1      34.866 -23.370 -14.525  0.00  0.00    +0.003 C 
ATOM      8  C   UNL     1      35.589 -22.843 -15.594  0.00  0.00    +0.003 C 
BRANCH   3   9
ATOM      9  O   UNL     1      31.541 -23.652 -16.025  0.00  0.00    -0.479 OA
BRANCH   9  11
ATOM     10  N   UNL     1      28.021 -23.476 -15.404  0.00  0.00    +0.384 N 
ATOM     11  C   UNL     1      30.838 -24.054 -14.851  0.00  0.00    +0.162 C 
ATOM     12  C   UNL     1      29.831 -25.150 -15.199  0.00  0.00    +0.020 C 
ATOM     13  C   UNL     1      30.123 -22.836 -14.267  0.00  0.00    +0.020 C 
ATOM     14  C   UNL     1      28.681 -24.610 -16.053  0.00  0.00    -0.078 C 
ATOM     15  C   UNL     1      28.960 -22.383 -15.153  0.00  0.00    -0.078 C 
ATOM     16  H   UNL     1      27.626 -23.787 -14.516  0.00  0.00    -0.085 HD
ATOM     17  H   UNL     1      27.289 -23.134 -16.027  0.00  0.00    -0.085 HD
ENDBRANCH   9  11
ENDBRANCH   3   9
ENDBRANCH   2   6
BRANCH   2  20
ATOM     18  N   UNL     1      34.639 -19.931 -20.614  0.00  0.00    -0.177 N 
ATOM     19  N   UNL     1      33.444 -20.494 -20.367  0.00  0.00    -0.171 NA
ATOM     20  C   UNL     1      35.034 -21.273 -18.993  0.00  0.00    +0.088 C 
ATOM     21  C   UNL     1      35.638 -20.379 -19.800  0.00  0.00    +0.122 C 
ATOM     22  C   UNL     1      33.704 -21.327 -19.356  0.00  0.00    +0.124 C 
BRANCH  18  24
ATOM     23  F   UNL     1      35.096 -16.189 -24.635  0.00  0.00    -0.204 F 
ATOM     24  C   UNL     1      34.754 -18.983 -21.633  0.00  0.00    +0.075 C 
ATOM     25  C   UNL     1      34.443 -19.340 -22.937  0.00  0.00    +0.019 C 
ATOM     26  C   UNL     1      35.179 -17.698 -21.325  0.00  0.00    +0.019 C 
ATOM     27  C   UNL     1      34.560 -18.393 -23.954  0.00  0.00    +0.031 C 
ATOM     28  C   UNL     1      35.294 -16.750 -22.343  0.00  0.00    +0.031 C 
ATOM     29  C   UNL     1      34.985 -17.098 -23.657  0.00  0.00    +0.140 C 
ENDBRANCH  18  24
BRANCH  21  30
ATOM     30  N   UNL     1      36.907 -19.926 -19.902  0.00  0.00    -0.344 N 
ATOM     31  H   UNL     1      37.205 -19.167 -19.349  0.00  0.00    +0.144 HD
ATOM     32  H   UNL     1      37.534 -20.354 -20.528  0.00  0.00    +0.144 HD
ENDBRANCH  21  30
ENDBRANCH   2  20
TORSDOF 6
ENDMDL
MODEL 6
REMARK VINA RESULT:     -11.0      2.478      4.012
REMARK  Name = 5327066
REMARK  6 active torsions:
REMARK  status: ('A' for Active; 'I' for Inactive)
REMARK    1  A    between atoms: C_2  and  C_6
REMARK    2  A    between atoms: C_2  and  C_20
REMARK    3  A    between atoms: C_3  and  O_9
REMARK    4  A    between atoms: O_9  and  C_11
REMARK    5  A    between atoms: N_18  and  C_24
REMARK    6  A    between atoms: C_21  and  N_30
REMARK                            x       y       z     vdW  Elec       q    Type
REMARK                         _______ _______ _______ _____ _____    ______ ____
ROOT
ATOM      1  O   UNL     1      36.857 -22.190 -18.051  0.00  0.00    -0.286 OA
ATOM      2  C   UNL     1      35.632 -21.995 -18.023  0.00  0.00    +0.200 C 
ENDROOT
BRANCH   2   6
ATOM      3  C   UNL     1      34.682 -23.206 -14.613  0.00  0.00    +0.138 C 
ATOM      4  C   UNL     1      35.426 -22.665 -15.656  0.00  0.00    +0.040 C 
ATOM      5  C   UNL     1      33.380 -23.644 -14.826  0.00  0.00    +0.037 C 
ATOM      6  C   UNL     1      34.860 -22.561 -16.926  0.00  0.00    +0.042 C 
ATOM      7  C   UNL     1      32.814 -23.539 -16.096  0.00  0.00    +0.003 C 
ATOM      8  C   UNL     1      33.554 -22.998 -17.146  0.00  0.00    +0.003 C 
BRANCH   3   9
ATOM      9  O   UNL     1      35.238 -23.309 -13.365  0.00  0.00    -0.479 OA
BRANCH   9  11
ATOM     10  N   UNL     1      38.016 -24.611 -11.524  0.00  0.00    +0.384 N 
ATOM     11  C   UNL     1      35.401 -24.625 -12.841  0.00  0.00    +0.162 C 
ATOM     12  C   UNL     1      35.551 -24.562 -11.320  0.00  0.00    +0.020 C 
ATOM     13  C   UNL     1      36.640 -25.256 -13.476  0.00  0.00    +0.020 C 
ATOM     14  C   UNL     1      36.879 -23.923 -10.910  0.00  0.00    -0.078 C 
ATOM     15  C   UNL     1      37.928 -24.593 -12.984  0.00  0.00    -0.078 C 
ATOM     16  H   UNL     1      38.028 -25.580 -11.203  0.00  0.00    -0.085 HD
ATOM     17  H   UNL     1      38.870 -24.127 -11.248  0.00  0.00    -0.085 HD
ENDBRANCH   9  11
ENDBRANCH   3   9
ENDBRANCH   2   6
BRANCH   2  20
ATOM     18  N   UNL     1      34.604 -19.860 -20.707  0.00  0.00    -0.177 N 
ATOM     19  N   UNL     1      33.401 -20.411 -20.471  0.00  0.00    -0.171 NA
ATOM     20  C   UNL     1      34.973 -21.216 -19.091  0.00  0.00    +0.088 C 
ATOM     21  C   UNL     1      35.592 -20.323 -19.888  0.00  0.00    +0.122 C 
ATOM     22  C   UNL     1      33.646 -21.253 -19.463  0.00  0.00    +0.124 C 
BRANCH  18  24
ATOM     23  F   UNL     1      35.124 -16.100 -24.703  0.00  0.00    -0.204 F 
ATOM     24  C   UNL     1      34.736 -18.907 -21.719  0.00  0.00    +0.075 C 
ATOM     25  C   UNL     1      35.168 -17.627 -21.401  0.00  0.00    +0.019 C 
ATOM     26  C   UNL     1      34.432 -19.255 -23.028  0.00  0.00    +0.019 C 
ATOM     27  C   UNL     1      35.299 -16.676 -22.412  0.00  0.00    +0.031 C 
ATOM     28  C   UNL     1      34.564 -18.303 -24.040  0.00  0.00    +0.031 C 
ATOM     29  C   UNL     1      34.998 -17.014 -23.731  0.00  0.00    +0.140 C 
ENDBRANCH  18  24
BRANCH  21  30
ATOM     30  N   UNL     1      36.867 -19.883 -19.980  0.00  0.00    -0.344 N 
ATOM     31  H   UNL     1      37.330 -19.545 -19.179  0.00  0.00    +0.144 HD
ATOM     32  H   UNL     1      37.333 -19.902 -20.847  0.00  0.00    +0.144 HD
ENDBRANCH  21  30
ENDBRANCH   2  20
TORSDOF 6
ENDMDL
MODEL 7
REMARK VINA RESULT:     -11.0      4.721      7.712
REMARK  Name = 5327066
REMARK  6 active torsions:
REMARK  status: ('A' for Active; 'I' for Inactive)
REMARK    1  A    between atoms: C_2  and  C_6
REMARK    2  A    between atoms: C_2  and  C_20
REMARK    3  A    between atoms: C_3  and  O_9
REMARK    4  A    between atoms: O_9  and  C_11
REMARK    5  A    between atoms: N_18  and  C_24
REMARK    6  A    between atoms: C_21  and  N_30
REMARK                            x       y       z     vdW  Elec       q    Type
REMARK                         _______ _______ _______ _____ _____    ______ ____
ROOT
ATOM      1  O   UNL     1      31.793 -13.467 -21.055  0.00  0.00    -0.286 OA
ATOM      2  C   UNL     1      32.561 -13.122 -21.966  0.00  0.00    +0.200 C 
ENDROOT
BRANCH   2   6
ATOM      3  C   UNL     1      34.870 -15.993 -22.613  0.00  0.00    +0.138 C 
ATOM      4  C   UNL     1      34.144 -15.016 -21.941  0.00  0.00    +0.040 C 
ATOM      5  C   UNL     1      34.786 -16.113 -23.995  0.00  0.00    +0.037 C 
ATOM      6  C   UNL     1      33.324 -14.147 -22.662  0.00  0.00    +0.042 C 
ATOM      7  C   UNL     1      33.965 -15.245 -24.715  0.00  0.00    +0.003 C 
ATOM      8  C   UNL     1      33.234 -14.262 -24.049  0.00  0.00    +0.003 C 
BRANCH   3   9
ATOM      9  O   UNL     1      35.676 -16.846 -21.905  0.00  0.00    -0.479 OA
BRANCH   9  11
ATOM     10  N   UNL     1      35.879 -20.004 -20.235  0.00  0.00    +0.384 N 
ATOM     11  C   UNL     1      35.917 -18.128 -22.483  0.00  0.00    +0.162 C 
ATOM     12  C   UNL     1      34.730 -19.052 -22.208  0.00  0.00    +0.020 C 
ATOM     13  C   UNL     1      37.196 -18.704 -21.877  0.00  0.00    +0.020 C 
ATOM     14  C   UNL     1      34.631 -19.418 -20.725  0.00  0.00    -0.078 C 
ATOM     15  C   UNL     1      37.005 -19.086 -20.408  0.00  0.00    -0.078 C 
ATOM     16  H   UNL     1      36.068 -20.863 -20.752  0.00  0.00    -0.085 HD
ATOM     17  H   UNL     1      35.772 -20.196 -19.238  0.00  0.00    -0.085 HD
ENDBRANCH   9  11
ENDBRANCH   3   9
ENDBRANCH   2   6
BRANCH   2  20
ATOM     18  N   UNL     1      32.529  -9.562 -22.347  0.00  0.00    -0.177 N 
ATOM     19  N   UNL     1      33.344  -9.826 -23.383  0.00  0.00    -0.171 NA
ATOM     20  C   UNL     1      32.705 -11.695 -22.324  0.00  0.00    +0.088 C 
ATOM     21  C   UNL     1      32.117 -10.674 -21.673  0.00  0.00    +0.122 C 
ATOM     22  C   UNL     1      33.445 -11.158 -23.356  0.00  0.00    +0.124 C 
BRANCH  18  24
ATOM     23  F   UNL     1      31.191  -4.335 -21.220  0.00  0.00    -0.204 F 
ATOM     24  C   UNL     1      32.190  -8.238 -22.062  0.00  0.00    +0.075 C 
ATOM     25  C   UNL     1      31.101  -7.658 -22.698  0.00  0.00    +0.019 C 
ATOM     26  C   UNL     1      32.947  -7.521 -21.145  0.00  0.00    +0.019 C 
ATOM     27  C   UNL     1      30.763  -6.336 -22.414  0.00  0.00    +0.031 C 
ATOM     28  C   UNL     1      32.608  -6.198 -20.860  0.00  0.00    +0.031 C 
ATOM     29  C   UNL     1      31.516  -5.606 -21.494  0.00  0.00    +0.140 C 
ENDBRANCH  18  24
BRANCH  21  30
ATOM     30  N   UNL     1      31.294 -10.602 -20.603  0.00  0.00    -0.344 N 
ATOM     31  H   UNL     1      30.965  -9.727 -20.292  0.00  0.00    +0.144 HD
ATOM     32  H   UNL     1      31.022 -11.424 -20.135  0.00  0.00    +0.144 HD
ENDBRANCH  21  30
ENDBRANCH   2  20
TORSDOF 6
ENDMDL
MODEL 8
REMARK VINA RESULT:     -10.7      7.437     13.520
REMARK  Name = 5327066
REMARK  6 active torsions:
REMARK  status: ('A' for Active; 'I' for Inactive)
REMARK    1  A    between atoms: C_2  and  C_6
REMARK    2  A    between atoms: C_2  and  C_20
REMARK    3  A    between atoms: C_3  and  O_9
REMARK    4  A    between atoms: O_9  and  C_11
REMARK    5  A    between atoms: N_18  and  C_24
REMARK    6  A    between atoms: C_21  and  N_30
REMARK                            x       y       z     vdW  Elec       q    Type
REMARK                         _______ _______ _______ _____ _____    ______ ____
ROOT
ATOM      1  O   UNL     1      30.555 -10.426 -20.775  0.00  0.00    -0.286 OA
ATOM      2  C   UNL     1      31.540  -9.947 -21.358  0.00  0.00    +0.200 C 
ENDROOT
BRANCH   2   6
ATOM      3  C   UNL     1      31.660  -6.237 -21.818  0.00  0.00    +0.138 C 
ATOM      4  C   UNL     1      31.351  -7.577 -22.022  0.00  0.00    +0.040 C 
ATOM      5  C   UNL     1      32.468  -5.850 -20.755  0.00  0.00    +0.037 C 
ATOM      6  C   UNL     1      31.858  -8.542 -21.151  0.00  0.00    +0.042 C 
ATOM      7  C   UNL     1      32.974  -6.814 -19.885  0.00  0.00    +0.003 C 
ATOM      8  C   UNL     1      32.670  -8.161 -20.083  0.00  0.00    +0.003 C 
BRANCH   3   9
ATOM      9  O   UNL     1      31.162  -5.288 -22.672  0.00  0.00    -0.479 OA
BRANCH   9  11
ATOM     10  N   UNL     1      31.337  -3.687 -25.867  0.00  0.00    +0.384 N 
ATOM     11  C   UNL     1      32.063  -4.264 -23.090  0.00  0.00    +0.162 C 
ATOM     12  C   UNL     1      31.277  -3.014 -23.487  0.00  0.00    +0.020 C 
ATOM     13  C   UNL     1      32.879  -4.783 -24.273  0.00  0.00    +0.020 C 
ATOM     14  C   UNL     1      30.477  -3.236 -24.773  0.00  0.00    -0.078 C 
ATOM     15  C   UNL     1      32.020  -4.935 -25.530  0.00  0.00    -0.078 C 
ATOM     16  H   UNL     1      32.034  -2.967 -26.059  0.00  0.00    -0.085 HD
ATOM     17  H   UNL     1      30.752  -3.853 -26.687  0.00  0.00    -0.085 HD
ENDBRANCH   9  11
ENDBRANCH   3   9
ENDBRANCH   2   6
BRANCH   2  20
ATOM     18  N   UNL     1      33.280 -12.465 -23.217  0.00  0.00    -0.177 N 
ATOM     19  N   UNL     1      33.800 -11.405 -23.857  0.00  0.00    -0.171 NA
ATOM     20  C   UNL     1      32.362 -10.787 -22.253  0.00  0.00    +0.088 C 
ATOM     21  C   UNL     1      32.396 -12.134 -22.231  0.00  0.00    +0.122 C 
ATOM     22  C   UNL     1      33.221 -10.367 -23.247  0.00  0.00    +0.124 C 
BRANCH  18  24
ATOM     23  F   UNL     1      34.802 -17.549 -24.704  0.00  0.00    -0.204 F 
ATOM     24  C   UNL     1      33.665 -13.753 -23.594  0.00  0.00    +0.075 C 
ATOM     25  C   UNL     1      33.131 -14.317 -24.744  0.00  0.00    +0.019 C 
ATOM     26  C   UNL     1      34.577 -14.450 -22.812  0.00  0.00    +0.019 C 
ATOM     27  C   UNL     1      33.516 -15.604 -25.119  0.00  0.00    +0.031 C 
ATOM     28  C   UNL     1      34.962 -15.736 -23.189  0.00  0.00    +0.031 C 
ATOM     29  C   UNL     1      34.432 -16.313 -24.343  0.00  0.00    +0.140 C 
ENDBRANCH  18  24
BRANCH  21  30
ATOM     30  N   UNL     1      31.772 -13.069 -21.480  0.00  0.00    -0.344 N 
ATOM     31  H   UNL     1      31.146 -13.701 -21.901  0.00  0.00    +0.144 HD
ATOM     32  H   UNL     1      31.945 -13.118 -20.512  0.00  0.00    +0.144 HD
ENDBRANCH  21  30
ENDBRANCH   2  20
TORSDOF 6
ENDMDL
MODEL 9
REMARK VINA RESULT:     -10.2      4.909     11.319
REMARK  Name = 5327066
REMARK  6 active torsions:
REMARK  status: ('A' for Active; 'I' for Inactive)
REMARK    1  A    between atoms: C_2  and  C_6
REMARK    2  A    between atoms: C_2  and  C_20
REMARK    3  A    between atoms: C_3  and  O_9
REMARK    4  A    between atoms: O_9  and  C_11
REMARK    5  A    between atoms: N_18  and  C_24
REMARK    6  A    between atoms: C_21  and  N_30
REMARK                            x       y       z     vdW  Elec       q    Type
REMARK                         _______ _______ _______ _____ _____    ______ ____
ROOT
ATOM      1  O   UNL     1      34.140 -14.260 -24.663  0.00  0.00    -0.286 OA
ATOM      2  C   UNL     1      33.929 -13.986 -23.472  0.00  0.00    +0.200 C 
ENDROOT
BRANCH   2   6
ATOM      3  C   UNL     1      33.228 -10.318 -23.256  0.00  0.00    +0.138 C 
ATOM      4  C   UNL     1      33.853 -11.520 -23.567  0.00  0.00    +0.040 C 
ATOM      5  C   UNL     1      32.041 -10.303 -22.534  0.00  0.00    +0.037 C 
ATOM      6  C   UNL     1      33.281 -12.723 -23.150  0.00  0.00    +0.042 C 
ATOM      7  C   UNL     1      31.469 -11.505 -22.118  0.00  0.00    +0.003 C 
ATOM      8  C   UNL     1      32.090 -12.715 -22.426  0.00  0.00    +0.003 C 
BRANCH   3   9
ATOM      9  O   UNL     1      33.789  -9.137 -23.665  0.00  0.00    -0.479 OA
BRANCH   9  11
ATOM     10  N   UNL     1      34.366  -5.728 -24.587  0.00  0.00    +0.384 N 
ATOM     11  C   UNL     1      33.394  -7.961 -22.961  0.00  0.00    +0.162 C 
ATOM     12  C   UNL     1      32.464  -7.121 -23.836  0.00  0.00    +0.020 C 
ATOM     13  C   UNL     1      34.647  -7.166 -22.593  0.00  0.00    +0.020 C 
ATOM     14  C   UNL     1      33.209  -6.508 -25.025  0.00  0.00    -0.078 C 
ATOM     15  C   UNL     1      35.309  -6.549 -23.828  0.00  0.00    -0.078 C 
ATOM     16  H   UNL     1      34.044  -4.960 -23.997  0.00  0.00    -0.085 HD
ATOM     17  H   UNL     1      34.845  -5.373 -25.415  0.00  0.00    -0.085 HD
ENDBRANCH   9  11
ENDBRANCH   3   9
ENDBRANCH   2   6
BRANCH   2  20
ATOM     18  N   UNL     1      34.964 -16.674 -21.345  0.00  0.00    -0.177 N 
ATOM     19  N   UNL     1      34.870 -15.738 -20.386  0.00  0.00    -0.171 NA
ATOM     20  C   UNL     1      34.340 -14.921 -22.404  0.00  0.00    +0.088 C 
ATOM     21  C   UNL     1      34.650 -16.218 -22.592  0.00  0.00    +0.122 C 
ATOM     22  C   UNL     1      34.482 -14.652 -21.059  0.00  0.00    +0.124 C 
BRANCH  18  24
ATOM     23  F   UNL     1      36.505 -21.792 -19.999  0.00  0.00    -0.204 F 
ATOM     24  C   UNL     1      35.354 -17.970 -21.004  0.00  0.00    +0.075 C 
ATOM     25  C   UNL     1      36.705 -18.278 -20.920  0.00  0.00    +0.019 C 
ATOM     26  C   UNL     1      34.385 -18.933 -20.754  0.00  0.00    +0.019 C 
ATOM     27  C   UNL     1      37.095 -19.573 -20.580  0.00  0.00    +0.031 C 
ATOM     28  C   UNL     1      34.775 -20.228 -20.413  0.00  0.00    +0.031 C 
ATOM     29  C   UNL     1      36.130 -20.548 -20.326  0.00  0.00    +0.140 C 
ENDBRANCH  18  24
BRANCH  21  30
ATOM     30  N   UNL     1      34.688 -17.018 -23.681  0.00  0.00    -0.344 N 
ATOM     31  H   UNL     1      34.082 -16.848 -24.439  0.00  0.00    +0.144 HD
ATOM     32  H   UNL     1      35.321 -17.771 -23.717  0.00  0.00    +0.144 HD
ENDBRANCH  21  30
ENDBRANCH   2  20
TORSDOF 6
ENDMDL
