MODEL 1
REMARK VINA RESULT:     -11.4      0.000      0.000
REMARK  Name = 445481
REMARK  5 active torsions:
REMARK  status: ('A' for Active; 'I' for Inactive)
REMARK    1  A    between atoms: N_2  and  C_21
REMARK    2  A    between atoms: C_3  and  N_7
REMARK    3  A    between atoms: N_7  and  S_9
REMARK    4  A    between atoms: S_9  and  C_14
REMARK    5  A    between atoms: C_21  and  C_24
REMARK                            x       y       z     vdW  Elec       q    Type
REMARK                         _______ _______ _______ _____ _____    ______ ____
ROOT
ATOM      1  O   UNL     1      36.723 -21.096 -19.486  0.00  0.00    -0.273 OA
ATOM      2  N   UNL     1      35.225 -19.877 -20.830  0.00  0.00    -0.273 N 
ATOM      3  C   UNL     1      34.334 -21.538 -19.459  0.00  0.00    +0.153 C 
ATOM      4  C   UNL     1      33.228 -20.574 -19.878  0.00  0.00    +0.048 C 
ATOM      5  C   UNL     1      33.806 -19.878 -21.095  0.00  0.00    +0.096 C 
ATOM      6  C   UNL     1      35.598 -20.834 -19.885  0.00  0.00    +0.242 C 
ENDROOT
BRANCH   3   7
ATOM      7  N   UNL     1      34.347 -21.726 -18.004  0.00  0.00    -0.171 NA
ATOM      8  H   UNL     1      35.320 -21.847 -17.723  0.00  0.00    +0.149 HD
BRANCH   7   9
ATOM      9  S   UNL     1      33.462 -23.042 -17.352  0.00  0.00    +0.066 S 
ATOM     10  O   UNL     1      33.752 -24.238 -18.118  0.00  0.00    -0.152 OA
ATOM     11  O   UNL     1      32.098 -22.620 -17.101  0.00  0.00    -0.152 OA
BRANCH   9  14
ATOM     12  S   UNL     1      35.725 -22.868 -15.517  0.00  0.00    -0.066 S 
ATOM     13  N   UNL     1      34.240 -24.436 -12.282  0.00  0.00    -0.243 NA
ATOM     14  C   UNL     1      34.115 -23.355 -15.712  0.00  0.00    +0.153 C 
ATOM     15  C   UNL     1      33.563 -23.906 -14.607  0.00  0.00    +0.046 C 
ATOM     16  C   UNL     1      34.493 -23.942 -13.525  0.00  0.00    +0.089 C 
ATOM     17  C   UNL     1      35.729 -23.402 -13.884  0.00  0.00    +0.048 C 
ATOM     18  C   UNL     1      36.772 -23.351 -12.947  0.00  0.00    +0.010 C 
ATOM     19  C   UNL     1      36.518 -23.854 -11.677  0.00  0.00    +0.021 C 
ATOM     20  C   UNL     1      35.265 -24.371 -11.408  0.00  0.00    +0.099 C 
ENDBRANCH   9  14
ENDBRANCH   7   9
ENDBRANCH   3   7
BRANCH   2  21
ATOM     21  C   UNL     1      36.136 -19.042 -21.582  0.00  0.00    +0.135 C 
BRANCH  21  24
ATOM     22  N   UNL     1      35.255 -16.931 -20.622  0.00  0.00    -0.313 N 
ATOM     23  N   UNL     1      33.892 -13.513 -20.903  0.00  0.00    -0.241 NA
ATOM     24  C   UNL     1      35.582 -17.651 -21.723  0.00  0.00    +0.046 C 
ATOM     25  C   UNL     1      35.329 -16.926 -22.842  0.00  0.00    +0.013 C 
ATOM     26  C   UNL     1      34.810 -15.672 -22.411  0.00  0.00    +0.017 C 
ATOM     27  C   UNL     1      34.776 -15.704 -21.016  0.00  0.00    +0.068 C 
ATOM     28  C   UNL     1      34.368 -14.515 -23.068  0.00  0.00    +0.022 C 
ATOM     29  C   UNL     1      34.318 -14.628 -20.265  0.00  0.00    +0.113 C 
ATOM     30  C   UNL     1      33.925 -13.481 -22.254  0.00  0.00    +0.099 C 
ATOM     31  H   UNL     1      35.345 -17.238 -19.691  0.00  0.00    +0.152 HD
ENDBRANCH  21  24
ENDBRANCH   2  21
TORSDOF 5
ENDMDL
MODEL 2
REMARK VINA RESULT:     -11.0      1.231      1.658
REMARK  Name = 445481
REMARK  5 active torsions:
REMARK  status: ('A' for Active; 'I' for Inactive)
REMARK    1  A    between atoms: N_2  and  C_21
REMARK    2  A    between atoms: C_3  and  N_7
REMARK    3  A    between atoms: N_7  and  S_9
REMARK    4  A    between atoms: S_9  and  C_14
REMARK    5  A    between atoms: C_21  and  C_24
REMARK                            x       y       z     vdW  Elec       q    Type
REMARK                         _______ _______ _______ _____ _____    ______ ____
ROOT
ATOM      1  O   UNL     1      37.136 -19.401 -19.670  0.00  0.00    -0.273 OA
ATOM      2  N   UNL     1      35.582 -18.767 -21.319  0.00  0.00    -0.273 N 
ATOM      3  C   UNL     1      35.205 -20.777 -20.201  0.00  0.00    +0.153 C 
ATOM      4  C   UNL     1      33.912 -20.309 -20.861  0.00  0.00    +0.048 C 
ATOM      5  C   UNL     1      34.385 -19.319 -21.908  0.00  0.00    +0.096 C 
ATOM      6  C   UNL     1      36.116 -19.580 -20.319  0.00  0.00    +0.242 C 
ENDROOT
BRANCH   3   7
ATOM      7  N   UNL     1      34.991 -21.091 -18.784  0.00  0.00    -0.171 NA
ATOM      8  H   UNL     1      35.909 -21.260 -18.370  0.00  0.00    +0.149 HD
BRANCH   7   9
ATOM      9  S   UNL     1      34.002 -22.436 -18.395  0.00  0.00    +0.066 S 
ATOM     10  O   UNL     1      34.414 -23.577 -19.189  0.00  0.00    -0.152 OA
ATOM     11  O   UNL     1      32.617 -22.010 -18.350  0.00  0.00    -0.152 OA
BRANCH   9  14
ATOM     12  S   UNL     1      35.946 -22.519 -16.220  0.00  0.00    -0.066 S 
ATOM     13  N   UNL     1      33.865 -24.147 -13.365  0.00  0.00    -0.243 NA
ATOM     14  C   UNL     1      34.362 -22.880 -16.696  0.00  0.00    +0.153 C 
ATOM     15  C   UNL     1      33.606 -23.448 -15.729  0.00  0.00    +0.046 C 
ATOM     16  C   UNL     1      34.345 -23.607 -14.518  0.00  0.00    +0.089 C 
ATOM     17  C   UNL     1      35.654 -23.138 -14.643  0.00  0.00    +0.048 C 
ATOM     18  C   UNL     1      36.533 -23.211 -13.552  0.00  0.00    +0.010 C 
ATOM     19  C   UNL     1      36.047 -23.761 -12.372  0.00  0.00    +0.021 C 
ATOM     20  C   UNL     1      34.737 -24.201 -12.338  0.00  0.00    +0.099 C 
ENDBRANCH   9  14
ENDBRANCH   7   9
ENDBRANCH   3   7
BRANCH   2  21
ATOM     21  C   UNL     1      36.194 -17.562 -21.835  0.00  0.00    +0.135 C 
BRANCH  21  24
ATOM     22  N   UNL     1      34.849 -15.696 -22.761  0.00  0.00    -0.313 N 
ATOM     23  N   UNL     1      32.573 -12.808 -22.433  0.00  0.00    -0.241 NA
ATOM     24  C   UNL     1      35.267 -16.390 -21.675  0.00  0.00    +0.046 C 
ATOM     25  C   UNL     1      34.728 -15.854 -20.549  0.00  0.00    +0.013 C 
ATOM     26  C   UNL     1      33.922 -14.756 -20.961  0.00  0.00    +0.017 C 
ATOM     27  C   UNL     1      34.016 -14.680 -22.352  0.00  0.00    +0.068 C 
ATOM     28  C   UNL     1      33.123 -13.820 -20.290  0.00  0.00    +0.022 C 
ATOM     29  C   UNL     1      33.345 -13.710 -23.085  0.00  0.00    +0.113 C 
ATOM     30  C   UNL     1      32.482 -12.880 -21.086  0.00  0.00    +0.099 C 
ATOM     31  H   UNL     1      35.102 -15.887 -23.693  0.00  0.00    +0.152 HD
ENDBRANCH  21  24
ENDBRANCH   2  21
TORSDOF 5
ENDMDL
MODEL 3
REMARK VINA RESULT:     -11.0      2.930     10.167
REMARK  Name = 445481
REMARK  5 active torsions:
REMARK  status: ('A' for Active; 'I' for Inactive)
REMARK    1  A    between atoms: N_2  and  C_21
REMARK    2  A    between atoms: C_3  and  N_7
REMARK    3  A    between atoms: N_7  and  S_9
REMARK    4  A    between atoms: S_9  and  C_14
REMARK    5  A    between atoms: C_21  and  C_24
REMARK                            x       y       z     vdW  Elec       q    Type
REMARK                         _______ _______ _______ _____ _____    ______ ____
ROOT
ATOM      1  O   UNL     1      36.276 -21.696 -19.688  0.00  0.00    -0.273 OA
ATOM      2  N   UNL     1      34.057 -22.128 -19.034  0.00  0.00    -0.273 N 
ATOM      3  C   UNL     1      34.489 -20.101 -20.100  0.00  0.00    +0.153 C 
ATOM      4  C   UNL     1      32.997 -20.409 -20.174  0.00  0.00    +0.048 C 
ATOM      5  C   UNL     1      32.791 -21.436 -19.078  0.00  0.00    +0.096 C 
ATOM      6  C   UNL     1      35.094 -21.393 -19.610  0.00  0.00    +0.242 C 
ENDROOT
BRANCH   3   7
ATOM      7  N   UNL     1      35.029 -19.780 -21.425  0.00  0.00    -0.171 NA
ATOM      8  H   UNL     1      35.547 -20.598 -21.747  0.00  0.00    +0.149 HD
BRANCH   7   9
ATOM      9  S   UNL     1      36.075 -18.428 -21.566  0.00  0.00    +0.066 S 
ATOM     10  O   UNL     1      37.261 -18.818 -22.302  0.00  0.00    -0.152 OA
ATOM     11  O   UNL     1      36.170 -17.765 -20.279  0.00  0.00    -0.152 OA
BRANCH   9  14
ATOM     12  S   UNL     1      35.008 -15.726 -21.845  0.00  0.00    -0.066 S 
ATOM     13  N   UNL     1      33.613 -15.802 -25.476  0.00  0.00    -0.243 NA
ATOM     14  C   UNL     1      35.243 -17.224 -22.600  0.00  0.00    +0.153 C 
ATOM     15  C   UNL     1      34.771 -17.289 -23.866  0.00  0.00    +0.046 C 
ATOM     16  C   UNL     1      34.177 -16.053 -24.263  0.00  0.00    +0.089 C 
ATOM     17  C   UNL     1      34.236 -15.098 -23.247  0.00  0.00    +0.048 C 
ATOM     18  C   UNL     1      33.701 -13.818 -23.455  0.00  0.00    +0.010 C 
ATOM     19  C   UNL     1      33.124 -13.557 -24.692  0.00  0.00    +0.021 C 
ATOM     20  C   UNL     1      33.110 -14.562 -25.640  0.00  0.00    +0.099 C 
ENDBRANCH   9  14
ENDBRANCH   7   9
ENDBRANCH   3   7
BRANCH   2  21
ATOM     21  C   UNL     1      34.208 -23.390 -18.343  0.00  0.00    +0.135 C 
BRANCH  21  24
ATOM     22  N   UNL     1      34.170 -23.704 -15.883  0.00  0.00    -0.313 N 
ATOM     23  N   UNL     1      32.510 -23.626 -12.587  0.00  0.00    -0.241 NA
ATOM     24  C   UNL     1      33.509 -23.349 -17.012  0.00  0.00    +0.046 C 
ATOM     25  C   UNL     1      32.234 -22.995 -16.710  0.00  0.00    +0.013 C 
ATOM     26  C   UNL     1      32.091 -23.137 -15.301  0.00  0.00    +0.017 C 
ATOM     27  C   UNL     1      33.319 -23.582 -14.809  0.00  0.00    +0.068 C 
ATOM     28  C   UNL     1      31.040 -22.931 -14.397  0.00  0.00    +0.022 C 
ATOM     29  C   UNL     1      33.527 -23.826 -13.458  0.00  0.00    +0.113 C 
ATOM     30  C   UNL     1      31.320 -23.195 -13.062  0.00  0.00    +0.099 C 
ATOM     31  H   UNL     1      35.107 -24.002 -15.839  0.00  0.00    +0.152 HD
ENDBRANCH  21  24
ENDBRANCH   2  21
TORSDOF 5
ENDMDL
MODEL 4
REMARK VINA RESULT:     -10.8      2.698     10.237
REMARK  Name = 445481
REMARK  5 active torsions:
REMARK  status: ('A' for Active; 'I' for Inactive)
REMARK    1  A    between atoms: N_2  and  C_21
REMARK    2  A    between atoms: C_3  and  N_7
REMARK    3  A    between atoms: N_7  and  S_9
REMARK    4  A    between atoms: S_9  and  C_14
REMARK    5  A    between atoms: C_21  and  C_24
REMARK                            x       y       z     vdW  Elec       q    Type
REMARK                         _______ _______ _______ _____ _____    ______ ____
ROOT
ATOM      1  O   UNL     1      32.497 -20.469 -19.843  0.00  0.00    -0.273 OA
ATOM      2  N   UNL     1      33.909 -21.904 -18.625  0.00  0.00    -0.273 N 
ATOM      3  C   UNL     1      34.867 -20.659 -20.347  0.00  0.00    +0.153 C 
ATOM      4  C   UNL     1      35.959 -21.146 -19.401  0.00  0.00    +0.048 C 
ATOM      5  C   UNL     1      35.300 -22.290 -18.656  0.00  0.00    +0.096 C 
ATOM      6  C   UNL     1      33.591 -20.956 -19.598  0.00  0.00    +0.242 C 
ENDROOT
BRANCH   3   7
ATOM      7  N   UNL     1      34.973 -19.214 -20.577  0.00  0.00    -0.171 NA
ATOM      8  H   UNL     1      34.023 -18.842 -20.609  0.00  0.00    +0.149 HD
BRANCH   7   9
ATOM      9  S   UNL     1      35.777 -18.678 -21.992  0.00  0.00    +0.066 S 
ATOM     10  O   UNL     1      35.376 -19.506 -23.112  0.00  0.00    -0.152 OA
ATOM     11  O   UNL     1      37.177 -18.451 -21.686  0.00  0.00    -0.152 OA
BRANCH   9  14
ATOM     12  S   UNL     1      34.641 -16.852 -23.965  0.00  0.00    -0.066 S 
ATOM     13  N   UNL     1      34.215 -13.599 -21.875  0.00  0.00    -0.243 NA
ATOM     14  C   UNL     1      35.156 -17.038 -22.363  0.00  0.00    +0.153 C 
ATOM     15  C   UNL     1      35.023 -15.926 -21.603  0.00  0.00    +0.046 C 
ATOM     16  C   UNL     1      34.470 -14.847 -22.355  0.00  0.00    +0.089 C 
ATOM     17  C   UNL     1      34.209 -15.213 -23.677  0.00  0.00    +0.048 C 
ATOM     18  C   UNL     1      33.661 -14.280 -24.569  0.00  0.00    +0.010 C 
ATOM     19  C   UNL     1      33.398 -13.005 -24.083  0.00  0.00    +0.021 C 
ATOM     20  C   UNL     1      33.689 -12.729 -22.760  0.00  0.00    +0.099 C 
ENDBRANCH   9  14
ENDBRANCH   7   9
ENDBRANCH   3   7
BRANCH   2  21
ATOM     21  C   UNL     1      32.961 -22.552 -17.746  0.00  0.00    +0.135 C 
BRANCH  21  24
ATOM     22  N   UNL     1      32.882 -23.461 -15.439  0.00  0.00    -0.313 N 
ATOM     23  N   UNL     1      34.419 -24.342 -12.201  0.00  0.00    -0.241 NA
ATOM     24  C   UNL     1      33.611 -22.902 -16.435  0.00  0.00    +0.046 C 
ATOM     25  C   UNL     1      34.899 -22.747 -16.035  0.00  0.00    +0.013 C 
ATOM     26  C   UNL     1      34.978 -23.242 -14.702  0.00  0.00    +0.017 C 
ATOM     27  C   UNL     1      33.699 -23.683 -14.356  0.00  0.00    +0.068 C 
ATOM     28  C   UNL     1      36.007 -23.359 -13.759  0.00  0.00    +0.022 C 
ATOM     29  C   UNL     1      33.421 -24.230 -13.110  0.00  0.00    +0.113 C 
ATOM     30  C   UNL     1      35.657 -23.914 -12.535  0.00  0.00    +0.099 C 
ATOM     31  H   UNL     1      31.922 -23.673 -15.484  0.00  0.00    +0.152 HD
ENDBRANCH  21  24
ENDBRANCH   2  21
TORSDOF 5
ENDMDL
MODEL 5
REMARK VINA RESULT:     -10.7      5.144     11.578
REMARK  Name = 445481
REMARK  5 active torsions:
REMARK  status: ('A' for Active; 'I' for Inactive)
REMARK    1  A    between atoms: N_2  and  C_21
REMARK    2  A    between atoms: C_3  and  N_7
REMARK    3  A    between atoms: N_7  and  S_9
REMARK    4  A    between atoms: S_9  and  C_14
REMARK    5  A    between atoms: C_21  and  C_24
REMARK                            x       y       z     vdW  Elec       q    Type
REMARK                         _______ _______ _______ _____ _____    ______ ____
ROOT
ATOM      1  O   UNL     1      35.283 -15.801 -20.545  0.00  0.00    -0.273 OA
ATOM      2  N   UNL     1      35.679 -17.388 -22.236  0.00  0.00    -0.273 N 
ATOM      3  C   UNL     1      34.161 -15.681 -22.697  0.00  0.00    +0.153 C 
ATOM      4  C   UNL     1      34.636 -16.309 -24.004  0.00  0.00    +0.048 C 
ATOM      5  C   UNL     1      35.195 -17.650 -23.570  0.00  0.00    +0.096 C 
ATOM      6  C   UNL     1      35.104 -16.251 -21.667  0.00  0.00    +0.242 C 
ENDROOT
BRANCH   3   7
ATOM      7  N   UNL     1      34.301 -14.221 -22.732  0.00  0.00    -0.171 NA
ATOM      8  H   UNL     1      34.424 -13.906 -21.769  0.00  0.00    +0.149 HD
BRANCH   7   9
ATOM      9  S   UNL     1      33.022 -13.302 -23.408  0.00  0.00    +0.066 S 
ATOM     10  O   UNL     1      31.855 -13.409 -22.554  0.00  0.00    -0.152 OA
ATOM     11  O   UNL     1      32.942 -13.574 -24.830  0.00  0.00    -0.152 OA
BRANCH   9  14
ATOM     12  S   UNL     1      32.298 -10.551 -22.757  0.00  0.00    -0.066 S 
ATOM     13  N   UNL     1      35.572  -8.645 -23.641  0.00  0.00    -0.243 NA
ATOM     14  C   UNL     1      33.513 -11.580 -23.334  0.00  0.00    +0.153 C 
ATOM     15  C   UNL     1      34.668 -10.953 -23.652  0.00  0.00    +0.046 C 
ATOM     16  C   UNL     1      34.578  -9.548 -23.419  0.00  0.00    +0.089 C 
ATOM     17  C   UNL     1      33.325  -9.182 -22.925  0.00  0.00    +0.048 C 
ATOM     18  C   UNL     1      33.050  -7.838 -22.634  0.00  0.00    +0.010 C 
ATOM     19  C   UNL     1      34.061  -6.913 -22.859  0.00  0.00    +0.021 C 
ATOM     20  C   UNL     1      35.272  -7.363 -23.351  0.00  0.00    +0.099 C 
ENDBRANCH   9  14
ENDBRANCH   7   9
ENDBRANCH   3   7
BRANCH   2  21
ATOM     21  C   UNL     1      36.567 -18.306 -21.557  0.00  0.00    +0.135 C 
BRANCH  21  24
ATOM     22  N   UNL     1      36.412 -20.160 -19.916  0.00  0.00    -0.313 N 
ATOM     23  N   UNL     1      34.537 -22.659 -17.951  0.00  0.00    -0.241 NA
ATOM     24  C   UNL     1      35.780 -19.316 -20.768  0.00  0.00    +0.046 C 
ATOM     25  C   UNL     1      34.444 -19.556 -20.751  0.00  0.00    +0.013 C 
ATOM     26  C   UNL     1      34.230 -20.619 -19.828  0.00  0.00    +0.017 C 
ATOM     27  C   UNL     1      35.480 -20.977 -19.321  0.00  0.00    +0.068 C 
ATOM     28  C   UNL     1      33.098 -21.311 -19.375  0.00  0.00    +0.022 C 
ATOM     29  C   UNL     1      35.633 -21.993 -18.386  0.00  0.00    +0.113 C 
ATOM     30  C   UNL     1      33.325 -22.313 -18.442  0.00  0.00    +0.099 C 
ATOM     31  H   UNL     1      37.382 -20.185 -19.752  0.00  0.00    +0.152 HD
ENDBRANCH  21  24
ENDBRANCH   2  21
TORSDOF 5
ENDMDL
MODEL 6
REMARK VINA RESULT:     -10.6      3.809      6.473
REMARK  Name = 445481
REMARK  5 active torsions:
REMARK  status: ('A' for Active; 'I' for Inactive)
REMARK    1  A    between atoms: N_2  and  C_21
REMARK    2  A    between atoms: C_3  and  N_7
REMARK    3  A    between atoms: N_7  and  S_9
REMARK    4  A    between atoms: S_9  and  C_14
REMARK    5  A    between atoms: C_21  and  C_24
REMARK                            x       y       z     vdW  Elec       q    Type
REMARK                         _______ _______ _______ _____ _____    ______ ____
ROOT
ATOM      1  O   UNL     1      33.902 -14.317 -20.831  0.00  0.00    -0.273 OA
ATOM      2  N   UNL     1      33.405 -14.300 -23.131  0.00  0.00    -0.273 N 
ATOM      3  C   UNL     1      35.096 -15.730 -22.407  0.00  0.00    +0.153 C 
ATOM      4  C   UNL     1      34.604 -16.177 -23.780  0.00  0.00    +0.048 C 
ATOM      5  C   UNL     1      33.903 -14.947 -24.323  0.00  0.00    +0.096 C 
ATOM      6  C   UNL     1      34.071 -14.711 -21.976  0.00  0.00    +0.242 C 
ENDROOT
BRANCH   3   7
ATOM      7  N   UNL     1      35.101 -16.849 -21.458  0.00  0.00    -0.171 NA
ATOM      8  H   UNL     1      35.725 -16.594 -20.692  0.00  0.00    +0.149 HD
BRANCH   7   9
ATOM      9  S   UNL     1      35.597 -18.389 -22.026  0.00  0.00    +0.066 S 
ATOM     10  O   UNL     1      37.045 -18.458 -22.015  0.00  0.00    -0.152 OA
ATOM     11  O   UNL     1      34.836 -18.724 -23.214  0.00  0.00    -0.152 OA
BRANCH   9  14
ATOM     12  S   UNL     1      36.310 -20.249 -19.893  0.00  0.00    -0.066 S 
ATOM     13  N   UNL     1      32.836 -21.713 -18.932  0.00  0.00    -0.243 NA
ATOM     14  C   UNL     1      35.051 -19.597 -20.820  0.00  0.00    +0.153 C 
ATOM     15  C   UNL     1      33.826 -20.082 -20.514  0.00  0.00    +0.046 C 
ATOM     16  C   UNL     1      33.896 -21.045 -19.463  0.00  0.00    +0.089 C 
ATOM     17  C   UNL     1      35.207 -21.239 -19.023  0.00  0.00    +0.048 C 
ATOM     18  C   UNL     1      35.472 -22.151 -17.991  0.00  0.00    +0.010 C 
ATOM     19  C   UNL     1      34.393 -22.836 -17.445  0.00  0.00    +0.021 C 
ATOM     20  C   UNL     1      33.129 -22.582 -17.943  0.00  0.00    +0.099 C 
ENDBRANCH   9  14
ENDBRANCH   7   9
ENDBRANCH   3   7
BRANCH   2  21
ATOM     21  C   UNL     1      32.411 -13.252 -23.197  0.00  0.00    +0.135 C 
BRANCH  21  24
ATOM     22  N   UNL     1      32.465 -10.834 -22.643  0.00  0.00    -0.313 N 
ATOM     23  N   UNL     1      34.030  -7.492 -22.673  0.00  0.00    -0.241 NA
ATOM     24  C   UNL     1      33.069 -11.900 -23.222  0.00  0.00    +0.046 C 
ATOM     25  C   UNL     1      34.255 -11.520 -23.765  0.00  0.00    +0.013 C 
ATOM     26  C   UNL     1      34.399 -10.128 -23.506  0.00  0.00    +0.017 C 
ATOM     27  C   UNL     1      33.263  -9.725 -22.801  0.00  0.00    +0.068 C 
ATOM     28  C   UNL     1      35.381  -9.172 -23.800  0.00  0.00    +0.022 C 
ATOM     29  C   UNL     1      33.079  -8.412 -22.387  0.00  0.00    +0.113 C 
ATOM     30  C   UNL     1      35.131  -7.880 -23.355  0.00  0.00    +0.099 C 
ATOM     31  H   UNL     1      31.595 -10.852 -22.183  0.00  0.00    +0.152 HD
ENDBRANCH  21  24
ENDBRANCH   2  21
TORSDOF 5
ENDMDL
MODEL 7
REMARK VINA RESULT:     -10.6      2.235      2.850
REMARK  Name = 445481
REMARK  5 active torsions:
REMARK  status: ('A' for Active; 'I' for Inactive)
REMARK    1  A    between atoms: N_2  and  C_21
REMARK    2  A    between atoms: C_3  and  N_7
REMARK    3  A    between atoms: N_7  and  S_9
REMARK    4  A    between atoms: S_9  and  C_14
REMARK    5  A    between atoms: C_21  and  C_24
REMARK                            x       y       z     vdW  Elec       q    Type
REMARK                         _______ _______ _______ _____ _____    ______ ____
ROOT
ATOM      1  O   UNL     1      36.857 -19.523 -19.601  0.00  0.00    -0.273 OA
ATOM      2  N   UNL     1      35.512 -18.843 -21.407  0.00  0.00    -0.273 N 
ATOM      3  C   UNL     1      34.873 -20.765 -20.255  0.00  0.00    +0.153 C 
ATOM      4  C   UNL     1      33.686 -20.227 -21.046  0.00  0.00    +0.048 C 
ATOM      5  C   UNL     1      34.329 -19.324 -22.081  0.00  0.00    +0.096 C 
ATOM      6  C   UNL     1      35.886 -19.650 -20.333  0.00  0.00    +0.242 C 
ENDROOT
BRANCH   3   7
ATOM      7  N   UNL     1      34.511 -20.999 -18.852  0.00  0.00    -0.171 NA
ATOM      8  H   UNL     1      35.021 -20.317 -18.290  0.00  0.00    +0.149 HD
BRANCH   7   9
ATOM      9  S   UNL     1      34.825 -22.546 -18.183  0.00  0.00    +0.066 S 
ATOM     10  O   UNL     1      36.092 -22.513 -17.479  0.00  0.00    -0.152 OA
ATOM     11  O   UNL     1      34.543 -23.561 -19.180  0.00  0.00    -0.152 OA
BRANCH   9  14
ATOM     12  S   UNL     1      34.228 -23.345 -15.441  0.00  0.00    -0.066 S 
ATOM     13  N   UNL     1      30.348 -23.061 -15.365  0.00  0.00    -0.243 NA
ATOM     14  C   UNL     1      33.584 -22.836 -16.923  0.00  0.00    +0.153 C 
ATOM     15  C   UNL     1      32.237 -22.725 -16.935  0.00  0.00    +0.046 C 
ATOM     16  C   UNL     1      31.675 -23.072 -15.670  0.00  0.00    +0.089 C 
ATOM     17  C   UNL     1      32.657 -23.436 -14.747  0.00  0.00    +0.048 C 
ATOM     18  C   UNL     1      32.294 -23.809 -13.445  0.00  0.00    +0.010 C 
ATOM     19  C   UNL     1      30.941 -23.799 -13.129  0.00  0.00    +0.021 C 
ATOM     20  C   UNL     1      30.036 -23.426 -14.105  0.00  0.00    +0.099 C 
ENDBRANCH   9  14
ENDBRANCH   7   9
ENDBRANCH   3   7
BRANCH   2  21
ATOM     21  C   UNL     1      36.263 -17.714 -21.909  0.00  0.00    +0.135 C 
BRANCH  21  24
ATOM     22  N   UNL     1      35.205 -15.758 -23.007  0.00  0.00    -0.313 N 
ATOM     23  N   UNL     1      33.161 -12.685 -22.982  0.00  0.00    -0.241 NA
ATOM     24  C   UNL     1      35.427 -16.465 -21.872  0.00  0.00    +0.046 C 
ATOM     25  C   UNL     1      34.804 -15.866 -20.825  0.00  0.00    +0.013 C 
ATOM     26  C   UNL     1      34.150 -14.711 -21.341  0.00  0.00    +0.017 C 
ATOM     27  C   UNL     1      34.418 -14.669 -22.711  0.00  0.00    +0.068 C 
ATOM     28  C   UNL     1      33.358 -13.700 -20.781  0.00  0.00    +0.022 C 
ATOM     29  C   UNL     1      33.926 -13.660 -23.527  0.00  0.00    +0.113 C 
ATOM     30  C   UNL     1      32.901 -12.724 -21.656  0.00  0.00    +0.099 C 
ATOM     31  H   UNL     1      35.551 -15.987 -23.900  0.00  0.00    +0.152 HD
ENDBRANCH  21  24
ENDBRANCH   2  21
TORSDOF 5
ENDMDL
MODEL 8
REMARK VINA RESULT:     -10.3      4.967     10.719
REMARK  Name = 445481
REMARK  5 active torsions:
REMARK  status: ('A' for Active; 'I' for Inactive)
REMARK    1  A    between atoms: N_2  and  C_21
REMARK    2  A    between atoms: C_3  and  N_7
REMARK    3  A    between atoms: N_7  and  S_9
REMARK    4  A    between atoms: S_9  and  C_14
REMARK    5  A    between atoms: C_21  and  C_24
REMARK                            x       y       z     vdW  Elec       q    Type
REMARK                         _______ _______ _______ _____ _____    ______ ____
ROOT
ATOM      1  O   UNL     1      35.277 -16.028 -20.275  0.00  0.00    -0.273 OA
ATOM      2  N   UNL     1      35.642 -17.322 -22.206  0.00  0.00    -0.273 N 
ATOM      3  C   UNL     1      34.125 -15.560 -22.364  0.00  0.00    +0.153 C 
ATOM      4  C   UNL     1      34.579 -15.970 -23.761  0.00  0.00    +0.048 C 
ATOM      5  C   UNL     1      35.139 -17.365 -23.558  0.00  0.00    +0.096 C 
ATOM      6  C   UNL     1      35.080 -16.291 -21.453  0.00  0.00    +0.242 C 
ENDROOT
BRANCH   3   7
ATOM      7  N   UNL     1      34.270 -14.114 -22.164  0.00  0.00    -0.171 NA
ATOM      8  H   UNL     1      34.066 -13.922 -21.183  0.00  0.00    +0.149 HD
BRANCH   7   9
ATOM      9  S   UNL     1      33.290 -13.067 -23.103  0.00  0.00    +0.066 S 
ATOM     10  O   UNL     1      32.076 -13.762 -23.482  0.00  0.00    -0.152 OA
ATOM     11  O   UNL     1      34.117 -12.400 -24.090  0.00  0.00    -0.152 OA
BRANCH   9  14
ATOM     12  S   UNL     1      32.243 -12.258 -20.501  0.00  0.00    -0.066 S 
ATOM     13  N   UNL     1      32.025  -8.395 -20.907  0.00  0.00    -0.243 NA
ATOM     14  C   UNL     1      32.762 -11.734 -22.026  0.00  0.00    +0.153 C 
ATOM     15  C   UNL     1      32.701 -10.395 -22.205  0.00  0.00    +0.046 C 
ATOM     16  C   UNL     1      32.203  -9.738 -21.040  0.00  0.00    +0.089 C 
ATOM     17  C   UNL     1      31.908 -10.642 -20.018  0.00  0.00    +0.048 C 
ATOM     18  C   UNL     1      31.407 -10.179 -18.793  0.00  0.00    +0.010 C 
ATOM     19  C   UNL     1      31.224  -8.809 -18.652  0.00  0.00    +0.021 C 
ATOM     20  C   UNL     1      31.542  -7.986 -19.716  0.00  0.00    +0.099 C 
ENDBRANCH   9  14
ENDBRANCH   7   9
ENDBRANCH   3   7
BRANCH   2  21
ATOM     21  C   UNL     1      36.537 -18.339 -21.698  0.00  0.00    +0.135 C 
BRANCH  21  24
ATOM     22  N   UNL     1      36.436 -20.104 -19.958  0.00  0.00    -0.313 N 
ATOM     23  N   UNL     1      34.639 -22.570 -17.881  0.00  0.00    -0.241 NA
ATOM     24  C   UNL     1      35.782 -19.337 -20.864  0.00  0.00    +0.046 C 
ATOM     25  C   UNL     1      34.457 -19.635 -20.851  0.00  0.00    +0.013 C 
ATOM     26  C   UNL     1      34.274 -20.653 -19.874  0.00  0.00    +0.017 C 
ATOM     27  C   UNL     1      35.530 -20.927 -19.330  0.00  0.00    +0.068 C 
ATOM     28  C   UNL     1      33.166 -21.368 -19.398  0.00  0.00    +0.022 C 
ATOM     29  C   UNL     1      35.711 -21.882 -18.338  0.00  0.00    +0.113 C 
ATOM     30  C   UNL     1      33.421 -22.306 -18.407  0.00  0.00    +0.099 C 
ATOM     31  H   UNL     1      37.403 -20.077 -19.779  0.00  0.00    +0.152 HD
ENDBRANCH  21  24
ENDBRANCH   2  21
TORSDOF 5
ENDMDL
MODEL 9
REMARK VINA RESULT:     -10.3      5.216     11.578
REMARK  Name = 445481
REMARK  5 active torsions:
REMARK  status: ('A' for Active; 'I' for Inactive)
REMARK    1  A    between atoms: N_2  and  C_21
REMARK    2  A    between atoms: C_3  and  N_7
REMARK    3  A    between atoms: N_7  and  S_9
REMARK    4  A    between atoms: S_9  and  C_14
REMARK    5  A    between atoms: C_21  and  C_24
REMARK                            x       y       z     vdW  Elec       q    Type
REMARK                         _______ _______ _______ _____ _____    ______ ____
ROOT
ATOM      1  O   UNL     1      35.000 -15.597 -20.210  0.00  0.00    -0.273 OA
ATOM      2  N   UNL     1      35.498 -16.820 -22.157  0.00  0.00    -0.273 N 
ATOM      3  C   UNL     1      33.861 -15.168 -22.313  0.00  0.00    +0.153 C 
ATOM      4  C   UNL     1      34.372 -15.514 -23.708  0.00  0.00    +0.048 C 
ATOM      5  C   UNL     1      35.026 -16.869 -23.521  0.00  0.00    +0.096 C 
ATOM      6  C   UNL     1      34.847 -15.848 -21.396  0.00  0.00    +0.242 C 
ENDROOT
BRANCH   3   7
ATOM      7  N   UNL     1      33.898 -13.720 -22.082  0.00  0.00    -0.171 NA
ATOM      8  H   UNL     1      34.273 -13.573 -21.144  0.00  0.00    +0.149 HD
BRANCH   7   9
ATOM      9  S   UNL     1      32.425 -12.848 -22.183  0.00  0.00    +0.066 S 
ATOM     10  O   UNL     1      31.735 -12.927 -20.910  0.00  0.00    -0.152 OA
ATOM     11  O   UNL     1      31.757 -13.186 -23.425  0.00  0.00    -0.152 OA
BRANCH   9  14
ATOM     12  S   UNL     1      34.174 -10.862 -23.413  0.00  0.00    -0.066 S 
ATOM     13  N   UNL     1      32.705  -7.543 -22.014  0.00  0.00    -0.243 NA
ATOM     14  C   UNL     1      32.849 -11.119 -22.390  0.00  0.00    +0.153 C 
ATOM     15  C   UNL     1      32.310  -9.987 -21.883  0.00  0.00    +0.046 C 
ATOM     16  C   UNL     1      33.006  -8.829 -22.345  0.00  0.00    +0.089 C 
ATOM     17  C   UNL     1      34.060  -9.161 -23.198  0.00  0.00    +0.048 C 
ATOM     18  C   UNL     1      34.859  -8.150 -23.752  0.00  0.00    +0.010 C 
ATOM     19  C   UNL     1      34.557  -6.836 -23.418  0.00  0.00    +0.021 C 
ATOM     20  C   UNL     1      33.495  -6.599 -22.565  0.00  0.00    +0.099 C 
ENDBRANCH   9  14
ENDBRANCH   7   9
ENDBRANCH   3   7
BRANCH   2  21
ATOM     21  C   UNL     1      36.452 -17.781 -21.650  0.00  0.00    +0.135 C 
BRANCH  21  24
ATOM     22  N   UNL     1      36.447 -19.761 -20.157  0.00  0.00    -0.313 N 
ATOM     23  N   UNL     1      34.771 -22.517 -18.362  0.00  0.00    -0.241 NA
ATOM     24  C   UNL     1      35.746 -18.896 -20.928  0.00  0.00    +0.046 C 
ATOM     25  C   UNL     1      34.428 -19.220 -20.908  0.00  0.00    +0.013 C 
ATOM     26  C   UNL     1      34.299 -20.363 -20.068  0.00  0.00    +0.017 C 
ATOM     27  C   UNL     1      35.579 -20.679 -19.611  0.00  0.00    +0.068 C 
ATOM     28  C   UNL     1      33.221 -21.157 -19.652  0.00  0.00    +0.022 C 
ATOM     29  C   UNL     1      35.814 -21.752 -18.762  0.00  0.00    +0.113 C 
ATOM     30  C   UNL     1      33.530 -22.212 -18.804  0.00  0.00    +0.099 C 
ATOM     31  H   UNL     1      37.420 -19.738 -20.011  0.00  0.00    +0.152 HD
ENDBRANCH  21  24
ENDBRANCH   2  21
TORSDOF 5
ENDMDL
