MODEL 1
REMARK VINA RESULT:     -11.2      0.000      0.000
REMARK  Name = 2448
REMARK  7 active torsions:
REMARK  status: ('A' for Active; 'I' for Inactive)
REMARK    1  A    between atoms: N_1  and  C_17
REMARK    2  A    between atoms: C_2  and  C_9
REMARK    3  A    between atoms: C_2  and  O_15
REMARK    4  A    between atoms: C_17  and  C_18
REMARK    5  A    between atoms: C_18  and  C_19
REMARK    6  A    between atoms: C_19  and  C_21
REMARK    7  A    between atoms: C_21  and  C_23
REMARK                            x       y       z     vdW  Elec       q    Type
REMARK                         _______ _______ _______ _____ _____    ______ ____
ROOT
ATOM      1  N   UNL     1      35.305 -20.193 -19.866  0.00  0.00    +0.387 N 
ATOM      2  C   UNL     1      33.989 -22.373 -18.338  0.00  0.00    +0.103 C 
ATOM      3  C   UNL     1      33.221 -21.252 -19.072  0.00  0.00    +0.008 C 
ATOM      4  C   UNL     1      35.426 -21.880 -18.050  0.00  0.00    +0.008 C 
ATOM      5  C   UNL     1      33.986 -20.688 -20.274  0.00  0.00    -0.075 C 
ATOM      6  C   UNL     1      36.112 -21.266 -19.277  0.00  0.00    -0.075 C 
ATOM      7  H   UNL     1      35.167 -19.476 -19.154  0.00  0.00    -0.080 HD
ENDROOT
BRANCH   2   9
ATOM      8 BR   UNL     1      31.302 -24.402 -13.122  0.00  0.00    -0.049 Br
ATOM      9  C   UNL     1      33.326 -22.875 -17.053  0.00  0.00    +0.002 C 
ATOM     10  C   UNL     1      31.951 -22.737 -16.880  0.00  0.00    -0.002 C 
ATOM     11  C   UNL     1      34.102 -23.467 -16.057  0.00  0.00    -0.002 C 
ATOM     12  C   UNL     1      31.346 -23.193 -15.709  0.00  0.00    +0.006 C 
ATOM     13  C   UNL     1      33.498 -23.923 -14.884  0.00  0.00    +0.006 C 
ATOM     14  C   UNL     1      32.120 -23.786 -14.711  0.00  0.00    +0.035 C 
ENDBRANCH   2   9
BRANCH   2  15
ATOM     15  O   UNL     1      34.041 -23.512 -19.209  0.00  0.00    -0.383 OA
ATOM     16  H   UNL     1      33.527 -24.239 -18.822  0.00  0.00    +0.211 HD
ENDBRANCH   2  15
BRANCH   1  17
ATOM     17  C   UNL     1      36.002 -19.592 -21.003  0.00  0.00    -0.077 C 
BRANCH  17  18
ATOM     18  C   UNL     1      34.994 -18.990 -21.984  0.00  0.00    -0.015 C 
BRANCH  18  19
ATOM     19  C   UNL     1      35.568 -17.792 -22.745  0.00  0.00    +0.067 C 
BRANCH  19  21
ATOM     20  O   UNL     1      34.219 -18.049 -24.730  0.00  0.00    -0.291 OA
ATOM     21  C   UNL     1      34.663 -17.297 -23.865  0.00  0.00    +0.173 C 
BRANCH  21  23
ATOM     22  F   UNL     1      33.261 -11.894 -23.981  0.00  0.00    -0.204 F 
ATOM     23  C   UNL     1      34.289 -15.855 -23.896  0.00  0.00    +0.035 C 
ATOM     24  C   UNL     1      34.695 -15.044 -22.860  0.00  0.00    +0.005 C 
ATOM     25  C   UNL     1      33.550 -15.386 -24.960  0.00  0.00    +0.005 C 
ATOM     26  C   UNL     1      34.346 -13.695 -22.890  0.00  0.00    +0.030 C 
ATOM     27  C   UNL     1      33.201 -14.037 -24.989  0.00  0.00    +0.030 C 
ATOM     28  C   UNL     1      33.598 -13.190 -23.954  0.00  0.00    +0.140 C 
ENDBRANCH  21  23
ENDBRANCH  19  21
ENDBRANCH  18  19
ENDBRANCH  17  18
ENDBRANCH   1  17
TORSDOF 7
ENDMDL
MODEL 2
REMARK VINA RESULT:     -11.0      5.410     10.727
REMARK  Name = 2448
REMARK  7 active torsions:
REMARK  status: ('A' for Active; 'I' for Inactive)
REMARK    1  A    between atoms: N_1  and  C_17
REMARK    2  A    between atoms: C_2  and  C_9
REMARK    3  A    between atoms: C_2  and  O_15
REMARK    4  A    between atoms: C_17  and  C_18
REMARK    5  A    between atoms: C_18  and  C_19
REMARK    6  A    between atoms: C_19  and  C_21
REMARK    7  A    between atoms: C_21  and  C_23
REMARK                            x       y       z     vdW  Elec       q    Type
REMARK                         _______ _______ _______ _____ _____    ______ ____
ROOT
ATOM      1  N   UNL     1      34.677 -15.205 -23.524  0.00  0.00    +0.387 N 
ATOM      2  C   UNL     1      33.034 -12.808 -22.909  0.00  0.00    +0.103 C 
ATOM      3  C   UNL     1      33.225 -13.377 -24.331  0.00  0.00    +0.008 C 
ATOM      4  C   UNL     1      34.211 -13.283 -22.025  0.00  0.00    +0.008 C 
ATOM      5  C   UNL     1      33.502 -14.885 -24.343  0.00  0.00    -0.075 C 
ATOM      6  C   UNL     1      34.478 -14.789 -22.132  0.00  0.00    -0.075 C 
ATOM      7  H   UNL     1      35.472 -14.686 -23.896  0.00  0.00    -0.080 HD
ENDROOT
BRANCH   2   9
ATOM      8 BR   UNL     1      32.451  -6.635 -22.609  0.00  0.00    -0.049 Br
ATOM      9  C   UNL     1      32.889 -11.287 -22.836  0.00  0.00    +0.002 C 
ATOM     10  C   UNL     1      33.793 -10.468 -23.510  0.00  0.00    -0.002 C 
ATOM     11  C   UNL     1      31.853 -10.721 -22.093  0.00  0.00    -0.002 C 
ATOM     12  C   UNL     1      33.663  -9.082 -23.444  0.00  0.00    +0.006 C 
ATOM     13  C   UNL     1      31.722  -9.334 -22.026  0.00  0.00    +0.006 C 
ATOM     14  C   UNL     1      32.627  -8.514 -22.702  0.00  0.00    +0.035 C 
ENDBRANCH   2   9
BRANCH   2  15
ATOM     15  O   UNL     1      31.804 -13.333 -22.388  0.00  0.00    -0.383 OA
ATOM     16  H   UNL     1      31.056 -12.917 -22.845  0.00  0.00    +0.211 HD
ENDBRANCH   2  15
BRANCH   1  17
ATOM     17  C   UNL     1      34.978 -16.634 -23.596  0.00  0.00    -0.077 C 
BRANCH  17  18
ATOM     18  C   UNL     1      35.373 -17.162 -22.216  0.00  0.00    -0.015 C 
BRANCH  18  19
ATOM     19  C   UNL     1      35.707 -18.656 -22.238  0.00  0.00    +0.067 C 
BRANCH  19  21
ATOM     20  O   UNL     1      37.257 -18.818 -20.396  0.00  0.00    -0.291 OA
ATOM     21  C   UNL     1      36.198 -19.186 -20.898  0.00  0.00    +0.173 C 
BRANCH  21  23
ATOM     22  F   UNL     1      33.021 -22.865 -18.152  0.00  0.00    -0.204 F 
ATOM     23  C   UNL     1      35.350 -20.169 -20.165  0.00  0.00    +0.035 C 
ATOM     24  C   UNL     1      33.981 -20.090 -20.299  0.00  0.00    +0.005 C 
ATOM     25  C   UNL     1      35.965 -21.118 -19.380  0.00  0.00    +0.005 C 
ATOM     26  C   UNL     1      33.188 -21.009 -19.614  0.00  0.00    +0.030 C 
ATOM     27  C   UNL     1      35.172 -22.037 -18.695  0.00  0.00    +0.030 C 
ATOM     28  C   UNL     1      33.783 -21.984 -18.811  0.00  0.00    +0.140 C 
ENDBRANCH  21  23
ENDBRANCH  19  21
ENDBRANCH  18  19
ENDBRANCH  17  18
ENDBRANCH   1  17
TORSDOF 7
ENDMDL
MODEL 3
REMARK VINA RESULT:     -10.8      1.701      1.943
REMARK  Name = 2448
REMARK  7 active torsions:
REMARK  status: ('A' for Active; 'I' for Inactive)
REMARK    1  A    between atoms: N_1  and  C_17
REMARK    2  A    between atoms: C_2  and  C_9
REMARK    3  A    between atoms: C_2  and  O_15
REMARK    4  A    between atoms: C_17  and  C_18
REMARK    5  A    between atoms: C_18  and  C_19
REMARK    6  A    between atoms: C_19  and  C_21
REMARK    7  A    between atoms: C_21  and  C_23
REMARK                            x       y       z     vdW  Elec       q    Type
REMARK                         _______ _______ _______ _____ _____    ______ ____
ROOT
ATOM      1  N   UNL     1      35.520 -19.890 -19.945  0.00  0.00    +0.387 N 
ATOM      2  C   UNL     1      34.393 -22.208 -18.469  0.00  0.00    +0.103 C 
ATOM      3  C   UNL     1      33.533 -21.136 -19.174  0.00  0.00    +0.008 C 
ATOM      4  C   UNL     1      35.786 -21.605 -18.172  0.00  0.00    +0.008 C 
ATOM      5  C   UNL     1      34.244 -20.482 -20.363  0.00  0.00    -0.075 C 
ATOM      6  C   UNL     1      36.415 -20.908 -19.384  0.00  0.00    -0.075 C 
ATOM      7  H   UNL     1      35.326 -19.205 -19.215  0.00  0.00    -0.080 HD
ENDROOT
BRANCH   2   9
ATOM      8 BR   UNL     1      31.901 -24.577 -13.300  0.00  0.00    -0.049 Br
ATOM      9  C   UNL     1      33.779 -22.794 -17.196  0.00  0.00    +0.002 C 
ATOM     10  C   UNL     1      32.394 -22.841 -17.049  0.00  0.00    -0.002 C 
ATOM     11  C   UNL     1      34.607 -23.277 -16.184  0.00  0.00    -0.002 C 
ATOM     12  C   UNL     1      31.833 -23.373 -15.889  0.00  0.00    +0.006 C 
ATOM     13  C   UNL     1      34.047 -23.810 -15.022  0.00  0.00    +0.006 C 
ATOM     14  C   UNL     1      32.660 -23.858 -14.875  0.00  0.00    +0.035 C 
ENDBRANCH   2   9
BRANCH   2  15
ATOM     15  O   UNL     1      34.535 -23.317 -19.368  0.00  0.00    -0.383 OA
ATOM     16  H   UNL     1      33.670 -23.539 -19.748  0.00  0.00    +0.211 HD
ENDBRANCH   2  15
BRANCH   1  17
ATOM     17  C   UNL     1      36.161 -19.207 -21.068  0.00  0.00    -0.077 C 
BRANCH  17  18
ATOM     18  C   UNL     1      35.190 -18.210 -21.705  0.00  0.00    -0.015 C 
BRANCH  18  19
ATOM     19  C   UNL     1      35.259 -16.829 -21.048  0.00  0.00    +0.067 C 
BRANCH  19  21
ATOM     20  O   UNL     1      35.508 -15.566 -23.090  0.00  0.00    -0.291 OA
ATOM     21  C   UNL     1      34.944 -15.688 -22.005  0.00  0.00    +0.173 C 
BRANCH  21  23
ATOM     22  F   UNL     1      31.026 -11.986 -20.549  0.00  0.00    -0.204 F 
ATOM     23  C   UNL     1      33.898 -14.699 -21.616  0.00  0.00    +0.035 C 
ATOM     24  C   UNL     1      33.496 -14.645 -20.300  0.00  0.00    +0.005 C 
ATOM     25  C   UNL     1      33.371 -13.878 -22.588  0.00  0.00    +0.005 C 
ATOM     26  C   UNL     1      32.518 -13.720 -19.936  0.00  0.00    +0.030 C 
ATOM     27  C   UNL     1      32.393 -12.953 -22.224  0.00  0.00    +0.030 C 
ATOM     28  C   UNL     1      31.966 -12.874 -20.898  0.00  0.00    +0.140 C 
ENDBRANCH  21  23
ENDBRANCH  19  21
ENDBRANCH  18  19
ENDBRANCH  17  18
ENDBRANCH   1  17
TORSDOF 7
ENDMDL
MODEL 4
REMARK VINA RESULT:     -10.8      5.484     10.549
REMARK  Name = 2448
REMARK  7 active torsions:
REMARK  status: ('A' for Active; 'I' for Inactive)
REMARK    1  A    between atoms: N_1  and  C_17
REMARK    2  A    between atoms: C_2  and  C_9
REMARK    3  A    between atoms: C_2  and  O_15
REMARK    4  A    between atoms: C_17  and  C_18
REMARK    5  A    between atoms: C_18  and  C_19
REMARK    6  A    between atoms: C_19  and  C_21
REMARK    7  A    between atoms: C_21  and  C_23
REMARK                            x       y       z     vdW  Elec       q    Type
REMARK                         _______ _______ _______ _____ _____    ______ ____
ROOT
ATOM      1  N   UNL     1      34.578 -14.931 -21.252  0.00  0.00    +0.387 N 
ATOM      2  C   UNL     1      32.729 -12.747 -22.049  0.00  0.00    +0.103 C 
ATOM      3  C   UNL     1      33.888 -13.259 -22.933  0.00  0.00    +0.008 C 
ATOM      4  C   UNL     1      33.036 -13.108 -20.577  0.00  0.00    +0.008 C 
ATOM      5  C   UNL     1      34.244 -14.726 -22.666  0.00  0.00    -0.075 C 
ATOM      6  C   UNL     1      33.450 -14.572 -20.386  0.00  0.00    -0.075 C 
ATOM      7  H   UNL     1      35.359 -14.319 -21.020  0.00  0.00    -0.080 HD
ENDROOT
BRANCH   2   9
ATOM      8 BR   UNL     1      31.509  -6.684 -22.593  0.00  0.00    -0.049 Br
ATOM      9  C   UNL     1      32.427 -11.253 -22.184  0.00  0.00    +0.002 C 
ATOM     10  C   UNL     1      32.773 -10.575 -23.351  0.00  0.00    -0.002 C 
ATOM     11  C   UNL     1      31.807 -10.572 -21.137  0.00  0.00    -0.002 C 
ATOM     12  C   UNL     1      32.499  -9.213 -23.474  0.00  0.00    +0.006 C 
ATOM     13  C   UNL     1      31.533  -9.209 -21.259  0.00  0.00    +0.006 C 
ATOM     14  C   UNL     1      31.879  -8.531 -22.428  0.00  0.00    +0.035 C 
ENDBRANCH   2   9
BRANCH   2  15
ATOM     15  O   UNL     1      31.530 -13.417 -22.465  0.00  0.00    -0.383 OA
ATOM     16  H   UNL     1      31.661 -13.794 -23.350  0.00  0.00    +0.211 HD
ENDBRANCH   2  15
BRANCH   1  17
ATOM     17  C   UNL     1      34.984 -16.316 -21.017  0.00  0.00    -0.077 C 
BRANCH  17  18
ATOM     18  C   UNL     1      35.547 -16.928 -22.301  0.00  0.00    -0.015 C 
BRANCH  18  19
ATOM     19  C   UNL     1      35.465 -18.457 -22.301  0.00  0.00    +0.067 C 
BRANCH  19  21
ATOM     20  O   UNL     1      37.241 -18.824 -20.708  0.00  0.00    -0.291 OA
ATOM     21  C   UNL     1      36.100 -19.096 -21.073  0.00  0.00    +0.173 C 
BRANCH  21  23
ATOM     22  F   UNL     1      33.091 -22.738 -18.098  0.00  0.00    -0.204 F 
ATOM     23  C   UNL     1      35.297 -20.069 -20.279  0.00  0.00    +0.035 C 
ATOM     24  C   UNL     1      33.923 -19.993 -20.335  0.00  0.00    +0.005 C 
ATOM     25  C   UNL     1      35.958 -21.007 -19.518  0.00  0.00    +0.005 C 
ATOM     26  C   UNL     1      33.172 -20.903 -19.592  0.00  0.00    +0.030 C 
ATOM     27  C   UNL     1      35.207 -21.916 -18.775  0.00  0.00    +0.030 C 
ATOM     28  C   UNL     1      33.813 -21.865 -18.812  0.00  0.00    +0.140 C 
ENDBRANCH  21  23
ENDBRANCH  19  21
ENDBRANCH  18  19
ENDBRANCH  17  18
ENDBRANCH   1  17
TORSDOF 7
ENDMDL
MODEL 5
REMARK VINA RESULT:     -10.7      3.516      5.708
REMARK  Name = 2448
REMARK  7 active torsions:
REMARK  status: ('A' for Active; 'I' for Inactive)
REMARK    1  A    between atoms: N_1  and  C_17
REMARK    2  A    between atoms: C_2  and  C_9
REMARK    3  A    between atoms: C_2  and  O_15
REMARK    4  A    between atoms: C_17  and  C_18
REMARK    5  A    between atoms: C_18  and  C_19
REMARK    6  A    between atoms: C_19  and  C_21
REMARK    7  A    between atoms: C_21  and  C_23
REMARK                            x       y       z     vdW  Elec       q    Type
REMARK                         _______ _______ _______ _____ _____    ______ ____
ROOT
ATOM      1  N   UNL     1      34.380 -15.819 -23.143  0.00  0.00    +0.387 N 
ATOM      2  C   UNL     1      35.332 -18.236 -21.704  0.00  0.00    +0.103 C 
ATOM      3  C   UNL     1      34.628 -18.275 -23.078  0.00  0.00    +0.008 C 
ATOM      4  C   UNL     1      34.954 -16.916 -20.993  0.00  0.00    +0.008 C 
ATOM      5  C   UNL     1      34.834 -16.994 -23.895  0.00  0.00    -0.075 C 
ATOM      6  C   UNL     1      35.120 -15.679 -21.884  0.00  0.00    -0.075 C 
ATOM      7  H   UNL     1      33.395 -15.950 -22.916  0.00  0.00    -0.080 HD
ENDROOT
BRANCH   2   9
ATOM      8 BR   UNL     1      34.164 -23.096 -18.021  0.00  0.00    -0.049 Br
ATOM      9  C   UNL     1      35.044 -19.435 -20.798  0.00  0.00    +0.002 C 
ATOM     10  C   UNL     1      33.729 -19.830 -20.562  0.00  0.00    -0.002 C 
ATOM     11  C   UNL     1      36.100 -20.130 -20.208  0.00  0.00    -0.002 C 
ATOM     12  C   UNL     1      33.466 -20.921 -19.735  0.00  0.00    +0.006 C 
ATOM     13  C   UNL     1      35.837 -21.222 -19.380  0.00  0.00    +0.006 C 
ATOM     14  C   UNL     1      34.520 -21.617 -19.144  0.00  0.00    +0.035 C 
ENDBRANCH   2   9
BRANCH   2  15
ATOM     15  O   UNL     1      36.748 -18.265 -21.935  0.00  0.00    -0.383 OA
ATOM     16  H   UNL     1      37.102 -17.363 -21.882  0.00  0.00    +0.211 HD
ENDBRANCH   2  15
BRANCH   1  17
ATOM     17  C   UNL     1      34.514 -14.609 -23.954  0.00  0.00    -0.077 C 
BRANCH  17  18
ATOM     18  C   UNL     1      34.165 -13.373 -23.123  0.00  0.00    -0.015 C 
BRANCH  18  19
ATOM     19  C   UNL     1      32.655 -13.213 -22.925  0.00  0.00    +0.067 C 
BRANCH  19  21
ATOM     20  O   UNL     1      32.070 -14.166 -20.786  0.00  0.00    -0.291 OA
ATOM     21  C   UNL     1      32.240 -13.153 -21.461  0.00  0.00    +0.173 C 
BRANCH  21  23
ATOM     22  F   UNL     1      31.555  -8.151 -19.078  0.00  0.00    -0.204 F 
ATOM     23  C   UNL     1      32.058 -11.818 -20.825  0.00  0.00    +0.035 C 
ATOM     24  C   UNL     1      32.060 -11.734 -19.450  0.00  0.00    +0.005 C 
ATOM     25  C   UNL     1      31.893 -10.717 -21.635  0.00  0.00    +0.005 C 
ATOM     26  C   UNL     1      31.889 -10.485 -18.856  0.00  0.00    +0.030 C 
ATOM     27  C   UNL     1      31.722  -9.467 -21.040  0.00  0.00    +0.030 C 
ATOM     28  C   UNL     1      31.720  -9.351 -19.650  0.00  0.00    +0.140 C 
ENDBRANCH  21  23
ENDBRANCH  19  21
ENDBRANCH  18  19
ENDBRANCH  17  18
ENDBRANCH   1  17
TORSDOF 7
ENDMDL
MODEL 6
REMARK VINA RESULT:     -10.7      5.671     10.804
REMARK  Name = 2448
REMARK  7 active torsions:
REMARK  status: ('A' for Active; 'I' for Inactive)
REMARK    1  A    between atoms: N_1  and  C_17
REMARK    2  A    between atoms: C_2  and  C_9
REMARK    3  A    between atoms: C_2  and  O_15
REMARK    4  A    between atoms: C_17  and  C_18
REMARK    5  A    between atoms: C_18  and  C_19
REMARK    6  A    between atoms: C_19  and  C_21
REMARK    7  A    between atoms: C_21  and  C_23
REMARK                            x       y       z     vdW  Elec       q    Type
REMARK                         _______ _______ _______ _____ _____    ______ ____
ROOT
ATOM      1  N   UNL     1      33.045 -23.309 -14.943  0.00  0.00    +0.387 N 
ATOM      2  C   UNL     1      33.834 -22.743 -17.750  0.00  0.00    +0.103 C 
ATOM      3  C   UNL     1      34.834 -22.828 -16.576  0.00  0.00    +0.008 C 
ATOM      4  C   UNL     1      32.430 -22.431 -17.181  0.00  0.00    +0.008 C 
ATOM      5  C   UNL     1      34.354 -23.743 -15.443  0.00  0.00    -0.075 C 
ATOM      6  C   UNL     1      32.037 -23.338 -16.008  0.00  0.00    -0.075 C 
ATOM      7  H   UNL     1      33.133 -22.346 -14.619  0.00  0.00    -0.080 HD
ENDROOT
BRANCH   2   9
ATOM      8 BR   UNL     1      35.341 -18.662 -22.178  0.00  0.00    -0.049 Br
ATOM      9  C   UNL     1      34.205 -21.739 -18.842  0.00  0.00    +0.002 C 
ATOM     10  C   UNL     1      35.544 -21.503 -19.145  0.00  0.00    -0.002 C 
ATOM     11  C   UNL     1      33.202 -21.059 -19.532  0.00  0.00    -0.002 C 
ATOM     12  C   UNL     1      35.884 -20.587 -20.140  0.00  0.00    +0.006 C 
ATOM     13  C   UNL     1      33.540 -20.142 -20.528  0.00  0.00    +0.006 C 
ATOM     14  C   UNL     1      34.882 -19.906 -20.831  0.00  0.00    +0.035 C 
ENDBRANCH   2   9
BRANCH   2  15
ATOM     15  O   UNL     1      33.811 -24.022 -18.400  0.00  0.00    -0.383 OA
ATOM     16  H   UNL     1      32.983 -24.118 -18.897  0.00  0.00    +0.211 HD
ENDBRANCH   2  15
BRANCH   1  17
ATOM     17  C   UNL     1      32.625 -24.142 -13.817  0.00  0.00    -0.077 C 
BRANCH  17  18
ATOM     18  C   UNL     1      33.823 -24.905 -13.246  0.00  0.00    -0.015 C 
BRANCH  18  19
ATOM     19  C   UNL     1      34.521 -24.135 -12.122  0.00  0.00    +0.067 C 
BRANCH  19  21
ATOM     20  O   UNL     1      35.878 -25.273 -10.482  0.00  0.00    -0.291 OA
ATOM     21  C   UNL     1      35.787 -24.815 -11.619  0.00  0.00    +0.173 C 
BRANCH  21  23
ATOM     22  F   UNL     1      40.121 -25.307 -15.104  0.00  0.00    -0.204 F 
ATOM     23  C   UNL     1      36.944 -24.946 -12.549  0.00  0.00    +0.035 C 
ATOM     24  C   UNL     1      37.199 -23.923 -13.435  0.00  0.00    +0.005 C 
ATOM     25  C   UNL     1      37.714 -26.086 -12.489  0.00  0.00    +0.005 C 
ATOM     26  C   UNL     1      38.282 -24.046 -14.305  0.00  0.00    +0.030 C 
ATOM     27  C   UNL     1      38.797 -26.209 -13.359  0.00  0.00    +0.030 C 
ATOM     28  C   UNL     1      39.082 -25.189 -14.267  0.00  0.00    +0.140 C 
ENDBRANCH  21  23
ENDBRANCH  19  21
ENDBRANCH  18  19
ENDBRANCH  17  18
ENDBRANCH   1  17
TORSDOF 7
ENDMDL
MODEL 7
REMARK VINA RESULT:     -10.6      5.192      9.638
REMARK  Name = 2448
REMARK  7 active torsions:
REMARK  status: ('A' for Active; 'I' for Inactive)
REMARK    1  A    between atoms: N_1  and  C_17
REMARK    2  A    between atoms: C_2  and  C_9
REMARK    3  A    between atoms: C_2  and  O_15
REMARK    4  A    between atoms: C_17  and  C_18
REMARK    5  A    between atoms: C_18  and  C_19
REMARK    6  A    between atoms: C_19  and  C_21
REMARK    7  A    between atoms: C_21  and  C_23
REMARK                            x       y       z     vdW  Elec       q    Type
REMARK                         _______ _______ _______ _____ _____    ______ ____
ROOT
ATOM      1  N   UNL     1      33.256 -23.343 -15.065  0.00  0.00    +0.387 N 
ATOM      2  C   UNL     1      34.005 -22.679 -17.861  0.00  0.00    +0.103 C 
ATOM      3  C   UNL     1      35.018 -22.775 -16.700  0.00  0.00    +0.008 C 
ATOM      4  C   UNL     1      32.600 -22.415 -17.270  0.00  0.00    +0.008 C 
ATOM      5  C   UNL     1      34.570 -23.733 -15.590  0.00  0.00    -0.075 C 
ATOM      6  C   UNL     1      32.239 -23.363 -16.121  0.00  0.00    -0.075 C 
ATOM      7  H   UNL     1      33.327 -22.388 -14.714  0.00  0.00    -0.080 HD
ENDROOT
BRANCH   2   9
ATOM      8 BR   UNL     1      35.377 -18.450 -22.194  0.00  0.00    -0.049 Br
ATOM      9  C   UNL     1      34.343 -21.635 -18.928  0.00  0.00    +0.002 C 
ATOM     10  C   UNL     1      33.320 -21.005 -19.634  0.00  0.00    -0.002 C 
ATOM     11  C   UNL     1      35.675 -21.318 -19.192  0.00  0.00    -0.002 C 
ATOM     12  C   UNL     1      33.628 -20.055 -20.608  0.00  0.00    +0.006 C 
ATOM     13  C   UNL     1      35.984 -20.368 -20.166  0.00  0.00    +0.006 C 
ATOM     14  C   UNL     1      34.959 -19.736 -20.874  0.00  0.00    +0.035 C 
ENDBRANCH   2   9
BRANCH   2  15
ATOM     15  O   UNL     1      34.004 -23.939 -18.548  0.00  0.00    -0.383 OA
ATOM     16  H   UNL     1      33.119 -24.335 -18.496  0.00  0.00    +0.211 HD
ENDBRANCH   2  15
BRANCH   1  17
ATOM     17  C   UNL     1      32.866 -24.217 -13.959  0.00  0.00    -0.077 C 
BRANCH  17  18
ATOM     18  C   UNL     1      31.820 -23.527 -13.081  0.00  0.00    -0.015 C 
BRANCH  18  19
ATOM     19  C   UNL     1      30.607 -24.421 -12.811  0.00  0.00    +0.067 C 
BRANCH  19  21
ATOM     20  O   UNL     1      30.195 -26.191 -14.399  0.00  0.00    -0.291 OA
ATOM     21  C   UNL     1      30.005 -25.022 -14.074  0.00  0.00    +0.173 C 
BRANCH  21  23
ATOM     22  F   UNL     1      26.760 -21.803 -17.280  0.00  0.00    -0.204 F 
ATOM     23  C   UNL     1      29.139 -24.162 -14.930  0.00  0.00    +0.035 C 
ATOM     24  C   UNL     1      28.823 -22.896 -14.491  0.00  0.00    +0.005 C 
ATOM     25  C   UNL     1      28.686 -24.667 -16.129  0.00  0.00    +0.005 C 
ATOM     26  C   UNL     1      28.013 -22.093 -15.292  0.00  0.00    +0.030 C 
ATOM     27  C   UNL     1      27.876 -23.863 -16.930  0.00  0.00    +0.030 C 
ATOM     28  C   UNL     1      27.538 -22.575 -16.512  0.00  0.00    +0.140 C 
ENDBRANCH  21  23
ENDBRANCH  19  21
ENDBRANCH  18  19
ENDBRANCH  17  18
ENDBRANCH   1  17
TORSDOF 7
ENDMDL
MODEL 8
REMARK VINA RESULT:     -10.4      2.982      5.189
REMARK  Name = 2448
REMARK  7 active torsions:
REMARK  status: ('A' for Active; 'I' for Inactive)
REMARK    1  A    between atoms: N_1  and  C_17
REMARK    2  A    between atoms: C_2  and  C_9
REMARK    3  A    between atoms: C_2  and  O_15
REMARK    4  A    between atoms: C_17  and  C_18
REMARK    5  A    between atoms: C_18  and  C_19
REMARK    6  A    between atoms: C_19  and  C_21
REMARK    7  A    between atoms: C_21  and  C_23
REMARK                            x       y       z     vdW  Elec       q    Type
REMARK                         _______ _______ _______ _____ _____    ______ ____
ROOT
ATOM      1  N   UNL     1      34.488 -16.692 -23.427  0.00  0.00    +0.387 N 
ATOM      2  C   UNL     1      35.294 -18.923 -21.641  0.00  0.00    +0.103 C 
ATOM      3  C   UNL     1      34.586 -19.122 -22.999  0.00  0.00    +0.008 C 
ATOM      4  C   UNL     1      34.999 -17.492 -21.135  0.00  0.00    +0.008 C 
ATOM      5  C   UNL     1      34.868 -17.990 -23.994  0.00  0.00    -0.075 C 
ATOM      6  C   UNL     1      35.238 -16.413 -22.198  0.00  0.00    -0.075 C 
ATOM      7  H   UNL     1      33.497 -16.728 -23.190  0.00  0.00    -0.080 HD
ENDROOT
BRANCH   2   9
ATOM      8 BR   UNL     1      33.841 -23.117 -17.300  0.00  0.00    -0.049 Br
ATOM      9  C   UNL     1      34.936 -19.956 -20.570  0.00  0.00    +0.002 C 
ATOM     10  C   UNL     1      35.946 -20.633 -19.890  0.00  0.00    -0.002 C 
ATOM     11  C   UNL     1      33.598 -20.218 -20.277  0.00  0.00    -0.002 C 
ATOM     12  C   UNL     1      35.621 -21.575 -18.915  0.00  0.00    +0.006 C 
ATOM     13  C   UNL     1      33.271 -21.161 -19.301  0.00  0.00    +0.006 C 
ATOM     14  C   UNL     1      34.284 -21.839 -18.620  0.00  0.00    +0.035 C 
ENDBRANCH   2   9
BRANCH   2  15
ATOM     15  O   UNL     1      36.705 -19.072 -21.856  0.00  0.00    -0.383 OA
ATOM     16  H   UNL     1      36.938 -18.716 -22.728  0.00  0.00    +0.211 HD
ENDBRANCH   2  15
BRANCH   1  17
ATOM     17  C   UNL     1      34.694 -15.625 -24.406  0.00  0.00    -0.077 C 
BRANCH  17  18
ATOM     18  C   UNL     1      33.514 -14.652 -24.386  0.00  0.00    -0.015 C 
BRANCH  18  19
ATOM     19  C   UNL     1      33.859 -13.333 -23.690  0.00  0.00    +0.067 C 
BRANCH  19  21
ATOM     20  O   UNL     1      32.712 -13.922 -21.650  0.00  0.00    -0.291 OA
ATOM     21  C   UNL     1      32.996 -13.050 -22.468  0.00  0.00    +0.173 C 
BRANCH  21  23
ATOM     22  F   UNL     1      31.135  -7.849 -21.656  0.00  0.00    -0.204 F 
ATOM     23  C   UNL     1      32.499 -11.662 -22.251  0.00  0.00    +0.035 C 
ATOM     24  C   UNL     1      32.744 -10.713 -23.219  0.00  0.00    +0.005 C 
ATOM     25  C   UNL     1      31.813 -11.378 -21.091  0.00  0.00    +0.005 C 
ATOM     26  C   UNL     1      32.279  -9.415 -23.016  0.00  0.00    +0.030 C 
ATOM     27  C   UNL     1      31.348 -10.080 -20.888  0.00  0.00    +0.030 C 
ATOM     28  C   UNL     1      31.581  -9.097 -21.850  0.00  0.00    +0.140 C 
ENDBRANCH  21  23
ENDBRANCH  19  21
ENDBRANCH  18  19
ENDBRANCH  17  18
ENDBRANCH   1  17
TORSDOF 7
ENDMDL
MODEL 9
REMARK VINA RESULT:     -10.4      4.746      9.994
REMARK  Name = 2448
REMARK  7 active torsions:
REMARK  status: ('A' for Active; 'I' for Inactive)
REMARK    1  A    between atoms: N_1  and  C_17
REMARK    2  A    between atoms: C_2  and  C_9
REMARK    3  A    between atoms: C_2  and  O_15
REMARK    4  A    between atoms: C_17  and  C_18
REMARK    5  A    between atoms: C_18  and  C_19
REMARK    6  A    between atoms: C_19  and  C_21
REMARK    7  A    between atoms: C_21  and  C_23
REMARK                            x       y       z     vdW  Elec       q    Type
REMARK                         _______ _______ _______ _____ _____    ______ ____
ROOT
ATOM      1  N   UNL     1      35.931 -20.278 -19.486  0.00  0.00    +0.387 N 
ATOM      2  C   UNL     1      35.416 -18.431 -21.754  0.00  0.00    +0.103 C 
ATOM      3  C   UNL     1      36.746 -18.480 -20.971  0.00  0.00    +0.008 C 
ATOM      4  C   UNL     1      34.296 -19.018 -20.864  0.00  0.00    +0.008 C 
ATOM      5  C   UNL     1      37.032 -19.857 -20.360  0.00  0.00    -0.075 C 
ATOM      6  C   UNL     1      34.670 -20.364 -20.230  0.00  0.00    -0.075 C 
ATOM      7  H   UNL     1      35.819 -19.573 -18.758  0.00  0.00    -0.080 HD
ENDROOT
BRANCH   2   9
ATOM      8 BR   UNL     1      33.806 -12.809 -23.838  0.00  0.00    -0.049 Br
ATOM      9  C   UNL     1      35.021 -17.045 -22.268  0.00  0.00    +0.002 C 
ATOM     10  C   UNL     1      34.909 -15.978 -21.378  0.00  0.00    -0.002 C 
ATOM     11  C   UNL     1      34.771 -16.852 -23.626  0.00  0.00    -0.002 C 
ATOM     12  C   UNL     1      34.548 -14.715 -21.845  0.00  0.00    +0.006 C 
ATOM     13  C   UNL     1      34.409 -15.588 -24.095  0.00  0.00    +0.006 C 
ATOM     14  C   UNL     1      34.298 -14.520 -23.204  0.00  0.00    +0.035 C 
ENDBRANCH   2   9
BRANCH   2  15
ATOM     15  O   UNL     1      35.567 -19.243 -22.928  0.00  0.00    -0.383 OA
ATOM     16  H   UNL     1      34.815 -19.094 -23.523  0.00  0.00    +0.211 HD
ENDBRANCH   2  15
BRANCH   1  17
ATOM     17  C   UNL     1      36.241 -21.558 -18.852  0.00  0.00    -0.077 C 
BRANCH  17  18
ATOM     18  C   UNL     1      35.002 -22.456 -18.838  0.00  0.00    -0.015 C 
BRANCH  18  19
ATOM     19  C   UNL     1      34.500 -22.731 -17.418  0.00  0.00    +0.067 C 
BRANCH  19  21
ATOM     20  O   UNL     1      32.287 -22.129 -18.170  0.00  0.00    -0.291 OA
ATOM     21  C   UNL     1      32.992 -22.580 -17.271  0.00  0.00    +0.173 C 
BRANCH  21  23
ATOM     22  F   UNL     1      30.595 -24.212 -12.500  0.00  0.00    -0.204 F 
ATOM     23  C   UNL     1      32.352 -23.016 -15.997  0.00  0.00    +0.035 C 
ATOM     24  C   UNL     1      30.978 -23.006 -15.910  0.00  0.00    +0.005 C 
ATOM     25  C   UNL     1      33.159 -23.412 -14.953  0.00  0.00    +0.005 C 
ATOM     26  C   UNL     1      30.379 -23.414 -14.719  0.00  0.00    +0.030 C 
ATOM     27  C   UNL     1      32.560 -23.820 -13.762  0.00  0.00    +0.030 C 
ATOM     28  C   UNL     1      31.170 -23.821 -13.644  0.00  0.00    +0.140 C 
ENDBRANCH  21  23
ENDBRANCH  19  21
ENDBRANCH  18  19
ENDBRANCH  17  18
ENDBRANCH   1  17
TORSDOF 7
ENDMDL
