MODEL 1
REMARK VINA RESULT:     -11.9      0.000      0.000
REMARK  Name = 24812719
REMARK  3 active torsions:
REMARK  status: ('A' for Active; 'I' for Inactive)
REMARK    1  A    between atoms: N_2  and  C_22
REMARK    2  A    between atoms: C_3  and  C_12
REMARK    3  A    between atoms: C_25  and  C_31
REMARK                            x       y       z     vdW  Elec       q    Type
REMARK                         _______ _______ _______ _____ _____    ______ ____
ROOT
ATOM      1  O   UNL     1      34.683 -15.751 -20.921  0.00  0.00    -0.269 OA
ATOM      2  N   UNL     1      34.971 -17.467 -22.508  0.00  0.00    -0.233 N 
ATOM      3  C   UNL     1      33.983 -15.253 -23.114  0.00  0.00    +0.046 C 
ATOM      4  C   UNL     1      33.936 -15.635 -24.407  0.00  0.00    -0.016 C 
ATOM      5  C   UNL     1      34.564 -16.183 -22.068  0.00  0.00    +0.256 C 
ATOM      6  C   UNL     1      34.904 -17.785 -23.860  0.00  0.00    +0.072 C 
ATOM      7  C   UNL     1      34.428 -16.941 -24.779  0.00  0.00    +0.012 C 
ATOM      8  C   UNL     1      33.397 -14.823 -25.554  0.00  0.00    +0.031 C 
ENDROOT
BRANCH   3  12
ATOM      9  N   UNL     1      32.100 -10.206 -21.434  0.00  0.00    -0.342 NA
ATOM     10  N   UNL     1      33.394  -9.116 -23.149  0.00  0.00    -0.170 NA
ATOM     11  N   UNL     1      32.061  -7.872 -21.677  0.00  0.00    -0.293 N 
ATOM     12  C   UNL     1      33.495 -13.931 -22.680  0.00  0.00    -0.017 C 
ATOM     13  C   UNL     1      33.916 -12.778 -23.336  0.00  0.00    +0.056 C 
ATOM     14  C   UNL     1      32.611 -13.828 -21.612  0.00  0.00    -0.022 C 
ATOM     15  C   UNL     1      33.447 -11.521 -22.919  0.00  0.00    +0.029 C 
ATOM     16  C   UNL     1      32.554 -11.404 -21.841  0.00  0.00    +0.124 C 
ATOM     17  C   UNL     1      32.149 -12.573 -21.203  0.00  0.00    +0.085 C 
ATOM     18  C   UNL     1      33.829 -10.331 -23.532  0.00  0.00    +0.110 C 
ATOM     19  C   UNL     1      32.544  -9.127 -22.110  0.00  0.00    +0.141 C 
ATOM     20  H   UNL     1      31.436  -7.821 -20.919  0.00  0.00    +0.155 HD
ATOM     21  H   UNL     1      32.351  -7.049 -22.134  0.00  0.00    +0.155 HD
ENDBRANCH   3  12
BRANCH   2  22
ATOM     22  C   UNL     1      35.480 -18.432 -21.552  0.00  0.00    +0.058 C 
ATOM     23  C   UNL     1      34.606 -19.313 -20.918  0.00  0.00    +0.019 C 
ATOM     24  C   UNL     1      36.844 -18.475 -21.265  0.00  0.00    +0.015 C 
ATOM     25  C   UNL     1      35.096 -20.240 -19.998  0.00  0.00    +0.073 C 
ATOM     26  C   UNL     1      37.334 -19.402 -20.346  0.00  0.00    +0.001 C 
ATOM     27  C   UNL     1      36.460 -20.284 -19.711  0.00  0.00    +0.004 C 
BRANCH  25  31
ATOM     28  F   UNL     1      33.923 -22.325 -20.028  0.00  0.00    -0.166 F 
ATOM     29  F   UNL     1      34.605 -21.608 -18.099  0.00  0.00    -0.166 F 
ATOM     30  F   UNL     1      32.934 -20.632 -19.089  0.00  0.00    -0.166 F 
ATOM     31  C   UNL     1      34.161 -21.183 -19.319  0.00  0.00    +0.419 C 
ENDBRANCH  25  31
ENDBRANCH   2  22
TORSDOF 3
ENDMDL
MODEL 2
REMARK VINA RESULT:     -11.0      3.742      8.580
REMARK  Name = 24812719
REMARK  3 active torsions:
REMARK  status: ('A' for Active; 'I' for Inactive)
REMARK    1  A    between atoms: N_2  and  C_22
REMARK    2  A    between atoms: C_3  and  C_12
REMARK    3  A    between atoms: C_25  and  C_31
REMARK                            x       y       z     vdW  Elec       q    Type
REMARK                         _______ _______ _______ _____ _____    ______ ____
ROOT
ATOM      1  O   UNL     1      34.614 -16.022 -21.100  0.00  0.00    -0.269 OA
ATOM      2  N   UNL     1      34.076 -15.572 -23.348  0.00  0.00    -0.233 N 
ATOM      3  C   UNL     1      34.856 -17.824 -22.598  0.00  0.00    +0.046 C 
ATOM      4  C   UNL     1      34.661 -18.299 -23.845  0.00  0.00    -0.016 C 
ATOM      5  C   UNL     1      34.521 -16.382 -22.275  0.00  0.00    +0.256 C 
ATOM      6  C   UNL     1      33.888 -16.136 -24.605  0.00  0.00    +0.072 C 
ATOM      7  C   UNL     1      34.148 -17.419 -24.869  0.00  0.00    +0.012 C 
ATOM      8  C   UNL     1      34.940 -19.702 -24.315  0.00  0.00    +0.031 C 
ENDROOT
BRANCH   3  12
ATOM      9  N   UNL     1      36.876 -21.089 -18.463  0.00  0.00    -0.342 NA
ATOM     10  N   UNL     1      34.720 -22.125 -18.183  0.00  0.00    -0.170 NA
ATOM     11  N   UNL     1      36.540 -22.762 -16.852  0.00  0.00    -0.293 N 
ATOM     12  C   UNL     1      35.378 -18.680 -21.516  0.00  0.00    -0.017 C 
ATOM     13  C   UNL     1      34.541 -19.591 -20.879  0.00  0.00    +0.056 C 
ATOM     14  C   UNL     1      36.709 -18.582 -21.127  0.00  0.00    -0.022 C 
ATOM     15  C   UNL     1      35.044 -20.405 -19.850  0.00  0.00    +0.029 C 
ATOM     16  C   UNL     1      36.386 -20.315 -19.447  0.00  0.00    +0.124 C 
ATOM     17  C   UNL     1      37.201 -19.395 -20.102  0.00  0.00    +0.085 C 
ATOM     18  C   UNL     1      34.260 -21.336 -19.172  0.00  0.00    +0.110 C 
ATOM     19  C   UNL     1      36.017 -21.951 -17.885  0.00  0.00    +0.141 C 
ATOM     20  H   UNL     1      37.485 -22.677 -16.592  0.00  0.00    +0.155 HD
ATOM     21  H   UNL     1      35.958 -23.411 -16.394  0.00  0.00    +0.155 HD
ENDBRANCH   3  12
BRANCH   2  22
ATOM     22  C   UNL     1      33.794 -14.166 -23.126  0.00  0.00    +0.058 C 
ATOM     23  C   UNL     1      33.049 -13.771 -22.016  0.00  0.00    +0.019 C 
ATOM     24  C   UNL     1      34.267 -13.210 -24.025  0.00  0.00    +0.015 C 
ATOM     25  C   UNL     1      32.777 -12.421 -21.803  0.00  0.00    +0.073 C 
ATOM     26  C   UNL     1      33.995 -11.858 -23.812  0.00  0.00    +0.001 C 
ATOM     27  C   UNL     1      33.249 -11.463 -22.701  0.00  0.00    +0.004 C 
BRANCH  25  31
ATOM     28  F   UNL     1      32.361 -10.792 -20.100  0.00  0.00    -0.166 F 
ATOM     29  F   UNL     1      30.644 -11.867 -20.874  0.00  0.00    -0.166 F 
ATOM     30  F   UNL     1      32.066 -12.884 -19.582  0.00  0.00    -0.166 F 
ATOM     31  C   UNL     1      31.979 -11.997 -20.616  0.00  0.00    +0.419 C 
ENDBRANCH  25  31
ENDBRANCH   2  22
TORSDOF 3
ENDMDL
MODEL 3
REMARK VINA RESULT:     -11.0      6.219     10.555
REMARK  Name = 24812719
REMARK  3 active torsions:
REMARK  status: ('A' for Active; 'I' for Inactive)
REMARK    1  A    between atoms: N_2  and  C_22
REMARK    2  A    between atoms: C_3  and  C_12
REMARK    3  A    between atoms: C_25  and  C_31
REMARK                            x       y       z     vdW  Elec       q    Type
REMARK                         _______ _______ _______ _____ _____    ______ ____
ROOT
ATOM      1  O   UNL     1      34.638 -10.473 -23.965  0.00  0.00    -0.269 OA
ATOM      2  N   UNL     1      33.204  -8.886 -22.978  0.00  0.00    -0.233 N 
ATOM      3  C   UNL     1      32.955 -11.337 -22.562  0.00  0.00    +0.046 C 
ATOM      4  C   UNL     1      31.967 -11.081 -21.681  0.00  0.00    -0.016 C 
ATOM      5  C   UNL     1      33.673 -10.195 -23.251  0.00  0.00    +0.256 C 
ATOM      6  C   UNL     1      32.188  -8.699 -22.048  0.00  0.00    +0.072 C 
ATOM      7  C   UNL     1      31.590  -9.712 -21.416  0.00  0.00    +0.012 C 
ATOM      8  C   UNL     1      31.170 -12.104 -20.916  0.00  0.00    +0.031 C 
ENDROOT
BRANCH   3  12
ATOM      9  N   UNL     1      34.569 -16.610 -23.761  0.00  0.00    -0.342 NA
ATOM     10  N   UNL     1      35.337 -16.925 -21.499  0.00  0.00    -0.170 NA
ATOM     11  N   UNL     1      35.519 -18.645 -23.079  0.00  0.00    -0.293 N 
ATOM     12  C   UNL     1      33.380 -12.716 -22.868  0.00  0.00    -0.017 C 
ATOM     13  C   UNL     1      33.958 -13.507 -21.881  0.00  0.00    +0.056 C 
ATOM     14  C   UNL     1      33.204 -13.234 -24.147  0.00  0.00    -0.022 C 
ATOM     15  C   UNL     1      34.359 -14.821 -22.178  0.00  0.00    +0.029 C 
ATOM     16  C   UNL     1      34.188 -15.355 -23.466  0.00  0.00    +0.124 C 
ATOM     17  C   UNL     1      33.607 -14.541 -24.435  0.00  0.00    +0.085 C 
ATOM     18  C   UNL     1      34.944 -15.664 -21.236  0.00  0.00    +0.110 C 
ATOM     19  C   UNL     1      35.123 -17.326 -22.761  0.00  0.00    +0.141 C 
ATOM     20  H   UNL     1      35.386 -18.992 -23.990  0.00  0.00    +0.155 HD
ATOM     21  H   UNL     1      35.929 -19.215 -22.389  0.00  0.00    +0.155 HD
ENDBRANCH   3  12
BRANCH   2  22
ATOM     22  C   UNL     1      33.804  -7.748 -23.648  0.00  0.00    +0.058 C 
ATOM     23  C   UNL     1      33.069  -7.024 -24.586  0.00  0.00    +0.019 C 
ATOM     24  C   UNL     1      35.117  -7.380 -23.356  0.00  0.00    +0.015 C 
ATOM     25  C   UNL     1      33.646  -5.931 -25.231  0.00  0.00    +0.073 C 
ATOM     26  C   UNL     1      35.694  -6.285 -24.000  0.00  0.00    +0.001 C 
ATOM     27  C   UNL     1      34.959  -5.561 -24.939  0.00  0.00    +0.004 C 
BRANCH  25  31
ATOM     28  F   UNL     1      31.559  -4.952 -25.874  0.00  0.00    -0.166 F 
ATOM     29  F   UNL     1      33.362  -3.909 -26.478  0.00  0.00    -0.166 F 
ATOM     30  F   UNL     1      32.811  -5.773 -27.452  0.00  0.00    -0.166 F 
ATOM     31  C   UNL     1      32.860  -5.156 -26.235  0.00  0.00    +0.419 C 
ENDBRANCH  25  31
ENDBRANCH   2  22
TORSDOF 3
ENDMDL
MODEL 4
REMARK VINA RESULT:     -10.9      2.832      5.050
REMARK  Name = 24812719
REMARK  3 active torsions:
REMARK  status: ('A' for Active; 'I' for Inactive)
REMARK    1  A    between atoms: N_2  and  C_22
REMARK    2  A    between atoms: C_3  and  C_12
REMARK    3  A    between atoms: C_25  and  C_31
REMARK                            x       y       z     vdW  Elec       q    Type
REMARK                         _______ _______ _______ _____ _____    ______ ____
ROOT
ATOM      1  O   UNL     1      33.378 -12.046 -24.048  0.00  0.00    -0.269 OA
ATOM      2  N   UNL     1      33.135 -13.479 -22.195  0.00  0.00    -0.233 N 
ATOM      3  C   UNL     1      32.520 -11.060 -22.088  0.00  0.00    +0.046 C 
ATOM      4  C   UNL     1      32.060 -11.239 -20.833  0.00  0.00    -0.016 C 
ATOM      5  C   UNL     1      33.068 -12.236 -22.870  0.00  0.00    +0.256 C 
ATOM      6  C   UNL     1      32.630 -13.589 -20.904  0.00  0.00    +0.072 C 
ATOM      7  C   UNL     1      32.111 -12.554 -20.239  0.00  0.00    +0.012 C 
ATOM      8  C   UNL     1      31.483 -10.175 -19.938  0.00  0.00    +0.031 C 
ENDROOT
BRANCH   3  12
ATOM      9  N   UNL     1      32.380  -6.006 -24.595  0.00  0.00    -0.342 NA
ATOM     10  N   UNL     1      34.781  -5.846 -24.479  0.00  0.00    -0.170 NA
ATOM     11  N   UNL     1      33.508  -4.126 -25.433  0.00  0.00    -0.293 N 
ATOM     12  C   UNL     1      32.490  -9.738 -22.742  0.00  0.00    -0.017 C 
ATOM     13  C   UNL     1      33.675  -9.050 -22.986  0.00  0.00    +0.056 C 
ATOM     14  C   UNL     1      31.278  -9.172 -23.120  0.00  0.00    -0.022 C 
ATOM     15  C   UNL     1      33.641  -7.792 -23.611  0.00  0.00    +0.029 C 
ATOM     16  C   UNL     1      32.423  -7.209 -23.997  0.00  0.00    +0.124 C 
ATOM     17  C   UNL     1      31.253  -7.919 -23.741  0.00  0.00    +0.085 C 
ATOM     18  C   UNL     1      34.789  -7.052 -23.882  0.00  0.00    +0.110 C 
ATOM     19  C   UNL     1      33.561  -5.390 -24.803  0.00  0.00    +0.141 C 
ATOM     20  H   UNL     1      32.639  -3.743 -25.693  0.00  0.00    +0.155 HD
ATOM     21  H   UNL     1      34.339  -3.630 -25.612  0.00  0.00    +0.155 HD
ENDBRANCH   3  12
BRANCH   2  22
ATOM     22  C   UNL     1      33.705 -14.635 -22.861  0.00  0.00    +0.058 C 
ATOM     23  C   UNL     1      34.346 -15.623 -22.116  0.00  0.00    +0.019 C 
ATOM     24  C   UNL     1      33.612 -14.756 -24.247  0.00  0.00    +0.015 C 
ATOM     25  C   UNL     1      34.894 -16.734 -22.756  0.00  0.00    +0.073 C 
ATOM     26  C   UNL     1      34.161 -15.868 -24.888  0.00  0.00    +0.001 C 
ATOM     27  C   UNL     1      34.802 -16.857 -24.142  0.00  0.00    +0.004 C 
BRANCH  25  31
ATOM     28  F   UNL     1      36.720 -18.266 -22.546  0.00  0.00    -0.166 F 
ATOM     29  F   UNL     1      35.968 -17.376 -20.717  0.00  0.00    -0.166 F 
ATOM     30  F   UNL     1      34.794 -18.886 -21.749  0.00  0.00    -0.166 F 
ATOM     31  C   UNL     1      35.581 -17.792 -21.959  0.00  0.00    +0.419 C 
ENDBRANCH  25  31
ENDBRANCH   2  22
TORSDOF 3
ENDMDL
MODEL 5
REMARK VINA RESULT:     -10.8      6.473     10.635
REMARK  Name = 24812719
REMARK  3 active torsions:
REMARK  status: ('A' for Active; 'I' for Inactive)
REMARK    1  A    between atoms: N_2  and  C_22
REMARK    2  A    between atoms: C_3  and  C_12
REMARK    3  A    between atoms: C_25  and  C_31
REMARK                            x       y       z     vdW  Elec       q    Type
REMARK                         _______ _______ _______ _____ _____    ______ ____
ROOT
ATOM      1  O   UNL     1      34.685 -10.252 -23.860  0.00  0.00    -0.269 OA
ATOM      2  N   UNL     1      33.115  -8.617 -23.222  0.00  0.00    -0.233 N 
ATOM      3  C   UNL     1      32.849 -11.023 -22.603  0.00  0.00    +0.046 C 
ATOM      4  C   UNL     1      31.752 -10.710 -21.884  0.00  0.00    -0.016 C 
ATOM      5  C   UNL     1      33.633  -9.932 -23.305  0.00  0.00    +0.256 C 
ATOM      6  C   UNL     1      31.985  -8.369 -22.450  0.00  0.00    +0.072 C 
ATOM      7  C   UNL     1      31.325  -9.333 -21.803  0.00  0.00    +0.012 C 
ATOM      8  C   UNL     1      30.878 -11.677 -21.130  0.00  0.00    +0.031 C 
ENDROOT
BRANCH   3  12
ATOM      9  N   UNL     1      34.697 -16.339 -23.019  0.00  0.00    -0.342 NA
ATOM     10  N   UNL     1      33.786 -16.516 -25.242  0.00  0.00    -0.170 NA
ATOM     11  N   UNL     1      34.911 -18.320 -24.258  0.00  0.00    -0.293 N 
ATOM     12  C   UNL     1      33.328 -12.413 -22.718  0.00  0.00    -0.017 C 
ATOM     13  C   UNL     1      33.095 -13.141 -23.881  0.00  0.00    +0.056 C 
ATOM     14  C   UNL     1      34.018 -13.005 -21.666  0.00  0.00    -0.022 C 
ATOM     15  C   UNL     1      33.556 -14.465 -23.986  0.00  0.00    +0.029 C 
ATOM     16  C   UNL     1      34.253 -15.073 -22.929  0.00  0.00    +0.124 C 
ATOM     17  C   UNL     1      34.472 -14.322 -21.778  0.00  0.00    +0.085 C 
ATOM     18  C   UNL     1      33.355 -15.247 -25.120  0.00  0.00    +0.110 C 
ATOM     19  C   UNL     1      34.440 -16.991 -24.171  0.00  0.00    +0.141 C 
ATOM     20  H   UNL     1      35.397 -18.720 -23.502  0.00  0.00    +0.155 HD
ATOM     21  H   UNL     1      34.753 -18.845 -25.075  0.00  0.00    +0.155 HD
ENDBRANCH   3  12
BRANCH   2  22
ATOM     22  C   UNL     1      33.780  -7.532 -23.918  0.00  0.00    +0.058 C 
ATOM     23  C   UNL     1      33.133  -6.875 -24.965  0.00  0.00    +0.019 C 
ATOM     24  C   UNL     1      35.066  -7.148 -23.543  0.00  0.00    +0.015 C 
ATOM     25  C   UNL     1      33.772  -5.833 -25.635  0.00  0.00    +0.073 C 
ATOM     26  C   UNL     1      35.706  -6.105 -24.213  0.00  0.00    +0.001 C 
ATOM     27  C   UNL     1      35.060  -5.448 -25.260  0.00  0.00    +0.004 C 
BRANCH  25  31
ATOM     28  F   UNL     1      31.796  -4.771 -26.467  0.00  0.00    -0.166 F 
ATOM     29  F   UNL     1      33.699  -3.973 -27.137  0.00  0.00    -0.166 F 
ATOM     30  F   UNL     1      33.005  -5.894 -27.885  0.00  0.00    -0.166 F 
ATOM     31  C   UNL     1      33.082  -5.131 -26.755  0.00  0.00    +0.419 C 
ENDBRANCH  25  31
ENDBRANCH   2  22
TORSDOF 3
ENDMDL
MODEL 6
REMARK VINA RESULT:     -10.5      5.757     10.335
REMARK  Name = 24812719
REMARK  3 active torsions:
REMARK  status: ('A' for Active; 'I' for Inactive)
REMARK    1  A    between atoms: N_2  and  C_22
REMARK    2  A    between atoms: C_3  and  C_12
REMARK    3  A    between atoms: C_25  and  C_31
REMARK                            x       y       z     vdW  Elec       q    Type
REMARK                         _______ _______ _______ _____ _____    ______ ____
ROOT
ATOM      1  O   UNL     1      33.540 -10.649 -23.877  0.00  0.00    -0.269 OA
ATOM      2  N   UNL     1      32.191  -9.264 -22.533  0.00  0.00    -0.233 N 
ATOM      3  C   UNL     1      32.652 -11.646 -21.937  0.00  0.00    +0.046 C 
ATOM      4  C   UNL     1      31.976 -11.481 -20.781  0.00  0.00    -0.016 C 
ATOM      5  C   UNL     1      32.826 -10.479 -22.887  0.00  0.00    +0.256 C 
ATOM      6  C   UNL     1      31.521  -9.166 -21.318  0.00  0.00    +0.072 C 
ATOM      7  C   UNL     1      31.409 -10.190 -20.469  0.00  0.00    +0.012 C 
ATOM      8  C   UNL     1      31.727 -12.539 -19.739  0.00  0.00    +0.031 C 
ENDROOT
BRANCH   3  12
ATOM      9  N   UNL     1      34.938 -16.603 -23.369  0.00  0.00    -0.342 NA
ATOM     10  N   UNL     1      35.480 -17.056 -21.066  0.00  0.00    -0.170 NA
ATOM     11  N   UNL     1      36.018 -18.593 -22.750  0.00  0.00    -0.293 N 
ATOM     12  C   UNL     1      33.252 -12.943 -22.304  0.00  0.00    -0.017 C 
ATOM     13  C   UNL     1      33.798 -13.765 -21.324  0.00  0.00    +0.056 C 
ATOM     14  C   UNL     1      33.274 -13.351 -23.633  0.00  0.00    -0.022 C 
ATOM     15  C   UNL     1      34.366 -15.000 -21.680  0.00  0.00    +0.029 C 
ATOM     16  C   UNL     1      34.396 -15.424 -23.018  0.00  0.00    +0.124 C 
ATOM     17  C   UNL     1      33.842 -14.581 -23.979  0.00  0.00    +0.085 C 
ATOM     18  C   UNL     1      34.929 -15.869 -20.748  0.00  0.00    +0.110 C 
ATOM     19  C   UNL     1      35.451 -17.354 -22.374  0.00  0.00    +0.141 C 
ATOM     20  H   UNL     1      36.023 -18.863 -23.696  0.00  0.00    +0.155 HD
ATOM     21  H   UNL     1      36.406 -19.184 -22.066  0.00  0.00    +0.155 HD
ENDBRANCH   3  12
BRANCH   2  22
ATOM     22  C   UNL     1      32.264  -8.122 -23.424  0.00  0.00    +0.058 C 
ATOM     23  C   UNL     1      33.503  -7.585 -23.768  0.00  0.00    +0.019 C 
ATOM     24  C   UNL     1      31.094  -7.560 -23.933  0.00  0.00    +0.015 C 
ATOM     25  C   UNL     1      33.574  -6.486 -24.624  0.00  0.00    +0.073 C 
ATOM     26  C   UNL     1      31.164  -6.461 -24.790  0.00  0.00    +0.001 C 
ATOM     27  C   UNL     1      32.404  -5.923 -25.134  0.00  0.00    +0.004 C 
BRANCH  25  31
ATOM     28  F   UNL     1      35.487  -6.526 -26.061  0.00  0.00    -0.166 F 
ATOM     29  F   UNL     1      34.846  -4.587 -25.330  0.00  0.00    -0.166 F 
ATOM     30  F   UNL     1      35.808  -5.991 -23.977  0.00  0.00    -0.166 F 
ATOM     31  C   UNL     1      34.899  -5.910 -24.992  0.00  0.00    +0.419 C 
ENDBRANCH  25  31
ENDBRANCH   2  22
TORSDOF 3
ENDMDL
MODEL 7
REMARK VINA RESULT:     -10.2      3.447      5.669
REMARK  Name = 24812719
REMARK  3 active torsions:
REMARK  status: ('A' for Active; 'I' for Inactive)
REMARK    1  A    between atoms: N_2  and  C_22
REMARK    2  A    between atoms: C_3  and  C_12
REMARK    3  A    between atoms: C_25  and  C_31
REMARK                            x       y       z     vdW  Elec       q    Type
REMARK                         _______ _______ _______ _____ _____    ______ ____
ROOT
ATOM      1  O   UNL     1      33.621 -19.937 -20.360  0.00  0.00    -0.269 OA
ATOM      2  N   UNL     1      35.437 -20.909 -19.218  0.00  0.00    -0.233 N 
ATOM      3  C   UNL     1      35.764 -19.325 -21.122  0.00  0.00    +0.046 C 
ATOM      4  C   UNL     1      37.098 -19.375 -20.926  0.00  0.00    -0.016 C 
ATOM      5  C   UNL     1      34.833 -20.098 -20.209  0.00  0.00    +0.256 C 
ATOM      6  C   UNL     1      36.819 -20.900 -19.068  0.00  0.00    +0.072 C 
ATOM      7  C   UNL     1      37.627 -20.183 -19.853  0.00  0.00    +0.012 C 
ATOM      8  C   UNL     1      38.143 -18.660 -21.741  0.00  0.00    +0.031 C 
ENDROOT
BRANCH   3  12
ATOM      9  N   UNL     1      33.491 -16.250 -25.273  0.00  0.00    -0.342 NA
ATOM     10  N   UNL     1      33.878 -14.224 -24.028  0.00  0.00    -0.170 NA
ATOM     11  N   UNL     1      32.872 -14.161 -26.143  0.00  0.00    -0.293 N 
ATOM     12  C   UNL     1      35.170 -18.515 -22.203  0.00  0.00    -0.017 C 
ATOM     13  C   UNL     1      35.091 -17.131 -22.079  0.00  0.00    +0.056 C 
ATOM     14  C   UNL     1      34.687 -19.130 -23.352  0.00  0.00    -0.022 C 
ATOM     15  C   UNL     1      34.526 -16.365 -23.113  0.00  0.00    +0.029 C 
ATOM     16  C   UNL     1      34.034 -16.974 -24.278  0.00  0.00    +0.124 C 
ATOM     17  C   UNL     1      34.126 -18.361 -24.375  0.00  0.00    +0.085 C 
ATOM     18  C   UNL     1      34.417 -14.978 -23.052  0.00  0.00    +0.110 C 
ATOM     19  C   UNL     1      33.443 -14.915 -25.093  0.00  0.00    +0.141 C 
ATOM     20  H   UNL     1      32.536 -14.616 -26.948  0.00  0.00    +0.155 HD
ATOM     21  H   UNL     1      32.811 -13.181 -26.068  0.00  0.00    +0.155 HD
ENDBRANCH   3  12
BRANCH   2  22
ATOM     22  C   UNL     1      34.610 -21.724 -18.348  0.00  0.00    +0.058 C 
ATOM     23  C   UNL     1      35.161 -22.305 -17.207  0.00  0.00    +0.019 C 
ATOM     24  C   UNL     1      33.265 -21.927 -18.654  0.00  0.00    +0.015 C 
ATOM     25  C   UNL     1      34.367 -23.089 -16.371  0.00  0.00    +0.073 C 
ATOM     26  C   UNL     1      32.470 -22.711 -17.818  0.00  0.00    +0.001 C 
ATOM     27  C   UNL     1      33.021 -23.293 -16.676  0.00  0.00    +0.004 C 
BRANCH  25  31
ATOM     28  F   UNL     1      36.151 -24.335 -15.375  0.00  0.00    -0.166 F 
ATOM     29  F   UNL     1      35.203 -22.821 -14.146  0.00  0.00    -0.166 F 
ATOM     30  F   UNL     1      34.144 -24.664 -14.603  0.00  0.00    -0.166 F 
ATOM     31  C   UNL     1      34.956 -23.713 -15.150  0.00  0.00    +0.419 C 
ENDBRANCH  25  31
ENDBRANCH   2  22
TORSDOF 3
ENDMDL
MODEL 8
REMARK VINA RESULT:     -10.1      3.770      6.020
REMARK  Name = 24812719
REMARK  3 active torsions:
REMARK  status: ('A' for Active; 'I' for Inactive)
REMARK    1  A    between atoms: N_2  and  C_22
REMARK    2  A    between atoms: C_3  and  C_12
REMARK    3  A    between atoms: C_25  and  C_31
REMARK                            x       y       z     vdW  Elec       q    Type
REMARK                         _______ _______ _______ _____ _____    ______ ____
ROOT
ATOM      1  O   UNL     1      33.074 -11.613 -23.120  0.00  0.00    -0.269 OA
ATOM      2  N   UNL     1      32.977 -12.649 -21.007  0.00  0.00    -0.233 N 
ATOM      3  C   UNL     1      32.184 -10.308 -21.372  0.00  0.00    +0.046 C 
ATOM      4  C   UNL     1      31.763 -10.258 -20.092  0.00  0.00    -0.016 C 
ATOM      5  C   UNL     1      32.803 -11.579 -21.918  0.00  0.00    +0.256 C 
ATOM      6  C   UNL     1      32.507 -12.528 -19.704  0.00  0.00    +0.072 C 
ATOM      7  C   UNL     1      31.925 -11.417 -19.246  0.00  0.00    +0.012 C 
ATOM      8  C   UNL     1      31.126  -9.075 -19.412  0.00  0.00    +0.031 C 
ENDROOT
BRANCH   3  12
ATOM      9  N   UNL     1      31.617  -5.899 -24.850  0.00  0.00    -0.342 NA
ATOM     10  N   UNL     1      33.933  -5.313 -24.536  0.00  0.00    -0.170 NA
ATOM     11  N   UNL     1      32.551  -4.041 -25.937  0.00  0.00    -0.293 N 
ATOM     12  C   UNL     1      32.043  -9.154 -22.280  0.00  0.00    -0.017 C 
ATOM     13  C   UNL     1      33.133  -8.330 -22.541  0.00  0.00    +0.056 C 
ATOM     14  C   UNL     1      30.818  -8.882 -22.880  0.00  0.00    -0.022 C 
ATOM     15  C   UNL     1      32.993  -7.233 -23.407  0.00  0.00    +0.029 C 
ATOM     16  C   UNL     1      31.762  -6.947 -24.020  0.00  0.00    +0.124 C 
ATOM     17  C   UNL     1      30.687  -7.788 -23.740  0.00  0.00    +0.085 C 
ATOM     18  C   UNL     1      34.044  -6.370 -23.710  0.00  0.00    +0.110 C 
ATOM     19  C   UNL     1      32.710  -5.140 -25.062  0.00  0.00    +0.141 C 
ATOM     20  H   UNL     1      31.676  -3.867 -26.352  0.00  0.00    +0.155 HD
ATOM     21  H   UNL     1      33.315  -3.452 -26.130  0.00  0.00    +0.155 HD
ENDBRANCH   3  12
BRANCH   2  22
ATOM     22  C   UNL     1      33.618 -13.875 -21.444  0.00  0.00    +0.058 C 
ATOM     23  C   UNL     1      33.582 -14.240 -22.789  0.00  0.00    +0.019 C 
ATOM     24  C   UNL     1      34.269 -14.689 -20.517  0.00  0.00    +0.015 C 
ATOM     25  C   UNL     1      34.197 -15.419 -23.208  0.00  0.00    +0.073 C 
ATOM     26  C   UNL     1      34.885 -15.868 -20.937  0.00  0.00    +0.001 C 
ATOM     27  C   UNL     1      34.848 -16.234 -22.282  0.00  0.00    +0.004 C 
BRANCH  25  31
ATOM     28  F   UNL     1      35.319 -16.373 -25.094  0.00  0.00    -0.166 F 
ATOM     29  F   UNL     1      33.185 -16.726 -24.937  0.00  0.00    -0.166 F 
ATOM     30  F   UNL     1      33.921 -14.751 -25.474  0.00  0.00    -0.166 F 
ATOM     31  C   UNL     1      34.157 -15.811 -24.647  0.00  0.00    +0.419 C 
ENDBRANCH  25  31
ENDBRANCH   2  22
TORSDOF 3
ENDMDL
MODEL 9
REMARK VINA RESULT:     -10.1      5.997      9.348
REMARK  Name = 24812719
REMARK  3 active torsions:
REMARK  status: ('A' for Active; 'I' for Inactive)
REMARK    1  A    between atoms: N_2  and  C_22
REMARK    2  A    between atoms: C_3  and  C_12
REMARK    3  A    between atoms: C_25  and  C_31
REMARK                            x       y       z     vdW  Elec       q    Type
REMARK                         _______ _______ _______ _____ _____    ______ ____
ROOT
ATOM      1  O   UNL     1      33.390  -8.496 -22.959  0.00  0.00    -0.269 OA
ATOM      2  N   UNL     1      31.994  -7.668 -21.253  0.00  0.00    -0.233 N 
ATOM      3  C   UNL     1      32.811  -6.218 -23.116  0.00  0.00    +0.046 C 
ATOM      4  C   UNL     1      32.065  -5.199 -22.642  0.00  0.00    -0.016 C 
ATOM      5  C   UNL     1      32.776  -7.568 -22.429  0.00  0.00    +0.256 C 
ATOM      6  C   UNL     1      31.240  -6.578 -20.832  0.00  0.00    +0.072 C 
ATOM      7  C   UNL     1      31.248  -5.404 -21.469  0.00  0.00    +0.012 C 
ATOM      8  C   UNL     1      31.990  -3.810 -23.217  0.00  0.00    +0.031 C 
ENDROOT
BRANCH   3  12
ATOM      9  N   UNL     1      36.090  -5.622 -27.670  0.00  0.00    -0.342 NA
ATOM     10  N   UNL     1      34.165  -5.744 -29.112  0.00  0.00    -0.170 NA
ATOM     11  N   UNL     1      36.315  -5.468 -30.000  0.00  0.00    -0.293 N 
ATOM     12  C   UNL     1      33.663  -6.063 -24.310  0.00  0.00    -0.017 C 
ATOM     13  C   UNL     1      33.093  -6.052 -25.580  0.00  0.00    +0.056 C 
ATOM     14  C   UNL     1      35.040  -5.926 -24.175  0.00  0.00    -0.022 C 
ATOM     15  C   UNL     1      33.909  -5.903 -26.714  0.00  0.00    +0.029 C 
ATOM     16  C   UNL     1      35.301  -5.764 -26.591  0.00  0.00    +0.124 C 
ATOM     17  C   UNL     1      35.844  -5.779 -25.308  0.00  0.00    +0.085 C 
ATOM     18  C   UNL     1      33.403  -5.885 -28.011  0.00  0.00    +0.110 C 
ATOM     19  C   UNL     1      35.479  -5.619 -28.871  0.00  0.00    +0.141 C 
ATOM     20  H   UNL     1      37.287  -5.372 -29.883  0.00  0.00    +0.155 HD
ATOM     21  H   UNL     1      35.924  -5.458 -30.904  0.00  0.00    +0.155 HD
ENDBRANCH   3  12
BRANCH   2  22
ATOM     22  C   UNL     1      31.960  -8.913 -20.509  0.00  0.00    +0.058 C 
ATOM     23  C   UNL     1      32.028 -10.131 -21.184  0.00  0.00    +0.019 C 
ATOM     24  C   UNL     1      31.857  -8.891 -19.118  0.00  0.00    +0.015 C 
ATOM     25  C   UNL     1      31.995 -11.327 -20.469  0.00  0.00    +0.073 C 
ATOM     26  C   UNL     1      31.824 -10.088 -18.403  0.00  0.00    +0.001 C 
ATOM     27  C   UNL     1      31.892 -11.307 -19.078  0.00  0.00    +0.004 C 
BRANCH  25  31
ATOM     28  F   UNL     1      31.584 -13.685 -20.468  0.00  0.00    -0.166 F 
ATOM     29  F   UNL     1      31.359 -12.648 -22.360  0.00  0.00    -0.166 F 
ATOM     30  F   UNL     1      33.343 -12.973 -21.531  0.00  0.00    -0.166 F 
ATOM     31  C   UNL     1      32.066 -12.631 -21.191  0.00  0.00    +0.419 C 
ENDBRANCH  25  31
ENDBRANCH   2  22
TORSDOF 3
ENDMDL
