MODEL 1
REMARK VINA RESULT:     -12.1      0.000      0.000
REMARK  Name = 17758361
REMARK  5 active torsions:
REMARK  status: ('A' for Active; 'I' for Inactive)
REMARK    1  A    between atoms: N_1  and  C_18
REMARK    2  A    between atoms: C_4  and  C_10
REMARK    3  A    between atoms: C_10  and  C_11
REMARK    4  A    between atoms: C_18  and  C_19
REMARK    5  A    between atoms: C_22  and  C_27
REMARK                            x       y       z     vdW  Elec       q    Type
REMARK                         _______ _______ _______ _____ _____    ______ ____
ROOT
ATOM      1  N   UNL     1      32.589 -22.438 -17.945  0.00  0.00    -0.314 N 
ATOM      2  N   UNL     1      30.670 -22.424 -16.582  0.00  0.00    -0.229 NA
ATOM      3  C   UNL     1      31.967 -22.765 -16.752  0.00  0.00    +0.129 C 
ATOM      4  C   UNL     1      32.116 -23.757 -14.597  0.00  0.00    +0.043 C 
ATOM      5  C   UNL     1      32.727 -23.425 -15.800  0.00  0.00    +0.037 C 
ATOM      6  C   UNL     1      30.782 -23.425 -14.385  0.00  0.00    +0.024 C 
ATOM      7  C   UNL     1      30.109 -22.764 -15.400  0.00  0.00    +0.100 C 
ATOM      8  H   UNL     1      32.061 -21.969 -18.631  0.00  0.00    +0.149 HD
ENDROOT
BRANCH   4  10
ATOM      9  O   UNL     1      32.278 -25.117 -12.700  0.00  0.00    -0.287 OA
ATOM     10  C   UNL     1      32.868 -24.450 -13.562  0.00  0.00    +0.196 C 
BRANCH  10  11
ATOM     11  C   UNL     1      34.359 -24.396 -13.484  0.00  0.00    +0.039 C 
ATOM     12  C   UNL     1      34.979 -23.722 -12.431  0.00  0.00    -0.001 C 
ATOM     13  C   UNL     1      36.371 -23.672 -12.358  0.00  0.00    -0.022 C 
ATOM     14  C   UNL     1      35.131 -25.021 -14.462  0.00  0.00    +0.003 C 
ATOM     15  C   UNL     1      37.143 -24.297 -13.337  0.00  0.00    -0.004 C 
ATOM     16  C   UNL     1      36.524 -24.972 -14.388  0.00  0.00    -0.000 C 
ATOM     17  C   UNL     1      37.034 -22.954 -11.232  0.00  0.00    +0.031 C 
ENDBRANCH  10  11
ENDBRANCH   4  10
BRANCH   1  18
ATOM     18  C   UNL     1      33.971 -22.748 -18.239  0.00  0.00    +0.115 C 
BRANCH  18  19
ATOM     19  C   UNL     1      34.601 -21.665 -19.048  0.00  0.00    -0.003 C 
ATOM     20  C   UNL     1      35.985 -21.494 -19.026  0.00  0.00    -0.003 C 
ATOM     21  C   UNL     1      33.806 -20.823 -19.827  0.00  0.00    -0.003 C 
ATOM     22  C   UNL     1      35.781 -19.639 -20.559  0.00  0.00    +0.031 C 
ATOM     23  C   UNL     1      36.574 -20.481 -19.781  0.00  0.00    +0.002 C 
ATOM     24  C   UNL     1      34.396 -19.810 -20.582  0.00  0.00    +0.002 C 
BRANCH  22  27
ATOM     25  N   UNL     1      35.626 -17.645 -22.031  0.00  0.00    -0.343 N 
ATOM     26  N   UNL     1      37.713 -18.504 -21.426  0.00  0.00    -0.285 NA
ATOM     27  C   UNL     1      36.396 -18.583 -21.347  0.00  0.00    +0.117 C 
ATOM     28  H   UNL     1      36.064 -16.938 -22.558  0.00  0.00    +0.144 HD
ATOM     29  H   UNL     1      34.643 -17.689 -21.987  0.00  0.00    +0.144 HD
ATOM     30  H   UNL     1      38.132 -17.790 -21.958  0.00  0.00    +0.188 HD
ENDBRANCH  22  27
ENDBRANCH  18  19
ENDBRANCH   1  18
TORSDOF 5
ENDMDL
MODEL 2
REMARK VINA RESULT:     -11.7      1.705      4.268
REMARK  Name = 17758361
REMARK  5 active torsions:
REMARK  status: ('A' for Active; 'I' for Inactive)
REMARK    1  A    between atoms: N_1  and  C_18
REMARK    2  A    between atoms: C_4  and  C_10
REMARK    3  A    between atoms: C_10  and  C_11
REMARK    4  A    between atoms: C_18  and  C_19
REMARK    5  A    between atoms: C_22  and  C_27
REMARK                            x       y       z     vdW  Elec       q    Type
REMARK                         _______ _______ _______ _____ _____    ______ ____
ROOT
ATOM      1  N   UNL     1      34.899 -22.854 -17.276  0.00  0.00    -0.314 N 
ATOM      2  N   UNL     1      35.953 -23.656 -15.331  0.00  0.00    -0.229 NA
ATOM      3  C   UNL     1      34.827 -23.231 -15.946  0.00  0.00    +0.129 C 
ATOM      4  C   UNL     1      33.503 -23.523 -13.992  0.00  0.00    +0.043 C 
ATOM      5  C   UNL     1      33.590 -23.146 -15.328  0.00  0.00    +0.037 C 
ATOM      6  C   UNL     1      34.640 -23.966 -13.325  0.00  0.00    +0.024 C 
ATOM      7  C   UNL     1      35.830 -24.014 -14.033  0.00  0.00    +0.100 C 
ATOM      8  H   UNL     1      35.772 -22.908 -17.728  0.00  0.00    +0.149 HD
ENDROOT
BRANCH   4  10
ATOM      9  O   UNL     1      32.168 -22.994 -12.146  0.00  0.00    -0.287 OA
ATOM     10  C   UNL     1      32.229 -23.455 -13.295  0.00  0.00    +0.196 C 
BRANCH  10  11
ATOM     11  C   UNL     1      30.952 -23.927 -13.912  0.00  0.00    +0.039 C 
ATOM     12  C   UNL     1      30.072 -23.007 -14.485  0.00  0.00    -0.001 C 
ATOM     13  C   UNL     1      28.882 -23.447 -15.062  0.00  0.00    -0.022 C 
ATOM     14  C   UNL     1      30.641 -25.286 -13.918  0.00  0.00    +0.003 C 
ATOM     15  C   UNL     1      28.570 -24.808 -15.067  0.00  0.00    -0.004 C 
ATOM     16  C   UNL     1      29.450 -25.726 -14.496  0.00  0.00    -0.000 C 
ATOM     17  C   UNL     1      27.942 -22.466 -15.676  0.00  0.00    +0.031 C 
ENDBRANCH  10  11
ENDBRANCH   4  10
BRANCH   1  18
ATOM     18  C   UNL     1      33.762 -22.384 -18.037  0.00  0.00    +0.115 C 
BRANCH  18  19
ATOM     19  C   UNL     1      34.191 -21.445 -19.114  0.00  0.00    -0.003 C 
ATOM     20  C   UNL     1      35.548 -21.249 -19.367  0.00  0.00    -0.003 C 
ATOM     21  C   UNL     1      33.235 -20.761 -19.866  0.00  0.00    -0.003 C 
ATOM     22  C   UNL     1      34.995 -19.687 -21.124  0.00  0.00    +0.031 C 
ATOM     23  C   UNL     1      35.950 -20.370 -20.372  0.00  0.00    +0.002 C 
ATOM     24  C   UNL     1      33.637 -19.883 -20.871  0.00  0.00    +0.002 C 
BRANCH  22  27
ATOM     25  N   UNL     1      34.666 -18.607 -23.336  0.00  0.00    -0.343 N 
ATOM     26  N   UNL     1      36.529 -18.075 -22.030  0.00  0.00    -0.285 NA
ATOM     27  C   UNL     1      35.415 -18.770 -22.172  0.00  0.00    +0.117 C 
ATOM     28  H   UNL     1      34.968 -17.980 -24.033  0.00  0.00    +0.144 HD
ATOM     29  H   UNL     1      33.833 -19.118 -23.462  0.00  0.00    +0.144 HD
ATOM     30  H   UNL     1      36.816 -17.454 -22.738  0.00  0.00    +0.188 HD
ENDBRANCH  22  27
ENDBRANCH  18  19
ENDBRANCH   1  18
TORSDOF 5
ENDMDL
MODEL 3
REMARK VINA RESULT:     -11.5      5.424      8.981
REMARK  Name = 17758361
REMARK  5 active torsions:
REMARK  status: ('A' for Active; 'I' for Inactive)
REMARK    1  A    between atoms: N_1  and  C_18
REMARK    2  A    between atoms: C_4  and  C_10
REMARK    3  A    between atoms: C_10  and  C_11
REMARK    4  A    between atoms: C_18  and  C_19
REMARK    5  A    between atoms: C_22  and  C_27
REMARK                            x       y       z     vdW  Elec       q    Type
REMARK                         _______ _______ _______ _____ _____    ______ ____
ROOT
ATOM      1  N   UNL     1      34.500 -15.674 -24.061  0.00  0.00    -0.314 N 
ATOM      2  N   UNL     1      34.065 -17.913 -24.643  0.00  0.00    -0.229 NA
ATOM      3  C   UNL     1      34.616 -17.026 -23.785  0.00  0.00    +0.129 C 
ATOM      4  C   UNL     1      35.420 -18.736 -22.341  0.00  0.00    +0.043 C 
ATOM      5  C   UNL     1      35.297 -17.382 -22.631  0.00  0.00    +0.037 C 
ATOM      6  C   UNL     1      34.867 -19.679 -23.200  0.00  0.00    +0.024 C 
ATOM      7  C   UNL     1      34.205 -19.220 -24.328  0.00  0.00    +0.100 C 
ATOM      8  H   UNL     1      34.019 -15.406 -24.877  0.00  0.00    +0.149 HD
ENDROOT
BRANCH   4  10
ATOM      9  O   UNL     1      37.255 -18.724 -20.890  0.00  0.00    -0.287 OA
ATOM     10  C   UNL     1      36.125 -19.165 -21.143  0.00  0.00    +0.196 C 
BRANCH  10  11
ATOM     11  C   UNL     1      35.536 -20.140 -20.175  0.00  0.00    +0.039 C 
ATOM     12  C   UNL     1      36.338 -20.712 -19.186  0.00  0.00    -0.001 C 
ATOM     13  C   UNL     1      35.789 -21.620 -18.282  0.00  0.00    -0.022 C 
ATOM     14  C   UNL     1      34.186 -20.476 -20.259  0.00  0.00    +0.003 C 
ATOM     15  C   UNL     1      34.437 -21.957 -18.366  0.00  0.00    -0.004 C 
ATOM     16  C   UNL     1      33.636 -21.385 -19.354  0.00  0.00    -0.000 C 
ATOM     17  C   UNL     1      36.644 -22.230 -17.224  0.00  0.00    +0.031 C 
ENDBRANCH  10  11
ENDBRANCH   4  10
BRANCH   1  18
ATOM     18  C   UNL     1      35.046 -14.635 -23.216  0.00  0.00    +0.115 C 
BRANCH  18  19
ATOM     19  C   UNL     1      33.996 -13.642 -22.844  0.00  0.00    -0.003 C 
ATOM     20  C   UNL     1      33.875 -12.453 -23.565  0.00  0.00    -0.003 C 
ATOM     21  C   UNL     1      33.137 -13.900 -21.776  0.00  0.00    -0.003 C 
ATOM     22  C   UNL     1      32.037 -11.783 -22.149  0.00  0.00    +0.031 C 
ATOM     23  C   UNL     1      32.896 -11.524 -23.217  0.00  0.00    +0.002 C 
ATOM     24  C   UNL     1      32.158 -12.971 -21.429  0.00  0.00    +0.002 C 
BRANCH  22  27
ATOM     25  N   UNL     1      30.960  -9.558 -22.391  0.00  0.00    -0.343 N 
ATOM     26  N   UNL     1      30.118 -11.116 -20.866  0.00  0.00    -0.285 NA
ATOM     27  C   UNL     1      31.015 -10.813 -21.788  0.00  0.00    +0.117 C 
ATOM     28  H   UNL     1      30.260  -8.916 -22.131  0.00  0.00    +0.144 HD
ATOM     29  H   UNL     1      31.622  -9.312 -23.077  0.00  0.00    +0.144 HD
ATOM     30  H   UNL     1      29.425 -10.461 -20.620  0.00  0.00    +0.188 HD
ENDBRANCH  22  27
ENDBRANCH  18  19
ENDBRANCH   1  18
TORSDOF 5
ENDMDL
MODEL 4
REMARK VINA RESULT:     -11.2      3.728      9.125
REMARK  Name = 17758361
REMARK  5 active torsions:
REMARK  status: ('A' for Active; 'I' for Inactive)
REMARK    1  A    between atoms: N_1  and  C_18
REMARK    2  A    between atoms: C_4  and  C_10
REMARK    3  A    between atoms: C_10  and  C_11
REMARK    4  A    between atoms: C_18  and  C_19
REMARK    5  A    between atoms: C_22  and  C_27
REMARK                            x       y       z     vdW  Elec       q    Type
REMARK                         _______ _______ _______ _____ _____    ______ ____
ROOT
ATOM      1  N   UNL     1      34.916 -22.442 -17.568  0.00  0.00    -0.314 N 
ATOM      2  N   UNL     1      33.225 -21.786 -19.069  0.00  0.00    -0.229 NA
ATOM      3  C   UNL     1      34.498 -21.658 -18.631  0.00  0.00    +0.129 C 
ATOM      4  C   UNL     1      35.018 -19.996 -20.249  0.00  0.00    +0.043 C 
ATOM      5  C   UNL     1      35.425 -20.787 -19.180  0.00  0.00    +0.037 C 
ATOM      6  C   UNL     1      33.717 -20.098 -20.728  0.00  0.00    +0.024 C 
ATOM      7  C   UNL     1      32.867 -21.001 -20.109  0.00  0.00    +0.100 C 
ATOM      8  H   UNL     1      34.268 -23.065 -17.167  0.00  0.00    +0.149 HD
ENDROOT
BRANCH   4  10
ATOM      9  O   UNL     1      37.172 -19.206 -20.707  0.00  0.00    -0.287 OA
ATOM     10  C   UNL     1      35.951 -19.064 -20.864  0.00  0.00    +0.196 C 
BRANCH  10  11
ATOM     11  C   UNL     1      35.496 -17.912 -21.700  0.00  0.00    +0.039 C 
ATOM     12  C   UNL     1      35.227 -16.680 -21.103  0.00  0.00    -0.001 C 
ATOM     13  C   UNL     1      34.804 -15.604 -21.884  0.00  0.00    -0.022 C 
ATOM     14  C   UNL     1      35.343 -18.068 -23.077  0.00  0.00    +0.003 C 
ATOM     15  C   UNL     1      34.650 -15.760 -23.262  0.00  0.00    -0.004 C 
ATOM     16  C   UNL     1      34.921 -16.992 -23.858  0.00  0.00    -0.000 C 
ATOM     17  C   UNL     1      34.518 -14.286 -21.247  0.00  0.00    +0.031 C 
ENDBRANCH  10  11
ENDBRANCH   4  10
BRANCH   1  18
ATOM     18  C   UNL     1      36.252 -22.394 -17.016  0.00  0.00    +0.115 C 
BRANCH  18  19
ATOM     19  C   UNL     1      36.269 -22.906 -15.614  0.00  0.00    -0.003 C 
ATOM     20  C   UNL     1      37.484 -23.182 -14.988  0.00  0.00    -0.003 C 
ATOM     21  C   UNL     1      35.069 -23.111 -14.931  0.00  0.00    -0.003 C 
ATOM     22  C   UNL     1      36.302 -23.867 -12.996  0.00  0.00    +0.031 C 
ATOM     23  C   UNL     1      37.501 -23.662 -13.679  0.00  0.00    +0.002 C 
ATOM     24  C   UNL     1      35.087 -23.591 -13.622  0.00  0.00    +0.002 C 
BRANCH  22  27
ATOM     25  N   UNL     1      37.421 -24.169 -10.800  0.00  0.00    -0.343 N 
ATOM     26  N   UNL     1      35.279 -25.030 -11.160  0.00  0.00    -0.285 NA
ATOM     27  C   UNL     1      36.321 -24.368 -11.631  0.00  0.00    +0.117 C 
ATOM     28  H   UNL     1      37.413 -24.516  -9.879  0.00  0.00    +0.144 HD
ATOM     29  H   UNL     1      38.208 -23.680 -11.134  0.00  0.00    +0.144 HD
ATOM     30  H   UNL     1      35.289 -25.370 -10.236  0.00  0.00    +0.188 HD
ENDBRANCH  22  27
ENDBRANCH  18  19
ENDBRANCH   1  18
TORSDOF 5
ENDMDL
MODEL 5
REMARK VINA RESULT:     -11.1      3.735      6.903
REMARK  Name = 17758361
REMARK  5 active torsions:
REMARK  status: ('A' for Active; 'I' for Inactive)
REMARK    1  A    between atoms: N_1  and  C_18
REMARK    2  A    between atoms: C_4  and  C_10
REMARK    3  A    between atoms: C_10  and  C_11
REMARK    4  A    between atoms: C_18  and  C_19
REMARK    5  A    between atoms: C_22  and  C_27
REMARK                            x       y       z     vdW  Elec       q    Type
REMARK                         _______ _______ _______ _____ _____    ______ ____
ROOT
ATOM      1  N   UNL     1      34.298 -24.049 -12.562  0.00  0.00    -0.314 N 
ATOM      2  N   UNL     1      32.216 -25.099 -12.880  0.00  0.00    -0.229 NA
ATOM      3  C   UNL     1      33.144 -24.214 -13.308  0.00  0.00    +0.129 C 
ATOM      4  C   UNL     1      31.865 -23.611 -15.220  0.00  0.00    +0.043 C 
ATOM      5  C   UNL     1      33.018 -23.453 -14.459  0.00  0.00    +0.037 C 
ATOM      6  C   UNL     1      30.887 -24.512 -14.811  0.00  0.00    +0.024 C 
ATOM      7  C   UNL     1      31.109 -25.226 -13.645  0.00  0.00    +0.100 C 
ATOM      8  H   UNL     1      34.401 -24.582 -11.741  0.00  0.00    +0.149 HD
ENDROOT
BRANCH   4  10
ATOM      9  O   UNL     1      30.547 -22.477 -16.784  0.00  0.00    -0.287 OA
ATOM     10  C   UNL     1      31.681 -22.838 -16.438  0.00  0.00    +0.196 C 
BRANCH  10  11
ATOM     11  C   UNL     1      32.824 -22.446 -17.318  0.00  0.00    +0.039 C 
ATOM     12  C   UNL     1      32.604 -21.620 -18.420  0.00  0.00    -0.001 C 
ATOM     13  C   UNL     1      33.671 -21.254 -19.241  0.00  0.00    -0.022 C 
ATOM     14  C   UNL     1      34.109 -22.905 -17.035  0.00  0.00    +0.003 C 
ATOM     15  C   UNL     1      34.958 -21.713 -18.958  0.00  0.00    -0.004 C 
ATOM     16  C   UNL     1      35.177 -22.538 -17.855  0.00  0.00    -0.000 C 
ATOM     17  C   UNL     1      33.437 -20.368 -20.418  0.00  0.00    +0.031 C 
ENDBRANCH  10  11
ENDBRANCH   4  10
BRANCH   1  18
ATOM     18  C   UNL     1      35.360 -23.134 -12.921  0.00  0.00    +0.115 C 
BRANCH  18  19
ATOM     19  C   UNL     1      36.593 -23.875 -13.314  0.00  0.00    -0.003 C 
ATOM     20  C   UNL     1      37.298 -23.499 -14.458  0.00  0.00    -0.003 C 
ATOM     21  C   UNL     1      37.041 -24.945 -12.539  0.00  0.00    -0.003 C 
ATOM     22  C   UNL     1      38.898 -25.262 -14.051  0.00  0.00    +0.031 C 
ATOM     23  C   UNL     1      38.450 -24.193 -14.826  0.00  0.00    +0.002 C 
ATOM     24  C   UNL     1      38.194 -25.638 -12.908  0.00  0.00    +0.002 C 
BRANCH  22  27
ATOM     25  N   UNL     1      40.834 -26.719 -13.507  0.00  0.00    -0.343 N 
ATOM     26  N   UNL     1      40.516 -25.947 -15.690  0.00  0.00    -0.285 NA
ATOM     27  C   UNL     1      40.100 -25.984 -14.436  0.00  0.00    +0.117 C 
ATOM     28  H   UNL     1      41.645 -27.201 -13.790  0.00  0.00    +0.144 HD
ATOM     29  H   UNL     1      40.542 -26.756 -12.567  0.00  0.00    +0.144 HD
ATOM     30  H   UNL     1      41.330 -26.436 -15.953  0.00  0.00    +0.188 HD
ENDBRANCH  22  27
ENDBRANCH  18  19
ENDBRANCH   1  18
TORSDOF 5
ENDMDL
MODEL 6
REMARK VINA RESULT:     -11.0      1.837      4.267
REMARK  Name = 17758361
REMARK  5 active torsions:
REMARK  status: ('A' for Active; 'I' for Inactive)
REMARK    1  A    between atoms: N_1  and  C_18
REMARK    2  A    between atoms: C_4  and  C_10
REMARK    3  A    between atoms: C_10  and  C_11
REMARK    4  A    between atoms: C_18  and  C_19
REMARK    5  A    between atoms: C_22  and  C_27
REMARK                            x       y       z     vdW  Elec       q    Type
REMARK                         _______ _______ _______ _____ _____    ______ ____
ROOT
ATOM      1  N   UNL     1      36.035 -22.350 -17.046  0.00  0.00    -0.314 N 
ATOM      2  N   UNL     1      37.332 -22.748 -15.122  0.00  0.00    -0.229 NA
ATOM      3  C   UNL     1      36.126 -22.778 -15.732  0.00  0.00    +0.129 C 
ATOM      4  C   UNL     1      35.037 -23.648 -13.805  0.00  0.00    +0.043 C 
ATOM      5  C   UNL     1      34.960 -23.214 -15.124  0.00  0.00    +0.037 C 
ATOM      6  C   UNL     1      36.260 -23.632 -13.144  0.00  0.00    +0.024 C 
ATOM      7  C   UNL     1      37.368 -23.177 -13.841  0.00  0.00    +0.100 C 
ATOM      8  H   UNL     1      36.856 -22.037 -17.490  0.00  0.00    +0.149 HD
ENDROOT
BRANCH   4  10
ATOM      9  O   UNL     1      33.939 -24.738 -12.051  0.00  0.00    -0.287 OA
ATOM     10  C   UNL     1      33.843 -24.117 -13.119  0.00  0.00    +0.196 C 
BRANCH  10  11
ATOM     11  C   UNL     1      32.468 -23.881 -13.654  0.00  0.00    +0.039 C 
ATOM     12  C   UNL     1      31.549 -24.930 -13.705  0.00  0.00    -0.001 C 
ATOM     13  C   UNL     1      30.266 -24.709 -14.203  0.00  0.00    -0.022 C 
ATOM     14  C   UNL     1      32.102 -22.611 -14.099  0.00  0.00    +0.003 C 
ATOM     15  C   UNL     1      29.899 -23.439 -14.649  0.00  0.00    -0.004 C 
ATOM     16  C   UNL     1      30.817 -22.390 -14.596  0.00  0.00    -0.000 C 
ATOM     17  C   UNL     1      29.282 -25.829 -14.255  0.00  0.00    +0.031 C 
ENDBRANCH  10  11
ENDBRANCH   4  10
BRANCH   1  18
ATOM     18  C   UNL     1      34.801 -22.339 -17.800  0.00  0.00    +0.115 C 
BRANCH  18  19
ATOM     19  C   UNL     1      34.891 -21.402 -18.958  0.00  0.00    -0.003 C 
ATOM     20  C   UNL     1      33.730 -20.977 -19.602  0.00  0.00    -0.003 C 
ATOM     21  C   UNL     1      36.137 -20.954 -19.397  0.00  0.00    -0.003 C 
ATOM     22  C   UNL     1      35.059 -19.655 -21.125  0.00  0.00    +0.031 C 
ATOM     23  C   UNL     1      33.814 -20.103 -20.686  0.00  0.00    +0.002 C 
ATOM     24  C   UNL     1      36.221 -20.080 -20.480  0.00  0.00    +0.002 C 
BRANCH  22  27
ATOM     25  N   UNL     1      35.908 -17.578 -22.191  0.00  0.00    -0.343 N 
ATOM     26  N   UNL     1      34.490 -19.013 -23.369  0.00  0.00    -0.285 NA
ATOM     27  C   UNL     1      35.146 -18.743 -22.255  0.00  0.00    +0.117 C 
ATOM     28  H   UNL     1      35.953 -16.975 -22.968  0.00  0.00    +0.144 HD
ATOM     29  H   UNL     1      36.402 -17.358 -21.367  0.00  0.00    +0.144 HD
ATOM     30  H   UNL     1      34.547 -18.398 -24.136  0.00  0.00    +0.188 HD
ENDBRANCH  22  27
ENDBRANCH  18  19
ENDBRANCH   1  18
TORSDOF 5
ENDMDL
MODEL 7
REMARK VINA RESULT:     -11.0      2.310      3.278
REMARK  Name = 17758361
REMARK  5 active torsions:
REMARK  status: ('A' for Active; 'I' for Inactive)
REMARK    1  A    between atoms: N_1  and  C_18
REMARK    2  A    between atoms: C_4  and  C_10
REMARK    3  A    between atoms: C_10  and  C_11
REMARK    4  A    between atoms: C_18  and  C_19
REMARK    5  A    between atoms: C_22  and  C_27
REMARK                            x       y       z     vdW  Elec       q    Type
REMARK                         _______ _______ _______ _____ _____    ______ ____
ROOT
ATOM      1  N   UNL     1      34.857 -21.652 -19.012  0.00  0.00    -0.314 N 
ATOM      2  N   UNL     1      33.553 -22.879 -17.484  0.00  0.00    -0.229 NA
ATOM      3  C   UNL     1      34.736 -22.304 -17.796  0.00  0.00    +0.129 C 
ATOM      4  C   UNL     1      35.741 -22.970 -15.747  0.00  0.00    +0.043 C 
ATOM      5  C   UNL     1      35.849 -22.320 -16.971  0.00  0.00    +0.037 C 
ATOM      6  C   UNL     1      34.540 -23.574 -15.390  0.00  0.00    +0.024 C 
ATOM      7  C   UNL     1      33.485 -23.501 -16.286  0.00  0.00    +0.100 C 
ATOM      8  H   UNL     1      34.074 -21.633 -19.609  0.00  0.00    +0.149 HD
ENDROOT
BRANCH   4  10
ATOM      9  O   UNL     1      37.808 -22.207 -14.963  0.00  0.00    -0.287 OA
ATOM     10  C   UNL     1      36.878 -23.017 -14.842  0.00  0.00    +0.196 C 
BRANCH  10  11
ATOM     11  C   UNL     1      36.984 -24.023 -13.741  0.00  0.00    +0.039 C 
ATOM     12  C   UNL     1      36.430 -23.749 -12.490  0.00  0.00    -0.001 C 
ATOM     13  C   UNL     1      36.528 -24.688 -11.464  0.00  0.00    -0.022 C 
ATOM     14  C   UNL     1      37.635 -25.235 -13.966  0.00  0.00    +0.003 C 
ATOM     15  C   UNL     1      37.179 -25.902 -11.689  0.00  0.00    -0.004 C 
ATOM     16  C   UNL     1      37.732 -26.175 -12.939  0.00  0.00    -0.000 C 
ATOM     17  C   UNL     1      35.934 -24.398 -10.127  0.00  0.00    +0.031 C 
ENDBRANCH  10  11
ENDBRANCH   4  10
BRANCH   1  18
ATOM     18  C   UNL     1      36.070 -20.999 -19.453  0.00  0.00    +0.115 C 
BRANCH  18  19
ATOM     19  C   UNL     1      35.784 -20.013 -20.535  0.00  0.00    -0.003 C 
ATOM     20  C   UNL     1      34.598 -20.104 -21.264  0.00  0.00    -0.003 C 
ATOM     21  C   UNL     1      36.702 -19.002 -20.819  0.00  0.00    -0.003 C 
ATOM     22  C   UNL     1      35.248 -18.172 -22.560  0.00  0.00    +0.031 C 
ATOM     23  C   UNL     1      34.330 -19.183 -22.276  0.00  0.00    +0.002 C 
ATOM     24  C   UNL     1      36.433 -18.081 -21.832  0.00  0.00    +0.002 C 
BRANCH  22  27
ATOM     25  N   UNL     1      35.380 -15.885 -23.519  0.00  0.00    -0.343 N 
ATOM     26  N   UNL     1      34.305 -17.595 -24.694  0.00  0.00    -0.285 NA
ATOM     27  C   UNL     1      34.967 -17.212 -23.616  0.00  0.00    +0.117 C 
ATOM     28  H   UNL     1      35.180 -15.252 -24.246  0.00  0.00    +0.144 HD
ATOM     29  H   UNL     1      35.872 -15.580 -22.722  0.00  0.00    +0.144 HD
ATOM     30  H   UNL     1      34.114 -16.948 -25.410  0.00  0.00    +0.188 HD
ENDBRANCH  22  27
ENDBRANCH  18  19
ENDBRANCH   1  18
TORSDOF 5
ENDMDL
MODEL 8
REMARK VINA RESULT:     -10.8      2.809      4.802
REMARK  Name = 17758361
REMARK  5 active torsions:
REMARK  status: ('A' for Active; 'I' for Inactive)
REMARK    1  A    between atoms: N_1  and  C_18
REMARK    2  A    between atoms: C_4  and  C_10
REMARK    3  A    between atoms: C_10  and  C_11
REMARK    4  A    between atoms: C_18  and  C_19
REMARK    5  A    between atoms: C_22  and  C_27
REMARK                            x       y       z     vdW  Elec       q    Type
REMARK                         _______ _______ _______ _____ _____    ______ ____
ROOT
ATOM      1  N   UNL     1      36.359 -20.357 -19.819  0.00  0.00    -0.314 N 
ATOM      2  N   UNL     1      37.105 -20.707 -17.615  0.00  0.00    -0.229 NA
ATOM      3  C   UNL     1      36.216 -20.986 -18.594  0.00  0.00    +0.129 C 
ATOM      4  C   UNL     1      35.004 -22.510 -17.229  0.00  0.00    +0.043 C 
ATOM      5  C   UNL     1      35.158 -21.870 -18.453  0.00  0.00    +0.037 C 
ATOM      6  C   UNL     1      35.899 -22.249 -16.196  0.00  0.00    +0.024 C 
ATOM      7  C   UNL     1      36.924 -21.348 -16.438  0.00  0.00    +0.100 C 
ATOM      8  H   UNL     1      37.105 -19.725 -19.933  0.00  0.00    +0.149 HD
ENDROOT
BRANCH   4  10
ATOM      9  O   UNL     1      33.642 -24.291 -17.895  0.00  0.00    -0.287 OA
ATOM     10  C   UNL     1      33.912 -23.448 -17.027  0.00  0.00    +0.196 C 
BRANCH  10  11
ATOM     11  C   UNL     1      33.074 -23.447 -15.789  0.00  0.00    +0.039 C 
ATOM     12  C   UNL     1      31.744 -23.030 -15.848  0.00  0.00    -0.001 C 
ATOM     13  C   UNL     1      30.962 -23.029 -14.693  0.00  0.00    -0.022 C 
ATOM     14  C   UNL     1      33.621 -23.865 -14.577  0.00  0.00    +0.003 C 
ATOM     15  C   UNL     1      31.509 -23.448 -13.480  0.00  0.00    -0.004 C 
ATOM     16  C   UNL     1      32.838 -23.866 -13.422  0.00  0.00    -0.000 C 
ATOM     17  C   UNL     1      29.539 -22.586 -14.755  0.00  0.00    +0.031 C 
ENDBRANCH  10  11
ENDBRANCH   4  10
BRANCH   1  18
ATOM     18  C   UNL     1      35.471 -20.577 -20.939  0.00  0.00    +0.115 C 
BRANCH  18  19
ATOM     19  C   UNL     1      35.244 -19.312 -21.698  0.00  0.00    -0.003 C 
ATOM     20  C   UNL     1      35.536 -18.083 -21.105  0.00  0.00    -0.003 C 
ATOM     21  C   UNL     1      34.740 -19.358 -22.998  0.00  0.00    -0.003 C 
ATOM     22  C   UNL     1      34.819 -16.946 -23.112  0.00  0.00    +0.031 C 
ATOM     23  C   UNL     1      35.323 -16.901 -21.813  0.00  0.00    +0.002 C 
ATOM     24  C   UNL     1      34.528 -18.175 -23.705  0.00  0.00    +0.002 C 
BRANCH  22  27
ATOM     25  N   UNL     1      34.637 -14.472 -23.216  0.00  0.00    -0.343 N 
ATOM     26  N   UNL     1      34.349 -15.756 -25.146  0.00  0.00    -0.285 NA
ATOM     27  C   UNL     1      34.597 -15.712 -23.849  0.00  0.00    +0.117 C 
ATOM     28  H   UNL     1      34.484 -13.649 -23.734  0.00  0.00    +0.144 HD
ATOM     29  H   UNL     1      34.818 -14.418 -22.249  0.00  0.00    +0.144 HD
ATOM     30  H   UNL     1      34.199 -14.922 -25.647  0.00  0.00    +0.188 HD
ENDBRANCH  22  27
ENDBRANCH  18  19
ENDBRANCH   1  18
TORSDOF 5
ENDMDL
MODEL 9
REMARK VINA RESULT:     -10.8     10.483     14.776
REMARK  Name = 17758361
REMARK  5 active torsions:
REMARK  status: ('A' for Active; 'I' for Inactive)
REMARK    1  A    between atoms: N_1  and  C_18
REMARK    2  A    between atoms: C_4  and  C_10
REMARK    3  A    between atoms: C_10  and  C_11
REMARK    4  A    between atoms: C_18  and  C_19
REMARK    5  A    between atoms: C_22  and  C_27
REMARK                            x       y       z     vdW  Elec       q    Type
REMARK                         _______ _______ _______ _____ _____    ______ ____
ROOT
ATOM      1  N   UNL     1      31.657 -11.666 -21.715  0.00  0.00    -0.314 N 
ATOM      2  N   UNL     1      30.845 -10.764 -19.698  0.00  0.00    -0.229 NA
ATOM      3  C   UNL     1      31.634 -10.637 -20.789  0.00  0.00    +0.129 C 
ATOM      4  C   UNL     1      32.414  -8.491 -20.127  0.00  0.00    +0.043 C 
ATOM      5  C   UNL     1      32.429  -9.532 -21.048  0.00  0.00    +0.037 C 
ATOM      6  C   UNL     1      31.615  -8.584 -18.992  0.00  0.00    +0.024 C 
ATOM      7  C   UNL     1      30.856  -9.731 -18.826  0.00  0.00    +0.100 C 
ATOM      8  H   UNL     1      31.097 -12.458 -21.544  0.00  0.00    +0.149 HD
ENDROOT
BRANCH   4  10
ATOM      9  O   UNL     1      33.609  -6.620 -19.390  0.00  0.00    -0.287 OA
ATOM     10  C   UNL     1      33.229  -7.307 -20.349  0.00  0.00    +0.196 C 
BRANCH  10  11
ATOM     11  C   UNL     1      33.643  -6.865 -21.715  0.00  0.00    +0.039 C 
ATOM     12  C   UNL     1      32.795  -6.057 -22.474  0.00  0.00    -0.001 C 
ATOM     13  C   UNL     1      33.182  -5.644 -23.749  0.00  0.00    -0.022 C 
ATOM     14  C   UNL     1      34.878  -7.258 -22.230  0.00  0.00    +0.003 C 
ATOM     15  C   UNL     1      34.417  -6.037 -24.265  0.00  0.00    -0.004 C 
ATOM     16  C   UNL     1      35.265  -6.843 -23.505  0.00  0.00    -0.000 C 
ATOM     17  C   UNL     1      32.277  -4.779 -24.560  0.00  0.00    +0.031 C 
ENDBRANCH  10  11
ENDBRANCH   4  10
BRANCH   1  18
ATOM     18  C   UNL     1      32.459 -11.642 -22.918  0.00  0.00    +0.115 C 
BRANCH  18  19
ATOM     19  C   UNL     1      33.080 -12.975 -23.173  0.00  0.00    -0.003 C 
ATOM     20  C   UNL     1      32.919 -13.592 -24.413  0.00  0.00    -0.003 C 
ATOM     21  C   UNL     1      33.820 -13.603 -22.171  0.00  0.00    -0.003 C 
ATOM     22  C   UNL     1      34.237 -15.467 -23.651  0.00  0.00    +0.031 C 
ATOM     23  C   UNL     1      33.497 -14.838 -24.652  0.00  0.00    +0.002 C 
ATOM     24  C   UNL     1      34.398 -14.849 -22.411  0.00  0.00    +0.002 C 
BRANCH  22  27
ATOM     25  N   UNL     1      35.729 -17.340 -22.994  0.00  0.00    -0.343 N 
ATOM     26  N   UNL     1      34.549 -17.424 -25.009  0.00  0.00    -0.285 NA
ATOM     27  C   UNL     1      34.840 -16.766 -23.901  0.00  0.00    +0.117 C 
ATOM     28  H   UNL     1      36.125 -18.221 -23.183  0.00  0.00    +0.144 HD
ATOM     29  H   UNL     1      35.960 -16.864 -22.163  0.00  0.00    +0.144 HD
ATOM     30  H   UNL     1      34.956 -18.304 -25.181  0.00  0.00    +0.188 HD
ENDBRANCH  22  27
ENDBRANCH  18  19
ENDBRANCH   1  18
TORSDOF 5
ENDMDL
