MODEL 1
REMARK VINA RESULT:     -10.4      0.000      0.000
REMARK  Name = 11267350
REMARK  6 active torsions:
REMARK  status: ('A' for Active; 'I' for Inactive)
REMARK    1  A    between atoms: CA_5  and  CB_11
REMARK    2  A    between atoms: CA_6  and  CB_20
REMARK    3  A    between atoms: CB_11  and  CG_12
REMARK    4  A    between atoms: CZ_17  and  OH_18
REMARK    5  A    between atoms: CB_20  and  CG_21
REMARK    6  A    between atoms: CZ_26  and  OH_27
REMARK                            x       y       z     vdW  Elec       q    Type
REMARK                         _______ _______ _______ _____ _____    ______ ____
ROOT
ATOM      1  O   TYR A   2      37.575 -18.662 -20.407  0.00  0.00    -0.273 OA
ATOM      2  O   TYR A   1      33.895 -19.106 -24.187  0.00  0.00    -0.273 OA
ATOM      3  N   TYR A   1      36.366 -17.725 -22.128  0.00  0.00    -0.297 N 
ATOM      4  N   TYR A   2      34.905 -19.924 -22.287  0.00  0.00    -0.297 N 
ATOM      5  CA  TYR A   1      35.058 -17.543 -22.740  0.00  0.00    +0.153 C 
ATOM      6  CA  TYR A   2      35.418 -19.630 -20.957  0.00  0.00    +0.153 C 
ATOM      7  C   TYR A   2      36.587 -18.671 -21.138  0.00  0.00    +0.241 C 
ATOM      8  C   TYR A   1      34.587 -18.920 -23.188  0.00  0.00    +0.241 C 
ATOM      9  H   TYR A   1      37.116 -17.161 -22.425  0.00  0.00    +0.150 HD
ATOM     10  H   TYR A   2      34.780 -20.863 -22.554  0.00  0.00    +0.150 HD
ENDROOT
BRANCH   5  11
ATOM     11  CB  TYR A   1      35.123 -16.560 -23.898  0.00  0.00    +0.055 C 
BRANCH  11  12
ATOM     12  CG  TYR A   1      34.413 -15.270 -23.578  0.00  0.00    -0.020 C 
ATOM     13  CD1 TYR A   1      34.597 -14.678 -22.338  0.00  0.00    -0.001 C 
ATOM     14  CD2 TYR A   1      33.586 -14.693 -24.531  0.00  0.00    -0.001 C 
ATOM     15  CE1 TYR A   1      33.940 -13.484 -22.043  0.00  0.00    +0.036 C 
ATOM     16  CE2 TYR A   1      32.928 -13.499 -24.236  0.00  0.00    +0.036 C 
ATOM     17  CZ  TYR A   1      33.106 -12.894 -22.992  0.00  0.00    +0.134 C 
BRANCH  17  18
ATOM     18  OH  TYR A   1      32.463 -11.728 -22.704  0.00  0.00    -0.506 OA
ATOM     19  HH  TYR A   1      31.527 -11.702 -22.687  0.00  0.00    +0.292 HD
ENDBRANCH  17  18
ENDBRANCH  11  12
ENDBRANCH   5  11
BRANCH   6  20
ATOM     20  CB  TYR A   2      35.833 -20.900 -20.232  0.00  0.00    +0.055 C 
BRANCH  20  21
ATOM     21  CG  TYR A   2      34.744 -21.407 -19.322  0.00  0.00    -0.020 C 
ATOM     22  CD1 TYR A   2      35.064 -22.288 -18.298  0.00  0.00    -0.001 C 
ATOM     23  CD2 TYR A   2      33.439 -20.984 -19.520  0.00  0.00    -0.001 C 
ATOM     24  CE1 TYR A   2      34.056 -22.756 -17.456  0.00  0.00    +0.036 C 
ATOM     25  CE2 TYR A   2      32.430 -21.453 -18.677  0.00  0.00    +0.036 C 
ATOM     26  CZ  TYR A   2      32.740 -22.338 -17.645  0.00  0.00    +0.134 C 
BRANCH  26  27
ATOM     27  OH  TYR A   2      31.756 -22.797 -16.823  0.00  0.00    -0.506 OA
ATOM     28  HH  TYR A   2      31.629 -22.407 -15.981  0.00  0.00    +0.292 HD
ENDBRANCH  26  27
ENDBRANCH  20  21
ENDBRANCH   6  20
TORSDOF 6
ENDMDL
MODEL 2
REMARK VINA RESULT:     -10.4      0.061      7.980
REMARK  Name = 11267350
REMARK  6 active torsions:
REMARK  status: ('A' for Active; 'I' for Inactive)
REMARK    1  A    between atoms: CA_5  and  CB_11
REMARK    2  A    between atoms: CA_6  and  CB_20
REMARK    3  A    between atoms: CB_11  and  CG_12
REMARK    4  A    between atoms: CZ_17  and  OH_18
REMARK    5  A    between atoms: CB_20  and  CG_21
REMARK    6  A    between atoms: CZ_26  and  OH_27
REMARK                            x       y       z     vdW  Elec       q    Type
REMARK                         _______ _______ _______ _____ _____    ______ ____
ROOT
ATOM      1  O   TYR A   2      33.883 -19.043 -24.218  0.00  0.00    -0.273 OA
ATOM      2  O   TYR A   1      37.552 -18.637 -20.424  0.00  0.00    -0.273 OA
ATOM      3  N   TYR A   1      34.888 -19.880 -22.324  0.00  0.00    -0.297 N 
ATOM      4  N   TYR A   2      36.349 -17.683 -22.139  0.00  0.00    -0.297 N 
ATOM      5  CA  TYR A   1      35.397 -19.599 -20.989  0.00  0.00    +0.153 C 
ATOM      6  CA  TYR A   2      35.043 -17.495 -22.753  0.00  0.00    +0.153 C 
ATOM      7  C   TYR A   2      34.571 -18.867 -23.216  0.00  0.00    +0.241 C 
ATOM      8  C   TYR A   1      36.567 -18.639 -21.158  0.00  0.00    +0.241 C 
ATOM      9  H   TYR A   1      34.763 -20.816 -22.601  0.00  0.00    +0.150 HD
ATOM     10  H   TYR A   2      37.100 -17.116 -22.428  0.00  0.00    +0.150 HD
ENDROOT
BRANCH   5  11
ATOM     11  CB  TYR A   1      35.809 -20.877 -20.276  0.00  0.00    +0.055 C 
BRANCH  11  12
ATOM     12  CG  TYR A   1      34.724 -21.384 -19.362  0.00  0.00    -0.020 C 
ATOM     13  CD1 TYR A   1      35.040 -22.300 -18.370  0.00  0.00    -0.001 C 
ATOM     14  CD2 TYR A   1      33.425 -20.924 -19.526  0.00  0.00    -0.001 C 
ATOM     15  CE1 TYR A   1      34.035 -22.770 -17.524  0.00  0.00    +0.036 C 
ATOM     16  CE2 TYR A   1      32.420 -21.393 -18.680  0.00  0.00    +0.036 C 
ATOM     17  CZ  TYR A   1      32.725 -22.316 -17.679  0.00  0.00    +0.134 C 
BRANCH  17  18
ATOM     18  OH  TYR A   1      31.744 -22.774 -16.853  0.00  0.00    -0.506 OA
ATOM     19  HH  TYR A   1      31.831 -22.677 -15.925  0.00  0.00    +0.292 HD
ENDBRANCH  17  18
ENDBRANCH  11  12
ENDBRANCH   5  11
BRANCH   6  20
ATOM     20  CB  TYR A   2      35.111 -16.500 -23.901  0.00  0.00    +0.055 C 
BRANCH  20  21
ATOM     21  CG  TYR A   2      34.401 -15.213 -23.570  0.00  0.00    -0.020 C 
ATOM     22  CD1 TYR A   2      33.604 -14.607 -24.532  0.00  0.00    -0.001 C 
ATOM     23  CD2 TYR A   2      34.553 -14.654 -22.311  0.00  0.00    -0.001 C 
ATOM     24  CE1 TYR A   2      32.946 -13.416 -24.225  0.00  0.00    +0.036 C 
ATOM     25  CE2 TYR A   2      33.895 -13.463 -22.005  0.00  0.00    +0.036 C 
ATOM     26  CZ  TYR A   2      33.091 -12.844 -22.962  0.00  0.00    +0.134 C 
BRANCH  26  27
ATOM     27  OH  TYR A   2      32.450 -11.681 -22.665  0.00  0.00    -0.506 OA
ATOM     28  HH  TYR A   2      32.917 -10.979 -22.256  0.00  0.00    +0.292 HD
ENDBRANCH  26  27
ENDBRANCH  20  21
ENDBRANCH   6  20
TORSDOF 6
ENDMDL
MODEL 3
REMARK VINA RESULT:     -10.3      1.790      7.894
REMARK  Name = 11267350
REMARK  6 active torsions:
REMARK  status: ('A' for Active; 'I' for Inactive)
REMARK    1  A    between atoms: CA_5  and  CB_11
REMARK    2  A    between atoms: CA_6  and  CB_20
REMARK    3  A    between atoms: CB_11  and  CG_12
REMARK    4  A    between atoms: CZ_17  and  OH_18
REMARK    5  A    between atoms: CB_20  and  CG_21
REMARK    6  A    between atoms: CZ_26  and  OH_27
REMARK                            x       y       z     vdW  Elec       q    Type
REMARK                         _______ _______ _______ _____ _____    ______ ____
ROOT
ATOM      1  O   TYR A   2      34.720 -16.136 -25.201  0.00  0.00    -0.273 OA
ATOM      2  O   TYR A   1      35.747 -16.760 -20.045  0.00  0.00    -0.273 OA
ATOM      3  N   TYR A   1      35.238 -17.508 -23.426  0.00  0.00    -0.297 N 
ATOM      4  N   TYR A   2      34.952 -15.464 -21.772  0.00  0.00    -0.297 N 
ATOM      5  CA  TYR A   1      34.952 -17.877 -22.047  0.00  0.00    +0.153 C 
ATOM      6  CA  TYR A   2      34.121 -15.401 -22.966  0.00  0.00    +0.153 C 
ATOM      7  C   TYR A   2      34.748 -16.339 -23.989  0.00  0.00    +0.241 C 
ATOM      8  C   TYR A   1      35.304 -16.671 -21.188  0.00  0.00    +0.241 C 
ATOM      9  H   TYR A   1      35.794 -18.106 -23.976  0.00  0.00    +0.150 HD
ATOM     10  H   TYR A   2      35.273 -14.626 -21.369  0.00  0.00    +0.150 HD
ENDROOT
BRANCH   5  11
ATOM     11  CB  TYR A   1      35.731 -19.115 -21.635  0.00  0.00    +0.055 C 
BRANCH  11  12
ATOM     12  CG  TYR A   1      34.932 -19.999 -20.712  0.00  0.00    -0.020 C 
ATOM     13  CD1 TYR A   1      35.592 -20.901 -19.890  0.00  0.00    -0.001 C 
ATOM     14  CD2 TYR A   1      33.549 -19.896 -20.698  0.00  0.00    -0.001 C 
ATOM     15  CE1 TYR A   1      34.852 -21.718 -19.036  0.00  0.00    +0.036 C 
ATOM     16  CE2 TYR A   1      32.809 -20.714 -19.844  0.00  0.00    +0.036 C 
ATOM     17  CZ  TYR A   1      33.461 -21.624 -19.012  0.00  0.00    +0.134 C 
BRANCH  17  18
ATOM     18  OH  TYR A   1      32.739 -22.423 -18.178  0.00  0.00    -0.506 OA
ATOM     19  HH  TYR A   1      32.650 -23.337 -18.366  0.00  0.00    +0.292 HD
ENDBRANCH  17  18
ENDBRANCH  11  12
ENDBRANCH   5  11
BRANCH   6  20
ATOM     20  CB  TYR A   2      34.016 -13.978 -23.491  0.00  0.00    +0.055 C 
BRANCH  20  21
ATOM     21  CG  TYR A   2      33.147 -13.119 -22.608  0.00  0.00    -0.020 C 
ATOM     22  CD1 TYR A   2      32.589 -13.664 -21.460  0.00  0.00    -0.001 C 
ATOM     23  CD2 TYR A   2      32.919 -11.797 -22.957  0.00  0.00    -0.001 C 
ATOM     24  CE1 TYR A   2      31.785 -12.868 -20.644  0.00  0.00    +0.036 C 
ATOM     25  CE2 TYR A   2      32.115 -11.001 -22.140  0.00  0.00    +0.036 C 
ATOM     26  CZ  TYR A   2      31.549 -11.537 -20.984  0.00  0.00    +0.134 C 
BRANCH  26  27
ATOM     27  OH  TYR A   2      30.763 -10.761 -20.187  0.00  0.00    -0.506 OA
ATOM     28  HH  TYR A   2      29.926 -10.473 -20.493  0.00  0.00    +0.292 HD
ENDBRANCH  26  27
ENDBRANCH  20  21
ENDBRANCH   6  20
TORSDOF 6
ENDMDL
MODEL 4
REMARK VINA RESULT:     -10.2      1.654      2.436
REMARK  Name = 11267350
REMARK  6 active torsions:
REMARK  status: ('A' for Active; 'I' for Inactive)
REMARK    1  A    between atoms: CA_5  and  CB_11
REMARK    2  A    between atoms: CA_6  and  CB_20
REMARK    3  A    between atoms: CB_11  and  CG_12
REMARK    4  A    between atoms: CZ_17  and  OH_18
REMARK    5  A    between atoms: CB_20  and  CG_21
REMARK    6  A    between atoms: CZ_26  and  OH_27
REMARK                            x       y       z     vdW  Elec       q    Type
REMARK                         _______ _______ _______ _____ _____    ______ ____
ROOT
ATOM      1  O   TYR A   2      36.064 -17.385 -20.305  0.00  0.00    -0.273 OA
ATOM      2  O   TYR A   1      34.447 -16.195 -25.203  0.00  0.00    -0.273 OA
ATOM      3  N   TYR A   1      35.276 -15.841 -21.821  0.00  0.00    -0.297 N 
ATOM      4  N   TYR A   2      34.957 -17.769 -23.604  0.00  0.00    -0.297 N 
ATOM      5  CA  TYR A   1      34.310 -15.547 -22.869  0.00  0.00    +0.153 C 
ATOM      6  CA  TYR A   2      34.808 -18.191 -22.218  0.00  0.00    +0.153 C 
ATOM      7  C   TYR A   2      35.487 -17.133 -21.360  0.00  0.00    +0.241 C 
ATOM      8  C   TYR A   1      34.610 -16.494 -24.022  0.00  0.00    +0.241 C 
ATOM      9  H   TYR A   1      35.795 -15.104 -21.427  0.00  0.00    +0.150 HD
ATOM     10  H   TYR A   2      35.315 -18.407 -24.262  0.00  0.00    +0.150 HD
ENDROOT
BRANCH   5  11
ATOM     11  CB  TYR A   1      34.386 -14.090 -23.295  0.00  0.00    +0.055 C 
BRANCH  11  12
ATOM     12  CG  TYR A   1      33.368 -13.242 -22.578  0.00  0.00    -0.020 C 
ATOM     13  CD1 TYR A   1      32.984 -12.026 -23.125  0.00  0.00    -0.001 C 
ATOM     14  CD2 TYR A   1      32.828 -13.690 -21.381  0.00  0.00    -0.001 C 
ATOM     15  CE1 TYR A   1      32.042 -11.241 -22.462  0.00  0.00    +0.036 C 
ATOM     16  CE2 TYR A   1      31.885 -12.906 -20.718  0.00  0.00    +0.036 C 
ATOM     17  CZ  TYR A   1      31.491 -11.681 -21.258  0.00  0.00    +0.134 C 
BRANCH  17  18
ATOM     18  OH  TYR A   1      30.571 -10.915 -20.610  0.00  0.00    -0.506 OA
ATOM     19  HH  TYR A   1      30.853 -10.205 -20.066  0.00  0.00    +0.292 HD
ENDBRANCH  17  18
ENDBRANCH  11  12
ENDBRANCH   5  11
BRANCH   6  20
ATOM     20  CB  TYR A   2      35.405 -19.572 -21.995  0.00  0.00    +0.055 C 
BRANCH  20  21
ATOM     21  CG  TYR A   2      34.694 -20.319 -20.897  0.00  0.00    -0.020 C 
ATOM     22  CD1 TYR A   2      35.410 -21.191 -20.089  0.00  0.00    -0.001 C 
ATOM     23  CD2 TYR A   2      33.334 -20.123 -20.709  0.00  0.00    -0.001 C 
ATOM     24  CE1 TYR A   2      34.751 -21.882 -19.073  0.00  0.00    +0.036 C 
ATOM     25  CE2 TYR A   2      32.675 -20.815 -19.693  0.00  0.00    +0.036 C 
ATOM     26  CZ  TYR A   2      33.384 -21.694 -18.874  0.00  0.00    +0.134 C 
BRANCH  26  27
ATOM     27  OH  TYR A   2      32.742 -22.370 -17.883  0.00  0.00    -0.506 OA
ATOM     28  HH  TYR A   2      32.403 -23.228 -18.044  0.00  0.00    +0.292 HD
ENDBRANCH  26  27
ENDBRANCH  20  21
ENDBRANCH   6  20
TORSDOF 6
ENDMDL
MODEL 5
REMARK VINA RESULT:      -9.8      3.868      6.445
REMARK  Name = 11267350
REMARK  6 active torsions:
REMARK  status: ('A' for Active; 'I' for Inactive)
REMARK    1  A    between atoms: CA_5  and  CB_11
REMARK    2  A    between atoms: CA_6  and  CB_20
REMARK    3  A    between atoms: CB_11  and  CG_12
REMARK    4  A    between atoms: CZ_17  and  OH_18
REMARK    5  A    between atoms: CB_20  and  CG_21
REMARK    6  A    between atoms: CZ_26  and  OH_27
REMARK                            x       y       z     vdW  Elec       q    Type
REMARK                         _______ _______ _______ _____ _____    ______ ____
ROOT
ATOM      1  O   TYR A   2      35.219 -22.772 -14.430  0.00  0.00    -0.273 OA
ATOM      2  O   TYR A   1      34.045 -23.628 -19.521  0.00  0.00    -0.273 OA
ATOM      3  N   TYR A   1      35.652 -22.406 -16.661  0.00  0.00    -0.297 N 
ATOM      4  N   TYR A   2      33.461 -23.744 -17.297  0.00  0.00    -0.297 N 
ATOM      5  CA  TYR A   1      35.105 -22.089 -17.972  0.00  0.00    +0.153 C 
ATOM      6  CA  TYR A   2      33.404 -23.057 -16.015  0.00  0.00    +0.153 C 
ATOM      7  C   TYR A   2      34.842 -22.779 -15.599  0.00  0.00    +0.241 C 
ATOM      8  C   TYR A   1      34.197 -23.248 -18.362  0.00  0.00    +0.241 C 
ATOM      9  H   TYR A   1      36.625 -22.353 -16.524  0.00  0.00    +0.150 HD
ATOM     10  H   TYR A   2      32.963 -24.585 -17.412  0.00  0.00    +0.150 HD
ENDROOT
BRANCH   5  11
ATOM     11  CB  TYR A   1      36.210 -21.865 -18.991  0.00  0.00    +0.055 C 
BRANCH  11  12
ATOM     12  CG  TYR A   1      35.964 -20.634 -19.825  0.00  0.00    -0.020 C 
ATOM     13  CD1 TYR A   1      34.677 -20.350 -20.259  0.00  0.00    -0.001 C 
ATOM     14  CD2 TYR A   1      37.028 -19.804 -20.145  0.00  0.00    -0.001 C 
ATOM     15  CE1 TYR A   1      34.450 -19.210 -21.031  0.00  0.00    +0.036 C 
ATOM     16  CE2 TYR A   1      36.800 -18.664 -20.917  0.00  0.00    +0.036 C 
ATOM     17  CZ  TYR A   1      35.511 -18.367 -21.359  0.00  0.00    +0.134 C 
BRANCH  17  18
ATOM     18  OH  TYR A   1      35.289 -17.255 -22.113  0.00  0.00    -0.506 OA
ATOM     19  HH  TYR A   1      36.008 -16.709 -22.364  0.00  0.00    +0.292 HD
ENDBRANCH  17  18
ENDBRANCH  11  12
ENDBRANCH   5  11
BRANCH   6  20
ATOM     20  CB  TYR A   2      32.663 -23.886 -14.978  0.00  0.00    +0.055 C 
BRANCH  20  21
ATOM     21  CG  TYR A   2      31.169 -23.730 -15.098  0.00  0.00    -0.020 C 
ATOM     22  CD1 TYR A   2      30.650 -22.679 -15.841  0.00  0.00    -0.001 C 
ATOM     23  CD2 TYR A   2      30.335 -24.638 -14.465  0.00  0.00    -0.001 C 
ATOM     24  CE1 TYR A   2      29.267 -22.534 -15.952  0.00  0.00    +0.036 C 
ATOM     25  CE2 TYR A   2      28.952 -24.494 -14.576  0.00  0.00    +0.036 C 
ATOM     26  CZ  TYR A   2      28.418 -23.442 -15.320  0.00  0.00    +0.134 C 
BRANCH  26  27
ATOM     27  OH  TYR A   2      27.069 -23.299 -15.428  0.00  0.00    -0.506 OA
ATOM     28  HH  TYR A   2      26.644 -22.557 -15.045  0.00  0.00    +0.292 HD
ENDBRANCH  26  27
ENDBRANCH  20  21
ENDBRANCH   6  20
TORSDOF 6
ENDMDL
MODEL 6
REMARK VINA RESULT:      -9.8      3.873      9.216
REMARK  Name = 11267350
REMARK  6 active torsions:
REMARK  status: ('A' for Active; 'I' for Inactive)
REMARK    1  A    between atoms: CA_5  and  CB_11
REMARK    2  A    between atoms: CA_6  and  CB_20
REMARK    3  A    between atoms: CB_11  and  CG_12
REMARK    4  A    between atoms: CZ_17  and  OH_18
REMARK    5  A    between atoms: CB_20  and  CG_21
REMARK    6  A    between atoms: CZ_26  and  OH_27
REMARK                            x       y       z     vdW  Elec       q    Type
REMARK                         _______ _______ _______ _____ _____    ______ ____
ROOT
ATOM      1  O   TYR A   2      34.057 -23.626 -19.514  0.00  0.00    -0.273 OA
ATOM      2  O   TYR A   1      35.255 -22.754 -14.432  0.00  0.00    -0.273 OA
ATOM      3  N   TYR A   1      33.481 -23.729 -17.288  0.00  0.00    -0.297 N 
ATOM      4  N   TYR A   2      35.682 -22.399 -16.666  0.00  0.00    -0.297 N 
ATOM      5  CA  TYR A   1      33.432 -23.036 -16.009  0.00  0.00    +0.153 C 
ATOM      6  CA  TYR A   2      35.131 -22.086 -17.976  0.00  0.00    +0.153 C 
ATOM      7  C   TYR A   2      34.216 -23.241 -18.358  0.00  0.00    +0.241 C 
ATOM      8  C   TYR A   1      34.873 -22.764 -15.600  0.00  0.00    +0.241 C 
ATOM      9  H   TYR A   1      32.979 -24.568 -17.397  0.00  0.00    +0.150 HD
ATOM     10  H   TYR A   2      36.655 -22.351 -16.532  0.00  0.00    +0.150 HD
ENDROOT
BRANCH   5  11
ATOM     11  CB  TYR A   1      32.691 -23.856 -14.965  0.00  0.00    +0.055 C 
BRANCH  11  12
ATOM     12  CG  TYR A   1      31.197 -23.707 -15.093  0.00  0.00    -0.020 C 
ATOM     13  CD1 TYR A   1      30.363 -24.599 -14.434  0.00  0.00    -0.001 C 
ATOM     14  CD2 TYR A   1      30.678 -22.679 -15.866  0.00  0.00    -0.001 C 
ATOM     15  CE1 TYR A   1      28.980 -24.461 -14.552  0.00  0.00    +0.036 C 
ATOM     16  CE2 TYR A   1      29.295 -22.541 -15.984  0.00  0.00    +0.036 C 
ATOM     17  CZ  TYR A   1      28.446 -23.432 -15.326  0.00  0.00    +0.134 C 
BRANCH  17  18
ATOM     18  OH  TYR A   1      27.096 -23.297 -15.441  0.00  0.00    -0.506 OA
ATOM     19  HH  TYR A   1      26.549 -23.403 -14.688  0.00  0.00    +0.292 HD
ENDBRANCH  17  18
ENDBRANCH  11  12
ENDBRANCH   5  11
BRANCH   6  20
ATOM     20  CB  TYR A   2      36.234 -21.873 -19.001  0.00  0.00    +0.055 C 
BRANCH  20  21
ATOM     21  CG  TYR A   2      35.991 -20.644 -19.839  0.00  0.00    -0.020 C 
ATOM     22  CD1 TYR A   2      34.704 -20.358 -20.274  0.00  0.00    -0.001 C 
ATOM     23  CD2 TYR A   2      37.056 -19.818 -20.163  0.00  0.00    -0.001 C 
ATOM     24  CE1 TYR A   2      34.480 -19.220 -21.049  0.00  0.00    +0.036 C 
ATOM     25  CE2 TYR A   2      36.832 -18.681 -20.938  0.00  0.00    +0.036 C 
ATOM     26  CZ  TYR A   2      35.544 -18.382 -21.381  0.00  0.00    +0.134 C 
BRANCH  26  27
ATOM     27  OH  TYR A   2      35.324 -17.273 -22.139  0.00  0.00    -0.506 OA
ATOM     28  HH  TYR A   2      35.615 -17.247 -23.029  0.00  0.00    +0.292 HD
ENDBRANCH  26  27
ENDBRANCH  20  21
ENDBRANCH   6  20
TORSDOF 6
ENDMDL
MODEL 7
REMARK VINA RESULT:      -9.3      3.735      6.264
REMARK  Name = 11267350
REMARK  6 active torsions:
REMARK  status: ('A' for Active; 'I' for Inactive)
REMARK    1  A    between atoms: CA_5  and  CB_11
REMARK    2  A    between atoms: CA_6  and  CB_20
REMARK    3  A    between atoms: CB_11  and  CG_12
REMARK    4  A    between atoms: CZ_17  and  OH_18
REMARK    5  A    between atoms: CB_20  and  CG_21
REMARK    6  A    between atoms: CZ_26  and  OH_27
REMARK                            x       y       z     vdW  Elec       q    Type
REMARK                         _______ _______ _______ _____ _____    ______ ____
ROOT
ATOM      1  O   TYR A   2      36.902 -22.387 -14.712  0.00  0.00    -0.273 OA
ATOM      2  O   TYR A   1      33.725 -23.480 -18.803  0.00  0.00    -0.273 OA
ATOM      3  N   TYR A   1      36.427 -22.234 -16.959  0.00  0.00    -0.297 N 
ATOM      4  N   TYR A   2      34.077 -23.369 -16.531  0.00  0.00    -0.297 N 
ATOM      5  CA  TYR A   1      35.423 -21.956 -17.976  0.00  0.00    +0.153 C 
ATOM      6  CA  TYR A   2      34.588 -22.588 -15.414  0.00  0.00    +0.153 C 
ATOM      7  C   TYR A   2      36.088 -22.438 -15.630  0.00  0.00    +0.241 C 
ATOM      8  C   TYR A   1      34.357 -23.035 -17.847  0.00  0.00    +0.241 C 
ATOM      9  H   TYR A   1      37.375 -22.277 -17.222  0.00  0.00    +0.150 HD
ATOM     10  H   TYR A   2      33.517 -24.158 -16.347  0.00  0.00    +0.150 HD
ENDROOT
BRANCH   5  11
ATOM     11  CB  TYR A   1      36.039 -21.929 -19.366  0.00  0.00    +0.055 C 
BRANCH  11  12
ATOM     12  CG  TYR A   1      35.835 -20.598 -20.043  0.00  0.00    -0.020 C 
ATOM     13  CD1 TYR A   1      36.932 -19.789 -20.303  0.00  0.00    -0.001 C 
ATOM     14  CD2 TYR A   1      34.554 -20.204 -20.399  0.00  0.00    -0.001 C 
ATOM     15  CE1 TYR A   1      36.743 -18.558 -20.930  0.00  0.00    +0.036 C 
ATOM     16  CE2 TYR A   1      34.365 -18.972 -21.026  0.00  0.00    +0.036 C 
ATOM     17  CZ  TYR A   1      35.460 -18.150 -21.292  0.00  0.00    +0.134 C 
BRANCH  17  18
ATOM     18  OH  TYR A   1      35.275 -16.947 -21.905  0.00  0.00    -0.506 OA
ATOM     19  HH  TYR A   1      34.752 -16.893 -22.680  0.00  0.00    +0.292 HD
ENDBRANCH  17  18
ENDBRANCH  11  12
ENDBRANCH   5  11
BRANCH   6  20
ATOM     20  CB  TYR A   2      34.270 -23.254 -14.085  0.00  0.00    +0.055 C 
BRANCH  20  21
ATOM     21  CG  TYR A   2      32.836 -23.713 -14.017  0.00  0.00    -0.020 C 
ATOM     22  CD1 TYR A   2      32.547 -24.978 -13.523  0.00  0.00    -0.001 C 
ATOM     23  CD2 TYR A   2      31.828 -22.866 -14.448  0.00  0.00    -0.001 C 
ATOM     24  CE1 TYR A   2      31.219 -25.402 -13.460  0.00  0.00    +0.036 C 
ATOM     25  CE2 TYR A   2      30.500 -23.290 -14.385  0.00  0.00    +0.036 C 
ATOM     26  CZ  TYR A   2      30.196 -24.558 -13.891  0.00  0.00    +0.134 C 
BRANCH  26  27
ATOM     27  OH  TYR A   2      28.902 -24.974 -13.830  0.00  0.00    -0.506 OA
ATOM     28  HH  TYR A   2      28.576 -25.382 -13.052  0.00  0.00    +0.292 HD
ENDBRANCH  26  27
ENDBRANCH  20  21
ENDBRANCH   6  20
TORSDOF 6
ENDMDL
MODEL 8
REMARK VINA RESULT:      -9.3      5.452     11.388
REMARK  Name = 11267350
REMARK  6 active torsions:
REMARK  status: ('A' for Active; 'I' for Inactive)
REMARK    1  A    between atoms: CA_5  and  CB_11
REMARK    2  A    between atoms: CA_6  and  CB_20
REMARK    3  A    between atoms: CB_11  and  CG_12
REMARK    4  A    between atoms: CZ_17  and  OH_18
REMARK    5  A    between atoms: CB_20  and  CG_21
REMARK    6  A    between atoms: CZ_26  and  OH_27
REMARK                            x       y       z     vdW  Elec       q    Type
REMARK                         _______ _______ _______ _____ _____    ______ ____
ROOT
ATOM      1  O   TYR A   2      32.294  -9.505 -17.617  0.00  0.00    -0.273 OA
ATOM      2  O   TYR A   1      30.777 -11.348 -22.342  0.00  0.00    -0.273 OA
ATOM      3  N   TYR A   1      32.017 -11.269 -19.070  0.00  0.00    -0.297 N 
ATOM      4  N   TYR A   2      31.331  -9.575 -20.982  0.00  0.00    -0.297 N 
ATOM      5  CA  TYR A   1      32.200 -11.773 -20.423  0.00  0.00    +0.153 C 
ATOM      6  CA  TYR A   2      32.260  -9.038 -19.999  0.00  0.00    +0.153 C 
ATOM      7  C   TYR A   2      32.155  -9.923 -18.764  0.00  0.00    +0.241 C 
ATOM      8  C   TYR A   1      31.330 -10.917 -21.333  0.00  0.00    +0.241 C 
ATOM      9  H   TYR A   1      31.790 -11.901 -18.351  0.00  0.00    +0.150 HD
ATOM     10  H   TYR A   2      30.684  -8.970 -21.411  0.00  0.00    +0.150 HD
ENDROOT
BRANCH   5  11
ATOM     11  CB  TYR A   1      31.841 -13.247 -20.516  0.00  0.00    +0.055 C 
BRANCH  11  12
ATOM     12  CG  TYR A   1      32.936 -14.051 -21.168  0.00  0.00    -0.020 C 
ATOM     13  CD1 TYR A   1      33.095 -13.998 -22.545  0.00  0.00    -0.001 C 
ATOM     14  CD2 TYR A   1      33.770 -14.832 -20.380  0.00  0.00    -0.001 C 
ATOM     15  CE1 TYR A   1      34.108 -14.743 -23.148  0.00  0.00    +0.036 C 
ATOM     16  CE2 TYR A   1      34.783 -15.577 -20.983  0.00  0.00    +0.036 C 
ATOM     17  CZ  TYR A   1      34.953 -15.532 -22.367  0.00  0.00    +0.134 C 
BRANCH  17  18
ATOM     18  OH  TYR A   1      35.942 -16.259 -22.956  0.00  0.00    -0.506 OA
ATOM     19  HH  TYR A   1      35.730 -16.889 -23.617  0.00  0.00    +0.292 HD
ENDBRANCH  17  18
ENDBRANCH  11  12
ENDBRANCH   5  11
BRANCH   6  20
ATOM     20  CB  TYR A   2      31.948  -7.584 -19.683  0.00  0.00    +0.055 C 
BRANCH  20  21
ATOM     21  CG  TYR A   2      32.103  -6.702 -20.895  0.00  0.00    -0.020 C 
ATOM     22  CD1 TYR A   2      31.114  -5.776 -21.197  0.00  0.00    -0.001 C 
ATOM     23  CD2 TYR A   2      33.232  -6.828 -21.690  0.00  0.00    -0.001 C 
ATOM     24  CE1 TYR A   2      31.258  -4.960 -22.319  0.00  0.00    +0.036 C 
ATOM     25  CE2 TYR A   2      33.375  -6.012 -22.812  0.00  0.00    +0.036 C 
ATOM     26  CZ  TYR A   2      32.389  -5.077 -23.126  0.00  0.00    +0.134 C 
BRANCH  26  27
ATOM     27  OH  TYR A   2      32.527  -4.281 -24.221  0.00  0.00    -0.506 OA
ATOM     28  HH  TYR A   2      33.382  -4.063 -24.537  0.00  0.00    +0.292 HD
ENDBRANCH  26  27
ENDBRANCH  20  21
ENDBRANCH   6  20
TORSDOF 6
ENDMDL
MODEL 9
REMARK VINA RESULT:      -9.2      5.444      9.030
REMARK  Name = 11267350
REMARK  6 active torsions:
REMARK  status: ('A' for Active; 'I' for Inactive)
REMARK    1  A    between atoms: CA_5  and  CB_11
REMARK    2  A    between atoms: CA_6  and  CB_20
REMARK    3  A    between atoms: CB_11  and  CG_12
REMARK    4  A    between atoms: CZ_17  and  OH_18
REMARK    5  A    between atoms: CB_20  and  CG_21
REMARK    6  A    between atoms: CZ_26  and  OH_27
REMARK                            x       y       z     vdW  Elec       q    Type
REMARK                         _______ _______ _______ _____ _____    ______ ____
ROOT
ATOM      1  O   TYR A   2      30.834 -11.409 -22.307  0.00  0.00    -0.273 OA
ATOM      2  O   TYR A   1      32.282  -9.320 -17.663  0.00  0.00    -0.273 OA
ATOM      3  N   TYR A   1      31.353  -9.566 -21.029  0.00  0.00    -0.297 N 
ATOM      4  N   TYR A   2      32.042 -11.156 -19.030  0.00  0.00    -0.297 N 
ATOM      5  CA  TYR A   1      32.266  -8.970 -20.064  0.00  0.00    +0.153 C 
ATOM      6  CA  TYR A   2      32.243 -11.722 -20.356  0.00  0.00    +0.153 C 
ATOM      7  C   TYR A   2      31.372 -10.923 -21.315  0.00  0.00    +0.241 C 
ATOM      8  C   TYR A   1      32.159  -9.795 -18.789  0.00  0.00    +0.241 C 
ATOM      9  H   TYR A   1      30.704  -8.990 -21.492  0.00  0.00    +0.150 HD
ATOM     10  H   TYR A   2      31.815 -11.755 -18.283  0.00  0.00    +0.150 HD
ENDROOT
BRANCH   5  11
ATOM     11  CB  TYR A   1      31.934  -7.506 -19.823  0.00  0.00    +0.055 C 
BRANCH  11  12
ATOM     12  CG  TYR A   1      32.133  -6.674 -21.063  0.00  0.00    -0.020 C 
ATOM     13  CD1 TYR A   1      31.179  -5.730 -21.413  0.00  0.00    -0.001 C 
ATOM     14  CD2 TYR A   1      33.269  -6.864 -21.836  0.00  0.00    -0.001 C 
ATOM     15  CE1 TYR A   1      31.364  -4.960 -22.561  0.00  0.00    +0.036 C 
ATOM     16  CE2 TYR A   1      33.454  -6.094 -22.985  0.00  0.00    +0.036 C 
ATOM     17  CZ  TYR A   1      32.501  -5.141 -23.346  0.00  0.00    +0.134 C 
BRANCH  17  18
ATOM     18  OH  TYR A   1      32.682  -4.390 -24.467  0.00  0.00    -0.506 OA
ATOM     19  HH  TYR A   1      32.521  -3.467 -24.442  0.00  0.00    +0.292 HD
ENDBRANCH  17  18
ENDBRANCH  11  12
ENDBRANCH   5  11
BRANCH   6  20
ATOM     20  CB  TYR A   2      31.902 -13.204 -20.380  0.00  0.00    +0.055 C 
BRANCH  20  21
ATOM     21  CG  TYR A   2      32.969 -14.014 -21.070  0.00  0.00    -0.020 C 
ATOM     22  CD1 TYR A   2      33.803 -14.829 -20.317  0.00  0.00    -0.001 C 
ATOM     23  CD2 TYR A   2      33.102 -13.932 -22.448  0.00  0.00    -0.001 C 
ATOM     24  CE1 TYR A   2      34.791 -15.578 -20.957  0.00  0.00    +0.036 C 
ATOM     25  CE2 TYR A   2      34.089 -14.682 -23.088  0.00  0.00    +0.036 C 
ATOM     26  CZ  TYR A   2      34.933 -15.504 -22.342  0.00  0.00    +0.134 C 
BRANCH  26  27
ATOM     27  OH  TYR A   2      35.898 -16.235 -22.965  0.00  0.00    -0.506 OA
ATOM     28  HH  TYR A   2      35.979 -17.152 -22.790  0.00  0.00    +0.292 HD
ENDBRANCH  26  27
ENDBRANCH  20  21
ENDBRANCH   6  20
TORSDOF 6
ENDMDL
