MODEL 1
REMARK VINA RESULT:     -11.1      0.000      0.000
REMARK  Name = 16040323
REMARK  5 active torsions:
REMARK  status: ('A' for Active; 'I' for Inactive)
REMARK    1  A    between atoms: C_1  and  C_2
REMARK    2  A    between atoms: C_1  and  C_16
REMARK    3  A    between atoms: C_5  and  C_8
REMARK    4  A    between atoms: C_11  and  O_14
REMARK    5  A    between atoms: C_16  and  C_21
REMARK                            x       y       z     vdW  Elec       q    Type
REMARK                         _______ _______ _______ _____ _____    ______ ____
ROOT
ATOM      1  C   UNL     1      36.177 -22.935 -16.364  0.00  0.00    +0.028 C 
ENDROOT
BRANCH   1   2
ATOM      2  C   UNL     1      35.253 -22.388 -17.422  0.00  0.00    -0.022 C 
ATOM      3  C   UNL     1      35.755 -21.529 -18.388  0.00  0.00    -0.004 C 
ATOM      4  C   UNL     1      33.914 -22.752 -17.411  0.00  0.00    -0.004 C 
ATOM      5  C   UNL     1      34.899 -21.023 -19.367  0.00  0.00    -0.000 C 
ATOM      6  C   UNL     1      33.058 -22.246 -18.390  0.00  0.00    -0.000 C 
ATOM      7  C   UNL     1      33.551 -21.381 -19.368  0.00  0.00    -0.000 C 
BRANCH   5   8
ATOM      8  C   UNL     1      35.409 -20.127 -20.382  0.00  0.00    +0.003 C 
ATOM      9  C   UNL     1      34.626 -19.812 -21.492  0.00  0.00    +0.037 C 
ATOM     10  C   UNL     1      36.684 -19.577 -20.249  0.00  0.00    +0.000 C 
ATOM     11  C   UNL     1      35.117 -18.947 -22.470  0.00  0.00    +0.139 C 
ATOM     12  C   UNL     1      37.175 -18.713 -21.227  0.00  0.00    +0.003 C 
ATOM     13  C   UNL     1      36.392 -18.397 -22.337  0.00  0.00    +0.037 C 
BRANCH  11  14
ATOM     14  O   UNL     1      34.354 -18.640 -23.554  0.00  0.00    -0.471 OA
ATOM     15  C   UNL     1      34.558 -17.360 -24.150  0.00  0.00    +0.252 C 
ENDBRANCH  11  14
ENDBRANCH   5   8
ENDBRANCH   1   2
BRANCH   1  16
ATOM     16  C   UNL     1      35.758 -22.471 -14.974  0.00  0.00    +0.028 C 
BRANCH  16  21
ATOM     17  O   UNL     1      37.979 -23.164 -11.814  0.00  0.00    -0.274 OA
ATOM     18  N   UNL     1      35.736 -24.901 -14.754  0.00  0.00    -0.247 NA
ATOM     19  N   UNL     1      37.750 -24.770 -13.506  0.00  0.00    -0.231 N 
ATOM     20  N   UNL     1      37.357 -26.494 -15.129  0.00  0.00    -0.331 N 
ATOM     21  C   UNL     1      35.287 -23.658 -14.121  0.00  0.00    +0.096 C 
ATOM     22  C   UNL     1      35.800 -23.573 -12.688  0.00  0.00    +0.108 C 
ATOM     23  C   UNL     1      33.753 -23.689 -14.111  0.00  0.00    +0.025 C 
ATOM     24  C   UNL     1      37.291 -23.779 -12.626  0.00  0.00    +0.233 C 
ATOM     25  C   UNL     1      36.913 -25.372 -14.470  0.00  0.00    +0.183 C 
ATOM     26  C   UNL     1      39.149 -25.177 -13.400  0.00  0.00    +0.123 C 
ATOM     27  H   UNL     1      36.786 -26.927 -15.805  0.00  0.00    +0.145 HD
ATOM     28  H   UNL     1      38.246 -26.865 -14.926  0.00  0.00    +0.145 HD
ENDBRANCH  16  21
ENDBRANCH   1  16
TORSDOF 5
ENDMDL
MODEL 2
REMARK VINA RESULT:     -10.8      1.680      2.860
REMARK  Name = 16040323
REMARK  5 active torsions:
REMARK  status: ('A' for Active; 'I' for Inactive)
REMARK    1  A    between atoms: C_1  and  C_2
REMARK    2  A    between atoms: C_1  and  C_16
REMARK    3  A    between atoms: C_5  and  C_8
REMARK    4  A    between atoms: C_11  and  O_14
REMARK    5  A    between atoms: C_16  and  C_21
REMARK                            x       y       z     vdW  Elec       q    Type
REMARK                         _______ _______ _______ _____ _____    ______ ____
ROOT
ATOM      1  C   UNL     1      33.873 -22.225 -18.456  0.00  0.00    +0.028 C 
ENDROOT
BRANCH   1   2
ATOM      2  C   UNL     1      34.916 -21.346 -19.097  0.00  0.00    -0.022 C 
ATOM      3  C   UNL     1      34.567 -20.551 -20.179  0.00  0.00    -0.004 C 
ATOM      4  C   UNL     1      36.210 -21.345 -18.596  0.00  0.00    -0.004 C 
ATOM      5  C   UNL     1      35.532 -19.737 -20.773  0.00  0.00    -0.000 C 
ATOM      6  C   UNL     1      37.175 -20.532 -19.189  0.00  0.00    -0.000 C 
ATOM      7  C   UNL     1      36.836 -19.728 -20.278  0.00  0.00    -0.000 C 
BRANCH   5   8
ATOM      8  C   UNL     1      35.181 -18.904 -21.902  0.00  0.00    +0.003 C 
ATOM      9  C   UNL     1      35.449 -17.535 -21.868  0.00  0.00    +0.037 C 
ATOM     10  C   UNL     1      34.576 -19.469 -23.024  0.00  0.00    +0.000 C 
ATOM     11  C   UNL     1      35.111 -16.731 -22.957  0.00  0.00    +0.139 C 
ATOM     12  C   UNL     1      34.238 -18.664 -24.113  0.00  0.00    +0.003 C 
ATOM     13  C   UNL     1      34.506 -17.296 -24.079  0.00  0.00    +0.037 C 
BRANCH  11  14
ATOM     14  O   UNL     1      35.372 -15.396 -22.925  0.00  0.00    -0.471 OA
ATOM     15  C   UNL     1      34.254 -14.514 -23.012  0.00  0.00    +0.252 C 
ENDBRANCH  11  14
ENDBRANCH   5   8
ENDBRANCH   1   2
BRANCH   1  16
ATOM     16  C   UNL     1      34.519 -23.346 -17.651  0.00  0.00    +0.028 C 
BRANCH  16  21
ATOM     17  O   UNL     1      37.235 -21.791 -15.284  0.00  0.00    -0.274 OA
ATOM     18  N   UNL     1      34.275 -24.592 -15.568  0.00  0.00    -0.247 NA
ATOM     19  N   UNL     1      36.498 -23.998 -14.993  0.00  0.00    -0.231 N 
ATOM     20  N   UNL     1      35.603 -26.183 -14.562  0.00  0.00    -0.331 N 
ATOM     21  C   UNL     1      34.100 -23.271 -16.175  0.00  0.00    +0.096 C 
ATOM     22  C   UNL     1      34.894 -22.221 -15.407  0.00  0.00    +0.108 C 
ATOM     23  C   UNL     1      32.605 -22.935 -16.096  0.00  0.00    +0.025 C 
ATOM     24  C   UNL     1      36.336 -22.629 -15.251  0.00  0.00    +0.233 C 
ATOM     25  C   UNL     1      35.425 -24.912 -15.057  0.00  0.00    +0.183 C 
ATOM     26  C   UNL     1      37.838 -24.469 -14.647  0.00  0.00    +0.123 C 
ATOM     27  H   UNL     1      34.865 -26.834 -14.599  0.00  0.00    +0.145 HD
ATOM     28  H   UNL     1      36.469 -26.442 -14.171  0.00  0.00    +0.145 HD
ENDBRANCH  16  21
ENDBRANCH   1  16
TORSDOF 5
ENDMDL
MODEL 3
REMARK VINA RESULT:     -10.6      1.586      2.453
REMARK  Name = 16040323
REMARK  5 active torsions:
REMARK  status: ('A' for Active; 'I' for Inactive)
REMARK    1  A    between atoms: C_1  and  C_2
REMARK    2  A    between atoms: C_1  and  C_16
REMARK    3  A    between atoms: C_5  and  C_8
REMARK    4  A    between atoms: C_11  and  O_14
REMARK    5  A    between atoms: C_16  and  C_21
REMARK                            x       y       z     vdW  Elec       q    Type
REMARK                         _______ _______ _______ _____ _____    ______ ____
ROOT
ATOM      1  C   UNL     1      37.607 -22.183 -16.258  0.00  0.00    +0.028 C 
ENDROOT
BRANCH   1   2
ATOM      2  C   UNL     1      36.464 -21.998 -17.223  0.00  0.00    -0.022 C 
ATOM      3  C   UNL     1      36.622 -21.156 -18.314  0.00  0.00    -0.004 C 
ATOM      4  C   UNL     1      35.272 -22.673 -17.006  0.00  0.00    -0.004 C 
ATOM      5  C   UNL     1      35.564 -20.984 -19.208  0.00  0.00    -0.000 C 
ATOM      6  C   UNL     1      34.214 -22.502 -17.899  0.00  0.00    -0.000 C 
ATOM      7  C   UNL     1      34.361 -21.657 -19.000  0.00  0.00    -0.000 C 
BRANCH   5   8
ATOM      8  C   UNL     1      35.716 -20.109 -20.350  0.00  0.00    +0.003 C 
ATOM      9  C   UNL     1      34.734 -20.077 -21.339  0.00  0.00    +0.037 C 
ATOM     10  C   UNL     1      36.844 -19.297 -20.460  0.00  0.00    +0.000 C 
ATOM     11  C   UNL     1      34.879 -19.233 -22.440  0.00  0.00    +0.139 C 
ATOM     12  C   UNL     1      36.990 -18.453 -21.561  0.00  0.00    +0.003 C 
ATOM     13  C   UNL     1      36.008 -18.420 -22.550  0.00  0.00    +0.037 C 
BRANCH  11  14
ATOM     14  O   UNL     1      33.921 -19.201 -23.406  0.00  0.00    -0.471 OA
ATOM     15  C   UNL     1      34.106 -18.273 -24.474  0.00  0.00    +0.252 C 
ENDBRANCH  11  14
ENDBRANCH   5   8
ENDBRANCH   1   2
BRANCH   1  16
ATOM     16  C   UNL     1      37.097 -22.449 -14.847  0.00  0.00    +0.028 C 
BRANCH  16  21
ATOM     17  O   UNL     1      34.261 -24.944 -13.782  0.00  0.00    -0.274 OA
ATOM     18  N   UNL     1      38.038 -23.637 -12.935  0.00  0.00    -0.247 NA
ATOM     19  N   UNL     1      35.837 -24.170 -12.228  0.00  0.00    -0.231 N 
ATOM     20  N   UNL     1      37.564 -23.547 -10.683  0.00  0.00    -0.331 N 
ATOM     21  C   UNL     1      37.608 -23.800 -14.326  0.00  0.00    +0.096 C 
ATOM     22  C   UNL     1      36.553 -24.893 -14.435  0.00  0.00    +0.108 C 
ATOM     23  C   UNL     1      38.848 -24.209 -15.133  0.00  0.00    +0.025 C 
ATOM     24  C   UNL     1      35.416 -24.655 -13.475  0.00  0.00    +0.233 C 
ATOM     25  C   UNL     1      37.170 -23.781 -11.979  0.00  0.00    +0.183 C 
ATOM     26  C   UNL     1      34.839 -24.075 -11.164  0.00  0.00    +0.123 C 
ATOM     27  H   UNL     1      38.491 -23.274 -10.491  0.00  0.00    +0.145 HD
ATOM     28  H   UNL     1      36.919 -23.651  -9.946  0.00  0.00    +0.145 HD
ENDBRANCH  16  21
ENDBRANCH   1  16
TORSDOF 5
ENDMDL
MODEL 4
REMARK VINA RESULT:     -10.4      1.753      2.963
REMARK  Name = 16040323
REMARK  5 active torsions:
REMARK  status: ('A' for Active; 'I' for Inactive)
REMARK    1  A    between atoms: C_1  and  C_2
REMARK    2  A    between atoms: C_1  and  C_16
REMARK    3  A    between atoms: C_5  and  C_8
REMARK    4  A    between atoms: C_11  and  O_14
REMARK    5  A    between atoms: C_16  and  C_21
REMARK                            x       y       z     vdW  Elec       q    Type
REMARK                         _______ _______ _______ _____ _____    ______ ____
ROOT
ATOM      1  C   UNL     1      33.614 -24.639 -13.839  0.00  0.00    +0.028 C 
ENDROOT
BRANCH   1   2
ATOM      2  C   UNL     1      33.009 -23.876 -14.990  0.00  0.00    -0.022 C 
ATOM      3  C   UNL     1      33.840 -23.318 -15.950  0.00  0.00    -0.004 C 
ATOM      4  C   UNL     1      31.631 -23.743 -15.070  0.00  0.00    -0.004 C 
ATOM      5  C   UNL     1      33.280 -22.612 -17.015  0.00  0.00    -0.000 C 
ATOM      6  C   UNL     1      31.071 -23.037 -16.134  0.00  0.00    -0.000 C 
ATOM      7  C   UNL     1      31.896 -22.471 -17.107  0.00  0.00    -0.000 C 
BRANCH   5   8
ATOM      8  C   UNL     1      34.135 -22.025 -18.024  0.00  0.00    +0.003 C 
ATOM      9  C   UNL     1      33.575 -21.328 -19.094  0.00  0.00    +0.037 C 
ATOM     10  C   UNL     1      35.520 -22.157 -17.926  0.00  0.00    +0.000 C 
ATOM     11  C   UNL     1      34.399 -20.762 -20.066  0.00  0.00    +0.139 C 
ATOM     12  C   UNL     1      36.344 -21.591 -18.899  0.00  0.00    +0.003 C 
ATOM     13  C   UNL     1      35.784 -20.893 -19.968  0.00  0.00    +0.037 C 
BRANCH  11  14
ATOM     14  O   UNL     1      33.853 -20.081 -21.111  0.00  0.00    -0.471 OA
ATOM     15  C   UNL     1      34.753 -19.413 -21.993  0.00  0.00    +0.252 C 
ENDBRANCH  11  14
ENDBRANCH   5   8
ENDBRANCH   1   2
BRANCH   1  16
ATOM     16  C   UNL     1      35.089 -24.930 -14.087  0.00  0.00    +0.028 C 
BRANCH  16  21
ATOM     17  O   UNL     1      38.050 -22.822 -15.568  0.00  0.00    -0.274 OA
ATOM     18  N   UNL     1      36.897 -25.233 -12.478  0.00  0.00    -0.247 NA
ATOM     19  N   UNL     1      38.455 -24.663 -14.174  0.00  0.00    -0.231 N 
ATOM     20  N   UNL     1      38.872 -26.415 -12.587  0.00  0.00    -0.331 N 
ATOM     21  C   UNL     1      35.967 -24.245 -13.029  0.00  0.00    +0.096 C 
ATOM     22  C   UNL     1      36.727 -23.054 -13.599  0.00  0.00    +0.108 C 
ATOM     23  C   UNL     1      35.077 -23.774 -11.871  0.00  0.00    +0.025 C 
ATOM     24  C   UNL     1      37.788 -23.496 -14.574  0.00  0.00    +0.233 C 
ATOM     25  C   UNL     1      38.040 -25.429 -13.064  0.00  0.00    +0.183 C 
ATOM     26  C   UNL     1      39.621 -25.079 -14.952  0.00  0.00    +0.123 C 
ATOM     27  H   UNL     1      38.598 -26.959 -11.813  0.00  0.00    +0.145 HD
ATOM     28  H   UNL     1      39.742 -26.577 -13.019  0.00  0.00    +0.145 HD
ENDBRANCH  16  21
ENDBRANCH   1  16
TORSDOF 5
ENDMDL
MODEL 5
REMARK VINA RESULT:     -10.3      6.263     10.292
REMARK  Name = 16040323
REMARK  5 active torsions:
REMARK  status: ('A' for Active; 'I' for Inactive)
REMARK    1  A    between atoms: C_1  and  C_2
REMARK    2  A    between atoms: C_1  and  C_16
REMARK    3  A    between atoms: C_5  and  C_8
REMARK    4  A    between atoms: C_11  and  O_14
REMARK    5  A    between atoms: C_16  and  C_21
REMARK                            x       y       z     vdW  Elec       q    Type
REMARK                         _______ _______ _______ _____ _____    ______ ____
ROOT
ATOM      1  C   UNL     1      34.429 -15.028 -24.436  0.00  0.00    +0.028 C 
ENDROOT
BRANCH   1   2
ATOM      2  C   UNL     1      34.317 -16.511 -24.195  0.00  0.00    -0.022 C 
ATOM      3  C   UNL     1      34.945 -17.073 -23.094  0.00  0.00    -0.004 C 
ATOM      4  C   UNL     1      33.588 -17.293 -25.080  0.00  0.00    -0.004 C 
ATOM      5  C   UNL     1      34.842 -18.447 -22.871  0.00  0.00    -0.000 C 
ATOM      6  C   UNL     1      33.485 -18.666 -24.859  0.00  0.00    -0.000 C 
ATOM      7  C   UNL     1      34.112 -19.243 -23.753  0.00  0.00    -0.000 C 
BRANCH   5   8
ATOM      8  C   UNL     1      35.491 -19.046 -21.726  0.00  0.00    +0.003 C 
ATOM      9  C   UNL     1      34.822 -20.004 -20.966  0.00  0.00    +0.037 C 
ATOM     10  C   UNL     1      36.788 -18.665 -21.382  0.00  0.00    +0.000 C 
ATOM     11  C   UNL     1      35.448 -20.582 -19.862  0.00  0.00    +0.139 C 
ATOM     12  C   UNL     1      37.415 -19.242 -20.277  0.00  0.00    +0.003 C 
ATOM     13  C   UNL     1      36.745 -20.201 -19.518  0.00  0.00    +0.037 C 
BRANCH  11  14
ATOM     14  O   UNL     1      34.795 -21.517 -19.119  0.00  0.00    -0.471 OA
ATOM     15  C   UNL     1      33.373 -21.553 -19.225  0.00  0.00    +0.252 C 
ENDBRANCH  11  14
ENDBRANCH   5   8
ENDBRANCH   1   2
BRANCH   1  16
ATOM     16  C   UNL     1      33.217 -14.288 -23.881  0.00  0.00    +0.028 C 
BRANCH  16  21
ATOM     17  O   UNL     1      34.730 -15.108 -20.354  0.00  0.00    -0.274 OA
ATOM     18  N   UNL     1      32.465 -12.447 -22.469  0.00  0.00    -0.247 NA
ATOM     19  N   UNL     1      32.779 -13.825 -20.564  0.00  0.00    -0.231 N 
ATOM     20  N   UNL     1      30.904 -12.343 -20.778  0.00  0.00    -0.331 N 
ATOM     21  C   UNL     1      33.651 -13.053 -23.078  0.00  0.00    +0.096 C 
ATOM     22  C   UNL     1      34.683 -13.396 -22.012  0.00  0.00    +0.108 C 
ATOM     23  C   UNL     1      34.241 -12.014 -24.041  0.00  0.00    +0.025 C 
ATOM     24  C   UNL     1      34.078 -14.226 -20.909  0.00  0.00    +0.233 C 
ATOM     25  C   UNL     1      32.064 -12.861 -21.305  0.00  0.00    +0.183 C 
ATOM     26  C   UNL     1      32.168 -14.442 -19.389  0.00  0.00    +0.123 C 
ATOM     27  H   UNL     1      30.391 -11.669 -21.282  0.00  0.00    +0.145 HD
ATOM     28  H   UNL     1      30.585 -12.645 -19.897  0.00  0.00    +0.145 HD
ENDBRANCH  16  21
ENDBRANCH   1  16
TORSDOF 5
ENDMDL
MODEL 6
REMARK VINA RESULT:     -10.3     10.763     15.380
REMARK  Name = 16040323
REMARK  5 active torsions:
REMARK  status: ('A' for Active; 'I' for Inactive)
REMARK    1  A    between atoms: C_1  and  C_2
REMARK    2  A    between atoms: C_1  and  C_16
REMARK    3  A    between atoms: C_5  and  C_8
REMARK    4  A    between atoms: C_11  and  O_14
REMARK    5  A    between atoms: C_16  and  C_21
REMARK                            x       y       z     vdW  Elec       q    Type
REMARK                         _______ _______ _______ _____ _____    ______ ____
ROOT
ATOM      1  C   UNL     1      32.299  -9.072 -22.866  0.00  0.00    +0.028 C 
ENDROOT
BRANCH   1   2
ATOM      2  C   UNL     1      32.237 -10.453 -22.265  0.00  0.00    -0.022 C 
ATOM      3  C   UNL     1      32.812 -11.518 -22.944  0.00  0.00    -0.004 C 
ATOM      4  C   UNL     1      31.607 -10.638 -21.044  0.00  0.00    -0.004 C 
ATOM      5  C   UNL     1      32.755 -12.796 -22.388  0.00  0.00    -0.000 C 
ATOM      6  C   UNL     1      31.549 -11.916 -20.488  0.00  0.00    -0.000 C 
ATOM      7  C   UNL     1      32.124 -12.996 -21.161  0.00  0.00    -0.000 C 
BRANCH   5   8
ATOM      8  C   UNL     1      33.350 -13.916 -23.085  0.00  0.00    +0.003 C 
ATOM      9  C   UNL     1      34.219 -14.774 -22.412  0.00  0.00    +0.037 C 
ATOM     10  C   UNL     1      33.054 -14.137 -24.430  0.00  0.00    +0.000 C 
ATOM     11  C   UNL     1      34.793 -15.854 -23.083  0.00  0.00    +0.139 C 
ATOM     12  C   UNL     1      33.629 -15.216 -25.101  0.00  0.00    +0.003 C 
ATOM     13  C   UNL     1      34.497 -16.075 -24.428  0.00  0.00    +0.037 C 
BRANCH  11  14
ATOM     14  O   UNL     1      35.641 -16.692 -22.427  0.00  0.00    -0.471 OA
ATOM     15  C   UNL     1      35.404 -18.092 -22.562  0.00  0.00    +0.252 C 
ENDBRANCH  11  14
ENDBRANCH   5   8
ENDBRANCH   1   2
BRANCH   1  16
ATOM     16  C   UNL     1      31.508  -8.073 -22.030  0.00  0.00    +0.028 C 
BRANCH  16  21
ATOM     17  O   UNL     1      29.638  -4.638 -21.714  0.00  0.00    -0.274 OA
ATOM     18  N   UNL     1      33.166  -6.428 -22.733  0.00  0.00    -0.247 NA
ATOM     19  N   UNL     1      31.405  -4.917 -23.229  0.00  0.00    -0.231 N 
ATOM     20  N   UNL     1      33.341  -5.134 -24.631  0.00  0.00    -0.331 N 
ATOM     21  C   UNL     1      32.401  -6.908 -21.579  0.00  0.00    +0.096 C 
ATOM     22  C   UNL     1      31.594  -5.772 -20.962  0.00  0.00    +0.108 C 
ATOM     23  C   UNL     1      33.417  -7.426 -20.552  0.00  0.00    +0.025 C 
ATOM     24  C   UNL     1      30.752  -5.073 -21.998  0.00  0.00    +0.233 C 
ATOM     25  C   UNL     1      32.650  -5.520 -23.506  0.00  0.00    +0.183 C 
ATOM     26  C   UNL     1      30.751  -4.096 -24.245  0.00  0.00    +0.123 C 
ATOM     27  H   UNL     1      34.212  -5.545 -24.840  0.00  0.00    +0.145 HD
ATOM     28  H   UNL     1      32.965  -4.448 -25.228  0.00  0.00    +0.145 HD
ENDBRANCH  16  21
ENDBRANCH   1  16
TORSDOF 5
ENDMDL
MODEL 7
REMARK VINA RESULT:     -10.3     10.270     14.948
REMARK  Name = 16040323
REMARK  5 active torsions:
REMARK  status: ('A' for Active; 'I' for Inactive)
REMARK    1  A    between atoms: C_1  and  C_2
REMARK    2  A    between atoms: C_1  and  C_16
REMARK    3  A    between atoms: C_5  and  C_8
REMARK    4  A    between atoms: C_11  and  O_14
REMARK    5  A    between atoms: C_16  and  C_21
REMARK                            x       y       z     vdW  Elec       q    Type
REMARK                         _______ _______ _______ _____ _____    ______ ____
ROOT
ATOM      1  C   UNL     1      34.032  -9.494 -23.760  0.00  0.00    +0.028 C 
ENDROOT
BRANCH   1   2
ATOM      2  C   UNL     1      33.376 -10.723 -23.186  0.00  0.00    -0.022 C 
ATOM      3  C   UNL     1      33.915 -11.973 -23.456  0.00  0.00    -0.004 C 
ATOM      4  C   UNL     1      32.243 -10.586 -22.397  0.00  0.00    -0.004 C 
ATOM      5  C   UNL     1      33.307 -13.111 -22.924  0.00  0.00    -0.000 C 
ATOM      6  C   UNL     1      31.636 -11.723 -21.866  0.00  0.00    -0.000 C 
ATOM      7  C   UNL     1      32.168 -12.986 -22.130  0.00  0.00    -0.000 C 
BRANCH   5   8
ATOM      8  C   UNL     1      33.859 -14.420 -23.197  0.00  0.00    +0.003 C 
ATOM      9  C   UNL     1      34.550 -15.107 -22.199  0.00  0.00    +0.037 C 
ATOM     10  C   UNL     1      33.699 -14.995 -24.457  0.00  0.00    +0.000 C 
ATOM     11  C   UNL     1      35.081 -16.370 -22.462  0.00  0.00    +0.139 C 
ATOM     12  C   UNL     1      34.231 -16.258 -24.720  0.00  0.00    +0.003 C 
ATOM     13  C   UNL     1      34.921 -16.945 -23.722  0.00  0.00    +0.037 C 
BRANCH  11  14
ATOM     14  O   UNL     1      35.756 -17.042 -21.488  0.00  0.00    -0.471 OA
ATOM     15  C   UNL     1      36.252 -18.338 -21.819  0.00  0.00    +0.252 C 
ENDBRANCH  11  14
ENDBRANCH   5   8
ENDBRANCH   1   2
BRANCH   1  16
ATOM     16  C   UNL     1      33.135  -8.271 -23.613  0.00  0.00    +0.028 C 
BRANCH  16  21
ATOM     17  O   UNL     1      31.594  -7.282 -20.142  0.00  0.00    -0.274 OA
ATOM     18  N   UNL     1      33.460  -5.857 -23.485  0.00  0.00    -0.247 NA
ATOM     19  N   UNL     1      31.696  -5.738 -21.903  0.00  0.00    -0.231 N 
ATOM     20  N   UNL     1      31.982  -4.095 -23.630  0.00  0.00    -0.331 N 
ATOM     21  C   UNL     1      33.875  -7.132 -22.896  0.00  0.00    +0.096 C 
ATOM     22  C   UNL     1      33.616  -7.137 -21.394  0.00  0.00    +0.108 C 
ATOM     23  C   UNL     1      35.381  -7.276 -23.153  0.00  0.00    +0.025 C 
ATOM     24  C   UNL     1      32.191  -6.761 -21.082  0.00  0.00    +0.233 C 
ATOM     25  C   UNL     1      32.410  -5.251 -23.018  0.00  0.00    +0.183 C 
ATOM     26  C   UNL     1      30.389  -5.173 -21.571  0.00  0.00    +0.123 C 
ATOM     27  H   UNL     1      32.469  -3.741 -24.409  0.00  0.00    +0.145 HD
ATOM     28  H   UNL     1      31.189  -3.623 -23.289  0.00  0.00    +0.145 HD
ENDBRANCH  16  21
ENDBRANCH   1  16
TORSDOF 5
ENDMDL
MODEL 8
REMARK VINA RESULT:     -10.2      6.983     11.203
REMARK  Name = 16040323
REMARK  5 active torsions:
REMARK  status: ('A' for Active; 'I' for Inactive)
REMARK    1  A    between atoms: C_1  and  C_2
REMARK    2  A    between atoms: C_1  and  C_16
REMARK    3  A    between atoms: C_5  and  C_8
REMARK    4  A    between atoms: C_11  and  O_14
REMARK    5  A    between atoms: C_16  and  C_21
REMARK                            x       y       z     vdW  Elec       q    Type
REMARK                         _______ _______ _______ _____ _____    ______ ____
ROOT
ATOM      1  C   UNL     1      34.561 -13.791 -20.621  0.00  0.00    +0.028 C 
ENDROOT
BRANCH   1   2
ATOM      2  C   UNL     1      34.763 -15.036 -21.445  0.00  0.00    -0.022 C 
ATOM      3  C   UNL     1      34.981 -16.248 -20.806  0.00  0.00    -0.004 C 
ATOM      4  C   UNL     1      34.730 -14.951 -22.829  0.00  0.00    -0.004 C 
ATOM      5  C   UNL     1      35.168 -17.402 -21.569  0.00  0.00    -0.000 C 
ATOM      6  C   UNL     1      34.917 -16.104 -23.592  0.00  0.00    -0.000 C 
ATOM      7  C   UNL     1      35.137 -17.329 -22.961  0.00  0.00    -0.000 C 
BRANCH   5   8
ATOM      8  C   UNL     1      35.395 -18.672 -20.916  0.00  0.00    +0.003 C 
ATOM      9  C   UNL     1      34.316 -19.496 -20.598  0.00  0.00    +0.037 C 
ATOM     10  C   UNL     1      36.694 -19.074 -20.606  0.00  0.00    +0.000 C 
ATOM     11  C   UNL     1      34.535 -20.722 -19.969  0.00  0.00    +0.139 C 
ATOM     12  C   UNL     1      36.913 -20.299 -19.976  0.00  0.00    +0.003 C 
ATOM     13  C   UNL     1      35.834 -21.123 -19.659  0.00  0.00    +0.037 C 
BRANCH  11  14
ATOM     14  O   UNL     1      33.482 -21.526 -19.658  0.00  0.00    -0.471 OA
ATOM     15  C   UNL     1      33.610 -22.343 -18.496  0.00  0.00    +0.252 C 
ENDBRANCH  11  14
ENDBRANCH   5   8
ENDBRANCH   1   2
BRANCH   1  16
ATOM     16  C   UNL     1      33.567 -12.846 -21.287  0.00  0.00    +0.028 C 
BRANCH  16  21
ATOM     17  O   UNL     1      30.930 -10.320 -22.723  0.00  0.00    -0.274 OA
ATOM     18  N   UNL     1      32.455 -11.958 -19.306  0.00  0.00    -0.247 NA
ATOM     19  N   UNL     1      31.807 -10.055 -20.565  0.00  0.00    -0.231 N 
ATOM     20  N   UNL     1      32.544  -9.894 -18.286  0.00  0.00    -0.331 N 
ATOM     21  C   UNL     1      32.252 -12.789 -20.495  0.00  0.00    +0.096 C 
ATOM     22  C   UNL     1      31.101 -12.249 -21.335  0.00  0.00    +0.108 C 
ATOM     23  C   UNL     1      31.904 -14.200 -20.003  0.00  0.00    +0.025 C 
ATOM     24  C   UNL     1      31.286 -10.785 -21.643  0.00  0.00    +0.233 C 
ATOM     25  C   UNL     1      32.273 -10.675 -19.386  0.00  0.00    +0.183 C 
ATOM     26  C   UNL     1      31.859  -8.600 -20.693  0.00  0.00    +0.123 C 
ATOM     27  H   UNL     1      32.870 -10.310 -17.455  0.00  0.00    +0.145 HD
ATOM     28  H   UNL     1      32.412  -8.920 -18.330  0.00  0.00    +0.145 HD
ENDBRANCH  16  21
ENDBRANCH   1  16
TORSDOF 5
ENDMDL
MODEL 9
REMARK VINA RESULT:     -10.2      3.609      5.830
REMARK  Name = 16040323
REMARK  5 active torsions:
REMARK  status: ('A' for Active; 'I' for Inactive)
REMARK    1  A    between atoms: C_1  and  C_2
REMARK    2  A    between atoms: C_1  and  C_16
REMARK    3  A    between atoms: C_5  and  C_8
REMARK    4  A    between atoms: C_11  and  O_14
REMARK    5  A    between atoms: C_16  and  C_21
REMARK                            x       y       z     vdW  Elec       q    Type
REMARK                         _______ _______ _______ _____ _____    ______ ____
ROOT
ATOM      1  C   UNL     1      36.142 -23.441 -15.188  0.00  0.00    +0.028 C 
ENDROOT
BRANCH   1   2
ATOM      2  C   UNL     1      34.958 -23.110 -16.060  0.00  0.00    -0.022 C 
ATOM      3  C   UNL     1      33.676 -23.364 -15.594  0.00  0.00    -0.004 C 
ATOM      4  C   UNL     1      35.168 -22.557 -17.315  0.00  0.00    -0.004 C 
ATOM      5  C   UNL     1      32.579 -23.058 -16.402  0.00  0.00    -0.000 C 
ATOM      6  C   UNL     1      34.072 -22.251 -18.122  0.00  0.00    -0.000 C 
ATOM      7  C   UNL     1      32.778 -22.502 -17.665  0.00  0.00    -0.000 C 
BRANCH   5   8
ATOM      8  C   UNL     1      31.237 -23.317 -15.928  0.00  0.00    +0.003 C 
ATOM      9  C   UNL     1      30.174 -22.540 -16.386  0.00  0.00    +0.037 C 
ATOM     10  C   UNL     1      31.007 -24.346 -15.015  0.00  0.00    +0.000 C 
ATOM     11  C   UNL     1      28.880 -22.790 -15.930  0.00  0.00    +0.139 C 
ATOM     12  C   UNL     1      29.712 -24.596 -14.559  0.00  0.00    +0.003 C 
ATOM     13  C   UNL     1      28.649 -23.819 -15.017  0.00  0.00    +0.037 C 
BRANCH  11  14
ATOM     14  O   UNL     1      27.841 -22.031 -16.376  0.00  0.00    -0.471 OA
ATOM     15  C   UNL     1      26.594 -22.175 -15.699  0.00  0.00    +0.252 C 
ENDBRANCH  11  14
ENDBRANCH   5   8
ENDBRANCH   1   2
BRANCH   1  16
ATOM     16  C   UNL     1      35.904 -23.003 -13.748  0.00  0.00    +0.028 C 
BRANCH  16  21
ATOM     17  O   UNL     1      38.922 -23.549 -11.300  0.00  0.00    -0.274 OA
ATOM     18  N   UNL     1      36.098 -25.429 -13.577  0.00  0.00    -0.247 NA
ATOM     19  N   UNL     1      38.358 -25.165 -12.902  0.00  0.00    -0.231 N 
ATOM     20  N   UNL     1      37.662 -26.909 -14.397  0.00  0.00    -0.331 N 
ATOM     21  C   UNL     1      35.754 -24.220 -12.824  0.00  0.00    +0.096 C 
ATOM     22  C   UNL     1      36.621 -24.102 -11.576  0.00  0.00    +0.108 C 
ATOM     23  C   UNL     1      34.282 -24.354 -12.410  0.00  0.00    +0.025 C 
ATOM     24  C   UNL     1      38.085 -24.208 -11.914  0.00  0.00    +0.233 C 
ATOM     25  C   UNL     1      37.336 -25.820 -13.622  0.00  0.00    +0.183 C 
ATOM     26  C   UNL     1      39.759 -25.476 -13.178  0.00  0.00    +0.123 C 
ATOM     27  H   UNL     1      36.961 -27.378 -14.907  0.00  0.00    +0.145 HD
ATOM     28  H   UNL     1      38.595 -27.219 -14.443  0.00  0.00    +0.145 HD
ENDBRANCH  16  21
ENDBRANCH   1  16
TORSDOF 5
ENDMDL
