MODEL 1
REMARK VINA RESULT:     -11.2      0.000      0.000
REMARK  Name = 9890801
REMARK  11 active torsions:
REMARK  status: ('A' for Active; 'I' for Inactive)
REMARK    1  A    between atoms: N_1  and  S_2
REMARK    2  A    between atoms: N_1  and  C_11
REMARK    3  A    between atoms: N_1  and  C_22
REMARK    4  A    between atoms: S_2  and  C_6
REMARK    5  A    between atoms: C_11  and  C_13
REMARK    6  A    between atoms: C_12  and  C_18
REMARK    7  A    between atoms: C_22  and  C_23
REMARK    8  A    between atoms: C_26  and  O_29
REMARK    9  A    between atoms: O_29  and  C_30
REMARK   10  A    between atoms: C_30  and  C_32
REMARK   11  A    between atoms: C_32  and  O_33
REMARK                            x       y       z     vdW  Elec       q    Type
REMARK                         _______ _______ _______ _____ _____    ______ ____
ROOT
ATOM      1  N   UNL     1      34.691 -23.137 -15.566  0.00  0.00    -0.147 NA
ENDROOT
BRANCH   1   2
ATOM      2  S   UNL     1      35.975 -24.184 -15.086  0.00  0.00    +0.065 S 
ATOM      3  O   UNL     1      37.240 -23.638 -15.543  0.00  0.00    -0.153 OA
ATOM      4  O   UNL     1      35.629 -25.555 -15.413  0.00  0.00    -0.153 OA
BRANCH   2   6
ATOM      5  N   UNL     1      35.028 -24.762 -11.204  0.00  0.00    -0.241 NA
ATOM      6  C   UNL     1      35.950 -24.043 -13.320  0.00  0.00    +0.141 C 
ATOM      7  C   UNL     1      36.785 -23.147 -12.661  0.00  0.00    +0.023 C 
ATOM      8  C   UNL     1      35.098 -24.821 -12.553  0.00  0.00    +0.119 C 
ATOM      9  C   UNL     1      36.744 -23.059 -11.273  0.00  0.00    +0.022 C 
ATOM     10  C   UNL     1      35.855 -23.881 -10.598  0.00  0.00    +0.099 C 
ENDBRANCH   2   6
ENDBRANCH   1   2
BRANCH   1  11
ATOM     11  C   UNL     1      34.036 -23.397 -16.872  0.00  0.00    +0.122 C 
BRANCH  11  13
ATOM     12  C   UNL     1      35.083 -20.503 -19.848  0.00  0.00    -0.023 C 
ATOM     13  C   UNL     1      34.402 -22.389 -17.908  0.00  0.00    -0.004 C 
ATOM     14  C   UNL     1      33.745 -20.837 -19.640  0.00  0.00    -0.005 C 
ATOM     15  C   UNL     1      36.081 -21.112 -19.086  0.00  0.00    -0.005 C 
ATOM     16  C   UNL     1      33.404 -21.780 -18.671  0.00  0.00    -0.003 C 
ATOM     17  C   UNL     1      35.740 -22.055 -18.116  0.00  0.00    -0.003 C 
BRANCH  12  18
ATOM     18  C   UNL     1      35.460 -19.466 -20.919  0.00  0.00    +0.019 C 
ATOM     19  C   UNL     1      35.156 -20.033 -22.322  0.00  0.00    +0.004 C 
ATOM     20  C   UNL     1      36.966 -19.140 -20.818  0.00  0.00    +0.004 C 
ATOM     21  C   UNL     1      34.694 -18.130 -20.790  0.00  0.00    +0.004 C 
ENDBRANCH  12  18
ENDBRANCH  11  13
ENDBRANCH   1  11
BRANCH   1  22
ATOM     22  C   UNL     1      33.715 -22.718 -14.527  0.00  0.00    +0.123 C 
BRANCH  22  23
ATOM     23  C   UNL     1      32.350 -23.302 -14.760  0.00  0.00    -0.001 C 
ATOM     24  C   UNL     1      31.435 -22.633 -15.573  0.00  0.00    +0.034 C 
ATOM     25  C   UNL     1      31.999 -24.512 -14.163  0.00  0.00    -0.003 C 
ATOM     26  C   UNL     1      30.168 -23.174 -15.788  0.00  0.00    +0.139 C 
ATOM     27  C   UNL     1      30.731 -25.054 -14.379  0.00  0.00    +0.003 C 
ATOM     28  C   UNL     1      29.815 -24.385 -15.191  0.00  0.00    +0.037 C 
BRANCH  26  29
ATOM     29  O   UNL     1      29.273 -22.522 -16.580  0.00  0.00    -0.464 OA
BRANCH  29  30
ATOM     30  C   UNL     1      28.003 -23.144 -16.774  0.00  0.00    +0.314 C 
BRANCH  30  32
ATOM     31  O   UNL     1      26.285 -22.400 -15.225  0.00  0.00    -0.246 OA
ATOM     32  C   UNL     1      26.912 -22.245 -16.262  0.00  0.00    +0.359 C 
BRANCH  32  33
ATOM     33  O   UNL     1      26.715 -21.214 -17.122  0.00  0.00    -0.478 OA
ATOM     34  H   UNL     1      25.886 -21.109 -17.546  0.00  0.00    +0.295 HD
ENDBRANCH  32  33
ENDBRANCH  30  32
ENDBRANCH  29  30
ENDBRANCH  26  29
ENDBRANCH  22  23
ENDBRANCH   1  22
TORSDOF 11
ENDMDL
MODEL 2
REMARK VINA RESULT:     -10.2      2.939      6.790
REMARK  Name = 9890801
REMARK  11 active torsions:
REMARK  status: ('A' for Active; 'I' for Inactive)
REMARK    1  A    between atoms: N_1  and  S_2
REMARK    2  A    between atoms: N_1  and  C_11
REMARK    3  A    between atoms: N_1  and  C_22
REMARK    4  A    between atoms: S_2  and  C_6
REMARK    5  A    between atoms: C_11  and  C_13
REMARK    6  A    between atoms: C_12  and  C_18
REMARK    7  A    between atoms: C_22  and  C_23
REMARK    8  A    between atoms: C_26  and  O_29
REMARK    9  A    between atoms: O_29  and  C_30
REMARK   10  A    between atoms: C_30  and  C_32
REMARK   11  A    between atoms: C_32  and  O_33
REMARK                            x       y       z     vdW  Elec       q    Type
REMARK                         _______ _______ _______ _____ _____    ______ ____
ROOT
ATOM      1  N   UNL     1      35.741 -23.312 -15.410  0.00  0.00    -0.147 NA
ENDROOT
BRANCH   1   2
ATOM      2  S   UNL     1      36.214 -24.772 -14.622  0.00  0.00    +0.065 S 
ATOM      3  O   UNL     1      37.507 -25.197 -15.126  0.00  0.00    -0.153 OA
ATOM      4  O   UNL     1      35.103 -25.707 -14.631  0.00  0.00    -0.153 OA
BRANCH   2   6
ATOM      5  N   UNL     1      37.763 -23.023 -11.331  0.00  0.00    -0.241 NA
ATOM      6  C   UNL     1      36.449 -24.250 -12.946  0.00  0.00    +0.141 C 
ATOM      7  C   UNL     1      35.557 -24.626 -11.947  0.00  0.00    +0.023 C 
ATOM      8  C   UNL     1      37.526 -23.455 -12.589  0.00  0.00    +0.119 C 
ATOM      9  C   UNL     1      35.768 -24.201 -10.639  0.00  0.00    +0.022 C 
ATOM     10  C   UNL     1      36.876 -23.408 -10.387  0.00  0.00    +0.099 C 
ENDBRANCH   2   6
ENDBRANCH   1   2
BRANCH   1  11
ATOM     11  C   UNL     1      34.827 -22.397 -14.682  0.00  0.00    +0.122 C 
BRANCH  11  13
ATOM     12  C   UNL     1      30.722 -23.569 -15.005  0.00  0.00    -0.023 C 
ATOM     13  C   UNL     1      33.397 -22.805 -14.794  0.00  0.00    -0.004 C 
ATOM     14  C   UNL     1      31.448 -23.247 -16.152  0.00  0.00    -0.005 C 
ATOM     15  C   UNL     1      31.334 -23.509 -13.753  0.00  0.00    -0.005 C 
ATOM     16  C   UNL     1      32.785 -22.865 -16.047  0.00  0.00    -0.003 C 
ATOM     17  C   UNL     1      32.672 -23.127 -13.647  0.00  0.00    -0.003 C 
BRANCH  12  18
ATOM     18  C   UNL     1      29.247 -23.988 -15.121  0.00  0.00    +0.019 C 
ATOM     19  C   UNL     1      28.338 -22.807 -14.719  0.00  0.00    +0.004 C 
ATOM     20  C   UNL     1      28.972 -25.183 -14.183  0.00  0.00    +0.004 C 
ATOM     21  C   UNL     1      28.831 -24.421 -16.545  0.00  0.00    +0.004 C 
ENDBRANCH  12  18
ENDBRANCH  11  13
ENDBRANCH   1  11
BRANCH   1  22
ATOM     22  C   UNL     1      36.778 -22.572 -16.173  0.00  0.00    +0.123 C 
BRANCH  22  23
ATOM     23  C   UNL     1      36.238 -21.987 -17.447  0.00  0.00    -0.001 C 
ATOM     24  C   UNL     1      36.862 -20.882 -18.027  0.00  0.00    +0.034 C 
ATOM     25  C   UNL     1      35.112 -22.548 -18.049  0.00  0.00    -0.003 C 
ATOM     26  C   UNL     1      36.359 -20.339 -19.210  0.00  0.00    +0.139 C 
ATOM     27  C   UNL     1      34.609 -22.004 -19.232  0.00  0.00    +0.003 C 
ATOM     28  C   UNL     1      35.233 -20.900 -19.812  0.00  0.00    +0.037 C 
BRANCH  26  29
ATOM     29  O   UNL     1      36.966 -19.260 -19.776  0.00  0.00    -0.464 OA
BRANCH  29  30
ATOM     30  C   UNL     1      36.758 -19.058 -21.174  0.00  0.00    +0.314 C 
BRANCH  30  32
ATOM     31  O   UNL     1      35.348 -17.188 -20.527  0.00  0.00    -0.246 OA
ATOM     32  C   UNL     1      35.939 -17.816 -21.392  0.00  0.00    +0.359 C 
BRANCH  32  33
ATOM     33  O   UNL     1      35.946 -17.478 -22.706  0.00  0.00    -0.478 OA
ATOM     34  H   UNL     1      35.743 -16.601 -22.966  0.00  0.00    +0.295 HD
ENDBRANCH  32  33
ENDBRANCH  30  32
ENDBRANCH  29  30
ENDBRANCH  26  29
ENDBRANCH  22  23
ENDBRANCH   1  22
TORSDOF 11
ENDMDL
MODEL 3
REMARK VINA RESULT:     -10.1      1.844      2.438
REMARK  Name = 9890801
REMARK  11 active torsions:
REMARK  status: ('A' for Active; 'I' for Inactive)
REMARK    1  A    between atoms: N_1  and  S_2
REMARK    2  A    between atoms: N_1  and  C_11
REMARK    3  A    between atoms: N_1  and  C_22
REMARK    4  A    between atoms: S_2  and  C_6
REMARK    5  A    between atoms: C_11  and  C_13
REMARK    6  A    between atoms: C_12  and  C_18
REMARK    7  A    between atoms: C_22  and  C_23
REMARK    8  A    between atoms: C_26  and  O_29
REMARK    9  A    between atoms: O_29  and  C_30
REMARK   10  A    between atoms: C_30  and  C_32
REMARK   11  A    between atoms: C_32  and  O_33
REMARK                            x       y       z     vdW  Elec       q    Type
REMARK                         _______ _______ _______ _____ _____    ______ ____
ROOT
ATOM      1  N   UNL     1      33.420 -22.998 -15.716  0.00  0.00    -0.147 NA
ENDROOT
BRANCH   1   2
ATOM      2  S   UNL     1      34.389 -24.000 -14.700  0.00  0.00    +0.065 S 
ATOM      3  O   UNL     1      34.312 -25.375 -15.162  0.00  0.00    -0.153 OA
ATOM      4  O   UNL     1      34.104 -23.698 -13.309  0.00  0.00    -0.153 OA
BRANCH   2   6
ATOM      5  N   UNL     1      38.411 -23.835 -15.000  0.00  0.00    -0.241 NA
ATOM      6  C   UNL     1      36.029 -23.424 -15.038  0.00  0.00    +0.141 C 
ATOM      7  C   UNL     1      36.248 -22.163 -15.583  0.00  0.00    +0.023 C 
ATOM      8  C   UNL     1      37.135 -24.214 -14.767  0.00  0.00    +0.119 C 
ATOM      9  C   UNL     1      37.548 -21.738 -15.838  0.00  0.00    +0.022 C 
ATOM     10  C   UNL     1      38.585 -22.605 -15.531  0.00  0.00    +0.099 C 
ENDBRANCH   2   6
ENDBRANCH   1   2
BRANCH   1  11
ATOM     11  C   UNL     1      33.211 -23.430 -17.120  0.00  0.00    +0.122 C 
BRANCH  11  13
ATOM     12  C   UNL     1      34.645 -20.567 -19.961  0.00  0.00    -0.023 C 
ATOM     13  C   UNL     1      33.710 -22.433 -18.109  0.00  0.00    -0.004 C 
ATOM     14  C   UNL     1      35.538 -21.437 -19.336  0.00  0.00    -0.005 C 
ATOM     15  C   UNL     1      33.284 -20.629 -19.660  0.00  0.00    -0.005 C 
ATOM     16  C   UNL     1      35.071 -22.369 -18.410  0.00  0.00    -0.003 C 
ATOM     17  C   UNL     1      32.817 -21.563 -18.734  0.00  0.00    -0.003 C 
BRANCH  12  18
ATOM     18  C   UNL     1      35.160 -19.536 -20.980  0.00  0.00    +0.019 C 
ATOM     19  C   UNL     1      36.668 -19.293 -20.756  0.00  0.00    +0.004 C 
ATOM     20  C   UNL     1      34.398 -18.206 -20.802  0.00  0.00    +0.004 C 
ATOM     21  C   UNL     1      34.981 -19.971 -22.452  0.00  0.00    +0.004 C 
ENDBRANCH  12  18
ENDBRANCH  11  13
ENDBRANCH   1  11
BRANCH   1  22
ATOM     22  C   UNL     1      32.194 -22.398 -15.129  0.00  0.00    +0.123 C 
BRANCH  22  23
ATOM     23  C   UNL     1      31.054 -23.375 -15.072  0.00  0.00    -0.001 C 
ATOM     24  C   UNL     1      29.895 -23.138 -15.810  0.00  0.00    +0.034 C 
ATOM     25  C   UNL     1      31.155 -24.519 -14.280  0.00  0.00    -0.003 C 
ATOM     26  C   UNL     1      28.836 -24.045 -15.756  0.00  0.00    +0.139 C 
ATOM     27  C   UNL     1      30.096 -25.425 -14.226  0.00  0.00    +0.003 C 
ATOM     28  C   UNL     1      28.937 -25.189 -14.964  0.00  0.00    +0.037 C 
BRANCH  26  29
ATOM     29  O   UNL     1      27.704 -23.814 -16.475  0.00  0.00    -0.464 OA
BRANCH  29  30
ATOM     30  C   UNL     1      27.571 -22.529 -17.083  0.00  0.00    +0.314 C 
BRANCH  30  32
ATOM     31  O   UNL     1      25.693 -22.196 -15.577  0.00  0.00    -0.246 OA
ATOM     32  C   UNL     1      26.360 -21.829 -16.533  0.00  0.00    +0.359 C 
BRANCH  32  33
ATOM     33  O   UNL     1      26.101 -20.708 -17.253  0.00  0.00    -0.478 OA
ATOM     34  H   UNL     1      26.518 -20.576 -18.081  0.00  0.00    +0.295 HD
ENDBRANCH  32  33
ENDBRANCH  30  32
ENDBRANCH  29  30
ENDBRANCH  26  29
ENDBRANCH  22  23
ENDBRANCH   1  22
TORSDOF 11
ENDMDL
MODEL 4
REMARK VINA RESULT:     -10.0      2.070      2.783
REMARK  Name = 9890801
REMARK  11 active torsions:
REMARK  status: ('A' for Active; 'I' for Inactive)
REMARK    1  A    between atoms: N_1  and  S_2
REMARK    2  A    between atoms: N_1  and  C_11
REMARK    3  A    between atoms: N_1  and  C_22
REMARK    4  A    between atoms: S_2  and  C_6
REMARK    5  A    between atoms: C_11  and  C_13
REMARK    6  A    between atoms: C_12  and  C_18
REMARK    7  A    between atoms: C_22  and  C_23
REMARK    8  A    between atoms: C_26  and  O_29
REMARK    9  A    between atoms: O_29  and  C_30
REMARK   10  A    between atoms: C_30  and  C_32
REMARK   11  A    between atoms: C_32  and  O_33
REMARK                            x       y       z     vdW  Elec       q    Type
REMARK                         _______ _______ _______ _____ _____    ______ ____
ROOT
ATOM      1  N   UNL     1      34.523 -23.596 -13.200  0.00  0.00    -0.147 NA
ENDROOT
BRANCH   1   2
ATOM      2  S   UNL     1      35.611 -24.130 -11.973  0.00  0.00    +0.065 S 
ATOM      3  O   UNL     1      34.962 -25.139 -11.156  0.00  0.00    -0.153 OA
ATOM      4  O   UNL     1      36.222 -22.979 -11.334  0.00  0.00    -0.153 OA
BRANCH   2   6
ATOM      5  N   UNL     1      37.869 -27.012 -13.674  0.00  0.00    -0.241 NA
ATOM      6  C   UNL     1      36.877 -24.946 -12.907  0.00  0.00    +0.141 C 
ATOM      7  C   UNL     1      37.847 -24.218 -13.587  0.00  0.00    +0.023 C 
ATOM      8  C   UNL     1      36.931 -26.329 -12.982  0.00  0.00    +0.119 C 
ATOM      9  C   UNL     1      38.828 -24.886 -14.312  0.00  0.00    +0.022 C 
ATOM     10  C   UNL     1      38.795 -26.271 -14.324  0.00  0.00    +0.099 C 
ENDBRANCH   2   6
ENDBRANCH   1   2
BRANCH   1  11
ATOM     11  C   UNL     1      34.393 -24.429 -14.421  0.00  0.00    +0.122 C 
BRANCH  11  13
ATOM     12  C   UNL     1      35.063 -22.202 -18.016  0.00  0.00    -0.023 C 
ATOM     13  C   UNL     1      34.626 -23.653 -15.673  0.00  0.00    -0.004 C 
ATOM     14  C   UNL     1      36.002 -22.162 -16.985  0.00  0.00    -0.005 C 
ATOM     15  C   UNL     1      33.905 -22.967 -17.875  0.00  0.00    -0.005 C 
ATOM     16  C   UNL     1      35.784 -22.887 -15.815  0.00  0.00    -0.003 C 
ATOM     17  C   UNL     1      33.686 -23.693 -16.704  0.00  0.00    -0.003 C 
BRANCH  12  18
ATOM     18  C   UNL     1      35.302 -21.400 -19.307  0.00  0.00    +0.019 C 
ATOM     19  C   UNL     1      35.618 -22.367 -20.468  0.00  0.00    +0.004 C 
ATOM     20  C   UNL     1      36.494 -20.440 -19.107  0.00  0.00    +0.004 C 
ATOM     21  C   UNL     1      34.093 -20.542 -19.741  0.00  0.00    +0.004 C 
ENDBRANCH  12  18
ENDBRANCH  11  13
ENDBRANCH   1  11
BRANCH   1  22
ATOM     22  C   UNL     1      33.218 -23.032 -12.769  0.00  0.00    +0.123 C 
BRANCH  22  23
ATOM     23  C   UNL     1      32.060 -23.656 -13.495  0.00  0.00    -0.001 C 
ATOM     24  C   UNL     1      31.320 -22.903 -14.406  0.00  0.00    +0.034 C 
ATOM     25  C   UNL     1      31.726 -24.989 -13.258  0.00  0.00    -0.003 C 
ATOM     26  C   UNL     1      30.245 -23.482 -15.080  0.00  0.00    +0.139 C 
ATOM     27  C   UNL     1      30.650 -25.569 -13.931  0.00  0.00    +0.003 C 
ATOM     28  C   UNL     1      29.909 -24.815 -14.842  0.00  0.00    +0.037 C 
BRANCH  26  29
ATOM     29  O   UNL     1      29.521 -22.747 -15.968  0.00  0.00    -0.464 OA
BRANCH  29  30
ATOM     30  C   UNL     1      28.198 -22.378 -15.578  0.00  0.00    +0.314 C 
BRANCH  30  32
ATOM     31  O   UNL     1      27.155 -23.361 -17.540  0.00  0.00    -0.246 OA
ATOM     32  C   UNL     1      27.286 -22.420 -16.773  0.00  0.00    +0.359 C 
BRANCH  32  33
ATOM     33  O   UNL     1      26.611 -21.248 -16.886  0.00  0.00    -0.478 OA
ATOM     34  H   UNL     1      25.733 -21.180 -16.568  0.00  0.00    +0.295 HD
ENDBRANCH  32  33
ENDBRANCH  30  32
ENDBRANCH  29  30
ENDBRANCH  26  29
ENDBRANCH  22  23
ENDBRANCH   1  22
TORSDOF 11
ENDMDL
MODEL 5
REMARK VINA RESULT:      -9.9     12.075     16.203
REMARK  Name = 9890801
REMARK  11 active torsions:
REMARK  status: ('A' for Active; 'I' for Inactive)
REMARK    1  A    between atoms: N_1  and  S_2
REMARK    2  A    between atoms: N_1  and  C_11
REMARK    3  A    between atoms: N_1  and  C_22
REMARK    4  A    between atoms: S_2  and  C_6
REMARK    5  A    between atoms: C_11  and  C_13
REMARK    6  A    between atoms: C_12  and  C_18
REMARK    7  A    between atoms: C_22  and  C_23
REMARK    8  A    between atoms: C_26  and  O_29
REMARK    9  A    between atoms: O_29  and  C_30
REMARK   10  A    between atoms: C_30  and  C_32
REMARK   11  A    between atoms: C_32  and  O_33
REMARK                            x       y       z     vdW  Elec       q    Type
REMARK                         _______ _______ _______ _____ _____    ______ ____
ROOT
ATOM      1  N   UNL     1      31.794  -8.895 -21.569  0.00  0.00    -0.147 NA
ENDROOT
BRANCH   1   2
ATOM      2  S   UNL     1      32.103  -7.788 -20.282  0.00  0.00    +0.065 S 
ATOM      3  O   UNL     1      33.534  -7.706 -20.049  0.00  0.00    -0.153 OA
ATOM      4  O   UNL     1      31.214  -8.077 -19.172  0.00  0.00    -0.153 OA
BRANCH   2   6
ATOM      5  N   UNL     1      29.797  -4.783 -21.677  0.00  0.00    -0.241 NA
ATOM      6  C   UNL     1      31.594  -6.239 -20.974  0.00  0.00    +0.141 C 
ATOM      7  C   UNL     1      32.529  -5.281 -21.352  0.00  0.00    +0.023 C 
ATOM      8  C   UNL     1      30.252  -5.944 -21.155  0.00  0.00    +0.119 C 
ATOM      9  C   UNL     1      32.098  -4.074 -21.892  0.00  0.00    +0.022 C 
ATOM     10  C   UNL     1      30.734  -3.876 -22.032  0.00  0.00    +0.099 C 
ENDBRANCH   2   6
ENDBRANCH   1   2
BRANCH   1  11
ATOM     11  C   UNL     1      32.933  -9.284 -22.437  0.00  0.00    +0.122 C 
BRANCH  11  13
ATOM     12  C   UNL     1      34.014  -6.209 -25.213  0.00  0.00    -0.023 C 
ATOM     13  C   UNL     1      33.310  -8.213 -23.404  0.00  0.00    -0.004 C 
ATOM     14  C   UNL     1      32.716  -6.719 -25.208  0.00  0.00    -0.005 C 
ATOM     15  C   UNL     1      34.961  -6.701 -24.314  0.00  0.00    -0.005 C 
ATOM     16  C   UNL     1      32.364  -7.721 -24.304  0.00  0.00    -0.003 C 
ATOM     17  C   UNL     1      34.609  -7.703 -23.409  0.00  0.00    -0.003 C 
BRANCH  12  18
ATOM     18  C   UNL     1      34.404  -5.106 -26.212  0.00  0.00    +0.019 C 
ATOM     19  C   UNL     1      33.716  -3.782 -25.817  0.00  0.00    +0.004 C 
ATOM     20  C   UNL     1      33.952  -5.510 -27.632  0.00  0.00    +0.004 C 
ATOM     21  C   UNL     1      35.922  -4.831 -26.276  0.00  0.00    +0.004 C 
ENDBRANCH  12  18
ENDBRANCH  11  13
ENDBRANCH   1  11
BRANCH   1  22
ATOM     22  C   UNL     1      30.888 -10.039 -21.294  0.00  0.00    +0.123 C 
BRANCH  22  23
ATOM     23  C   UNL     1      31.621 -11.350 -21.257  0.00  0.00    -0.001 C 
ATOM     24  C   UNL     1      31.943 -12.003 -22.447  0.00  0.00    +0.034 C 
ATOM     25  C   UNL     1      31.978 -11.914 -20.032  0.00  0.00    -0.003 C 
ATOM     26  C   UNL     1      32.623 -13.220 -22.411  0.00  0.00    +0.139 C 
ATOM     27  C   UNL     1      32.658 -13.132 -19.998  0.00  0.00    +0.003 C 
ATOM     28  C   UNL     1      32.980 -13.786 -21.187  0.00  0.00    +0.037 C 
BRANCH  26  29
ATOM     29  O   UNL     1      32.937 -13.860 -23.572  0.00  0.00    -0.464 OA
BRANCH  29  30
ATOM     30  C   UNL     1      33.987 -14.825 -23.517  0.00  0.00    +0.314 C 
BRANCH  30  32
ATOM     31  O   UNL     1      34.757 -16.555 -25.040  0.00  0.00    -0.246 OA
ATOM     32  C   UNL     1      33.942 -15.695 -24.743  0.00  0.00    +0.359 C 
BRANCH  32  33
ATOM     33  O   UNL     1      32.851 -15.393 -25.490  0.00  0.00    -0.478 OA
ATOM     34  H   UNL     1      32.047 -15.855 -25.355  0.00  0.00    +0.295 HD
ENDBRANCH  32  33
ENDBRANCH  30  32
ENDBRANCH  29  30
ENDBRANCH  26  29
ENDBRANCH  22  23
ENDBRANCH   1  22
TORSDOF 11
ENDMDL
MODEL 6
REMARK VINA RESULT:      -9.4      2.411      6.086
REMARK  Name = 9890801
REMARK  11 active torsions:
REMARK  status: ('A' for Active; 'I' for Inactive)
REMARK    1  A    between atoms: N_1  and  S_2
REMARK    2  A    between atoms: N_1  and  C_11
REMARK    3  A    between atoms: N_1  and  C_22
REMARK    4  A    between atoms: S_2  and  C_6
REMARK    5  A    between atoms: C_11  and  C_13
REMARK    6  A    between atoms: C_12  and  C_18
REMARK    7  A    between atoms: C_22  and  C_23
REMARK    8  A    between atoms: C_26  and  O_29
REMARK    9  A    between atoms: O_29  and  C_30
REMARK   10  A    between atoms: C_30  and  C_32
REMARK   11  A    between atoms: C_32  and  O_33
REMARK                            x       y       z     vdW  Elec       q    Type
REMARK                         _______ _______ _______ _____ _____    ______ ____
ROOT
ATOM      1  N   UNL     1      33.840 -22.725 -16.205  0.00  0.00    -0.147 NA
ENDROOT
BRANCH   1   2
ATOM      2  S   UNL     1      33.244 -22.930 -17.811  0.00  0.00    +0.065 S 
ATOM      3  O   UNL     1      31.882 -22.431 -17.888  0.00  0.00    -0.153 OA
ATOM      4  O   UNL     1      33.538 -24.276 -18.267  0.00  0.00    -0.153 OA
BRANCH   2   6
ATOM      5  N   UNL     1      34.424 -19.913 -20.218  0.00  0.00    -0.241 NA
ATOM      6  C   UNL     1      34.262 -21.823 -18.746  0.00  0.00    +0.141 C 
ATOM      7  C   UNL     1      35.645 -21.963 -18.763  0.00  0.00    +0.023 C 
ATOM      8  C   UNL     1      33.705 -20.790 -19.484  0.00  0.00    +0.119 C 
ATOM      9  C   UNL     1      36.419 -21.078 -19.507  0.00  0.00    +0.022 C 
ATOM     10  C   UNL     1      35.765 -20.079 -20.210  0.00  0.00    +0.099 C 
ENDBRANCH   2   6
ENDBRANCH   1   2
BRANCH   1  11
ATOM     11  C   UNL     1      35.208 -22.176 -16.039  0.00  0.00    +0.122 C 
BRANCH  11  13
ATOM     12  C   UNL     1      37.904 -24.979 -14.250  0.00  0.00    -0.023 C 
ATOM     13  C   UNL     1      36.147 -23.152 -15.416  0.00  0.00    -0.004 C 
ATOM     14  C   UNL     1      36.543 -25.276 -14.333  0.00  0.00    -0.005 C 
ATOM     15  C   UNL     1      38.386 -23.769 -14.749  0.00  0.00    -0.005 C 
ATOM     16  C   UNL     1      35.666 -24.362 -14.915  0.00  0.00    -0.003 C 
ATOM     17  C   UNL     1      37.508 -22.855 -15.332  0.00  0.00    -0.003 C 
BRANCH  12  18
ATOM     18  C   UNL     1      38.872 -25.986 -13.605  0.00  0.00    +0.019 C 
ATOM     19  C   UNL     1      38.555 -27.409 -14.110  0.00  0.00    +0.004 C 
ATOM     20  C   UNL     1      38.717 -25.944 -12.070  0.00  0.00    +0.004 C 
ATOM     21  C   UNL     1      40.359 -25.710 -13.921  0.00  0.00    +0.004 C 
ENDBRANCH  12  18
ENDBRANCH  11  13
ENDBRANCH   1  11
BRANCH   1  22
ATOM     22  C   UNL     1      32.901 -22.200 -15.181  0.00  0.00    +0.123 C 
BRANCH  22  23
ATOM     23  C   UNL     1      31.930 -23.245 -14.709  0.00  0.00    -0.001 C 
ATOM     24  C   UNL     1      30.584 -23.158 -15.065  0.00  0.00    +0.034 C 
ATOM     25  C   UNL     1      32.375 -24.302 -13.915  0.00  0.00    -0.003 C 
ATOM     26  C   UNL     1      29.683 -24.129 -14.627  0.00  0.00    +0.139 C 
ATOM     27  C   UNL     1      31.473 -25.272 -13.477  0.00  0.00    +0.003 C 
ATOM     28  C   UNL     1      30.127 -25.186 -13.832  0.00  0.00    +0.037 C 
BRANCH  26  29
ATOM     29  O   UNL     1      28.369 -24.044 -14.972  0.00  0.00    -0.464 OA
BRANCH  29  30
ATOM     30  C   UNL     1      27.850 -22.741 -15.237  0.00  0.00    +0.314 C 
BRANCH  30  32
ATOM     31  O   UNL     1      27.620 -23.496 -17.535  0.00  0.00    -0.246 OA
ATOM     32  C   UNL     1      27.464 -22.631 -16.686  0.00  0.00    +0.359 C 
BRANCH  32  33
ATOM     33  O   UNL     1      26.906 -21.419 -16.930  0.00  0.00    -0.478 OA
ATOM     34  H   UNL     1      26.053 -21.220 -16.599  0.00  0.00    +0.295 HD
ENDBRANCH  32  33
ENDBRANCH  30  32
ENDBRANCH  29  30
ENDBRANCH  26  29
ENDBRANCH  22  23
ENDBRANCH   1  22
TORSDOF 11
ENDMDL
MODEL 7
REMARK VINA RESULT:      -9.3      2.131      6.418
REMARK  Name = 9890801
REMARK  11 active torsions:
REMARK  status: ('A' for Active; 'I' for Inactive)
REMARK    1  A    between atoms: N_1  and  S_2
REMARK    2  A    between atoms: N_1  and  C_11
REMARK    3  A    between atoms: N_1  and  C_22
REMARK    4  A    between atoms: S_2  and  C_6
REMARK    5  A    between atoms: C_11  and  C_13
REMARK    6  A    between atoms: C_12  and  C_18
REMARK    7  A    between atoms: C_22  and  C_23
REMARK    8  A    between atoms: C_26  and  O_29
REMARK    9  A    between atoms: O_29  and  C_30
REMARK   10  A    between atoms: C_30  and  C_32
REMARK   11  A    between atoms: C_32  and  O_33
REMARK                            x       y       z     vdW  Elec       q    Type
REMARK                         _______ _______ _______ _____ _____    ______ ____
ROOT
ATOM      1  N   UNL     1      34.109 -22.870 -16.942  0.00  0.00    -0.147 NA
ENDROOT
BRANCH   1   2
ATOM      2  S   UNL     1      33.568 -22.777 -18.577  0.00  0.00    +0.065 S 
ATOM      3  O   UNL     1      32.208 -22.268 -18.608  0.00  0.00    -0.153 OA
ATOM      4  O   UNL     1      33.881 -24.018 -19.262  0.00  0.00    -0.153 OA
BRANCH   2   6
ATOM      5  N   UNL     1      34.823 -19.462 -20.508  0.00  0.00    -0.241 NA
ATOM      6  C   UNL     1      34.614 -21.522 -19.261  0.00  0.00    +0.141 C 
ATOM      7  C   UNL     1      35.995 -21.581 -19.111  0.00  0.00    +0.023 C 
ATOM      8  C   UNL     1      34.082 -20.451 -19.961  0.00  0.00    +0.119 C 
ATOM      9  C   UNL     1      36.791 -20.580 -19.659  0.00  0.00    +0.022 C 
ATOM     10  C   UNL     1      36.161 -19.552 -20.342  0.00  0.00    +0.099 C 
ENDBRANCH   2   6
ENDBRANCH   1   2
BRANCH   1  11
ATOM     11  C   UNL     1      35.557 -22.678 -16.680  0.00  0.00    +0.122 C 
BRANCH  11  13
ATOM     12  C   UNL     1      36.790 -24.342 -12.933  0.00  0.00    -0.023 C 
ATOM     13  C   UNL     1      35.986 -23.258 -15.375  0.00  0.00    -0.004 C 
ATOM     14  C   UNL     1      36.975 -22.983 -13.187  0.00  0.00    -0.005 C 
ATOM     15  C   UNL     1      36.203 -25.159 -13.899  0.00  0.00    -0.005 C 
ATOM     16  C   UNL     1      36.574 -22.441 -14.408  0.00  0.00    -0.003 C 
ATOM     17  C   UNL     1      35.801 -24.617 -15.120  0.00  0.00    -0.003 C 
BRANCH  12  18
ATOM     18  C   UNL     1      37.235 -24.940 -11.587  0.00  0.00    +0.019 C 
ATOM     19  C   UNL     1      38.474 -24.181 -11.066  0.00  0.00    +0.004 C 
ATOM     20  C   UNL     1      37.592 -26.430 -11.776  0.00  0.00    +0.004 C 
ATOM     21  C   UNL     1      36.156 -24.866 -10.484  0.00  0.00    +0.004 C 
ENDBRANCH  12  18
ENDBRANCH  11  13
ENDBRANCH   1  11
BRANCH   1  22
ATOM     22  C   UNL     1      33.265 -22.237 -15.897  0.00  0.00    +0.123 C 
BRANCH  22  23
ATOM     23  C   UNL     1      32.301 -23.209 -15.278  0.00  0.00    -0.001 C 
ATOM     24  C   UNL     1      30.975 -23.248 -15.709  0.00  0.00    +0.034 C 
ATOM     25  C   UNL     1      32.732 -24.072 -14.270  0.00  0.00    -0.003 C 
ATOM     26  C   UNL     1      30.081 -24.150 -15.134  0.00  0.00    +0.139 C 
ATOM     27  C   UNL     1      31.837 -24.974 -13.694  0.00  0.00    +0.003 C 
ATOM     28  C   UNL     1      30.511 -25.013 -14.126  0.00  0.00    +0.037 C 
BRANCH  26  29
ATOM     29  O   UNL     1      28.786 -24.188 -15.553  0.00  0.00    -0.464 OA
BRANCH  29  30
ATOM     30  C   UNL     1      27.998 -23.018 -15.333  0.00  0.00    +0.314 C 
BRANCH  30  32
ATOM     31  O   UNL     1      26.885 -21.457 -16.826  0.00  0.00    -0.246 OA
ATOM     32  C   UNL     1      27.433 -22.533 -16.639  0.00  0.00    +0.359 C 
BRANCH  32  33
ATOM     33  O   UNL     1      27.619 -23.468 -17.604  0.00  0.00    -0.478 OA
ATOM     34  H   UNL     1      26.993 -23.560 -18.295  0.00  0.00    +0.295 HD
ENDBRANCH  32  33
ENDBRANCH  30  32
ENDBRANCH  29  30
ENDBRANCH  26  29
ENDBRANCH  22  23
ENDBRANCH   1  22
TORSDOF 11
ENDMDL
MODEL 8
REMARK VINA RESULT:      -8.7     10.764     14.766
REMARK  Name = 9890801
REMARK  11 active torsions:
REMARK  status: ('A' for Active; 'I' for Inactive)
REMARK    1  A    between atoms: N_1  and  S_2
REMARK    2  A    between atoms: N_1  and  C_11
REMARK    3  A    between atoms: N_1  and  C_22
REMARK    4  A    between atoms: S_2  and  C_6
REMARK    5  A    between atoms: C_11  and  C_13
REMARK    6  A    between atoms: C_12  and  C_18
REMARK    7  A    between atoms: C_22  and  C_23
REMARK    8  A    between atoms: C_26  and  O_29
REMARK    9  A    between atoms: O_29  and  C_30
REMARK   10  A    between atoms: C_30  and  C_32
REMARK   11  A    between atoms: C_32  and  O_33
REMARK                            x       y       z     vdW  Elec       q    Type
REMARK                         _______ _______ _______ _____ _____    ______ ____
ROOT
ATOM      1  N   UNL     1      33.188 -12.113 -21.955  0.00  0.00    -0.147 NA
ENDROOT
BRANCH   1   2
ATOM      2  S   UNL     1      33.500 -13.681 -21.306  0.00  0.00    +0.065 S 
ATOM      3  O   UNL     1      32.286 -14.208 -20.710  0.00  0.00    -0.153 OA
ATOM      4  O   UNL     1      34.722 -13.645 -20.523  0.00  0.00    -0.153 OA
BRANCH   2   6
ATOM      5  N   UNL     1      35.100 -16.403 -23.821  0.00  0.00    -0.241 NA
ATOM      6  C   UNL     1      33.833 -14.641 -22.757  0.00  0.00    +0.141 C 
ATOM      7  C   UNL     1      33.134 -14.419 -23.938  0.00  0.00    +0.023 C 
ATOM      8  C   UNL     1      34.797 -15.636 -22.750  0.00  0.00    +0.119 C 
ATOM      9  C   UNL     1      33.417 -15.190 -25.062  0.00  0.00    +0.022 C 
ATOM     10  C   UNL     1      34.401 -16.160 -24.951  0.00  0.00    +0.099 C 
ENDBRANCH   2   6
ENDBRANCH   1   2
BRANCH   1  11
ATOM     11  C   UNL     1      33.735 -11.797 -23.297  0.00  0.00    +0.122 C 
BRANCH  11  13
ATOM     12  C   UNL     1      33.065  -7.726 -24.439  0.00  0.00    -0.023 C 
ATOM     13  C   UNL     1      33.501 -10.379 -23.695  0.00  0.00    -0.004 C 
ATOM     14  C   UNL     1      34.211  -8.070 -23.722  0.00  0.00    -0.005 C 
ATOM     15  C   UNL     1      32.137  -8.708 -24.783  0.00  0.00    -0.005 C 
ATOM     16  C   UNL     1      34.429  -9.396 -23.350  0.00  0.00    -0.003 C 
ATOM     17  C   UNL     1      32.355 -10.036 -24.411  0.00  0.00    -0.003 C 
BRANCH  12  18
ATOM     18  C   UNL     1      32.823  -6.263 -24.847  0.00  0.00    +0.019 C 
ATOM     19  C   UNL     1      33.308  -6.041 -26.295  0.00  0.00    +0.004 C 
ATOM     20  C   UNL     1      33.602  -5.325 -23.900  0.00  0.00    +0.004 C 
ATOM     21  C   UNL     1      31.339  -5.837 -24.791  0.00  0.00    +0.004 C 
ENDBRANCH  12  18
ENDBRANCH  11  13
ENDBRANCH   1  11
BRANCH   1  22
ATOM     22  C   UNL     1      31.831 -11.541 -21.757  0.00  0.00    +0.123 C 
BRANCH  22  23
ATOM     23  C   UNL     1      31.785 -10.570 -20.611  0.00  0.00    -0.001 C 
ATOM     24  C   UNL     1      31.769  -9.198 -20.859  0.00  0.00    +0.034 C 
ATOM     25  C   UNL     1      31.757 -11.042 -19.299  0.00  0.00    -0.003 C 
ATOM     26  C   UNL     1      31.726  -8.297 -19.795  0.00  0.00    +0.139 C 
ATOM     27  C   UNL     1      31.714 -10.141 -18.234  0.00  0.00    +0.003 C 
ATOM     28  C   UNL     1      31.699  -8.769 -18.482  0.00  0.00    +0.037 C 
BRANCH  26  29
ATOM     29  O   UNL     1      31.712  -6.958 -20.036  0.00  0.00    -0.464 OA
BRANCH  29  30
ATOM     30  C   UNL     1      31.356  -6.539 -21.353  0.00  0.00    +0.314 C 
BRANCH  30  32
ATOM     31  O   UNL     1      29.664  -4.800 -21.488  0.00  0.00    -0.246 OA
ATOM     32  C   UNL     1      30.827  -5.132 -21.314  0.00  0.00    +0.359 C 
BRANCH  32  33
ATOM     33  O   UNL     1      31.834  -4.261 -21.052  0.00  0.00    -0.478 OA
ATOM     34  H   UNL     1      32.531  -4.509 -20.478  0.00  0.00    +0.295 HD
ENDBRANCH  32  33
ENDBRANCH  30  32
ENDBRANCH  29  30
ENDBRANCH  26  29
ENDBRANCH  22  23
ENDBRANCH   1  22
TORSDOF 11
ENDMDL
MODEL 9
REMARK VINA RESULT:      -8.6     10.780     14.981
REMARK  Name = 9890801
REMARK  11 active torsions:
REMARK  status: ('A' for Active; 'I' for Inactive)
REMARK    1  A    between atoms: N_1  and  S_2
REMARK    2  A    between atoms: N_1  and  C_11
REMARK    3  A    between atoms: N_1  and  C_22
REMARK    4  A    between atoms: S_2  and  C_6
REMARK    5  A    between atoms: C_11  and  C_13
REMARK    6  A    between atoms: C_12  and  C_18
REMARK    7  A    between atoms: C_22  and  C_23
REMARK    8  A    between atoms: C_26  and  O_29
REMARK    9  A    between atoms: O_29  and  C_30
REMARK   10  A    between atoms: C_30  and  C_32
REMARK   11  A    between atoms: C_32  and  O_33
REMARK                            x       y       z     vdW  Elec       q    Type
REMARK                         _______ _______ _______ _____ _____    ______ ____
ROOT
ATOM      1  N   UNL     1      32.131 -10.479 -21.958  0.00  0.00    -0.147 NA
ENDROOT
BRANCH   1   2
ATOM      2  S   UNL     1      31.815  -9.896 -20.365  0.00  0.00    +0.065 S 
ATOM      3  O   UNL     1      32.857 -10.358 -19.466  0.00  0.00    -0.153 OA
ATOM      4  O   UNL     1      30.424 -10.137 -20.029  0.00  0.00    -0.153 OA
BRANCH   2   6
ATOM      5  N   UNL     1      33.235  -6.138 -19.978  0.00  0.00    -0.241 NA
ATOM      6  C   UNL     1      32.016  -8.146 -20.547  0.00  0.00    +0.141 C 
ATOM      7  C   UNL     1      31.163  -7.407 -21.359  0.00  0.00    +0.023 C 
ATOM      8  C   UNL     1      33.028  -7.470 -19.883  0.00  0.00    +0.119 C 
ATOM      9  C   UNL     1      31.345  -6.033 -21.482  0.00  0.00    +0.022 C 
ATOM     10  C   UNL     1      32.387  -5.453 -20.776  0.00  0.00    +0.099 C 
ENDBRANCH   2   6
ENDBRANCH   1   2
BRANCH   1  11
ATOM     11  C   UNL     1      33.475 -10.228 -22.534  0.00  0.00    +0.122 C 
BRANCH  11  13
ATOM     12  C   UNL     1      33.648  -6.605 -24.807  0.00  0.00    -0.023 C 
ATOM     13  C   UNL     1      33.535  -8.966 -23.325  0.00  0.00    -0.004 C 
ATOM     14  C   UNL     1      34.684  -6.928 -23.931  0.00  0.00    -0.005 C 
ATOM     15  C   UNL     1      32.555  -7.461 -24.943  0.00  0.00    -0.005 C 
ATOM     16  C   UNL     1      34.627  -8.108 -23.190  0.00  0.00    -0.003 C 
ATOM     17  C   UNL     1      32.499  -8.642 -24.202  0.00  0.00    -0.003 C 
BRANCH  12  18
ATOM     18  C   UNL     1      33.709  -5.302 -25.623  0.00  0.00    +0.019 C 
ATOM     19  C   UNL     1      33.070  -5.527 -27.010  0.00  0.00    +0.004 C 
ATOM     20  C   UNL     1      35.180  -4.872 -25.804  0.00  0.00    +0.004 C 
ATOM     21  C   UNL     1      32.966  -4.118 -24.964  0.00  0.00    +0.004 C 
ENDBRANCH  12  18
ENDBRANCH  11  13
ENDBRANCH   1  11
BRANCH   1  22
ATOM     22  C   UNL     1      31.613 -11.824 -22.317  0.00  0.00    +0.123 C 
BRANCH  22  23
ATOM     23  C   UNL     1      32.290 -12.920 -21.543  0.00  0.00    -0.001 C 
ATOM     24  C   UNL     1      33.349 -13.626 -22.115  0.00  0.00    +0.034 C 
ATOM     25  C   UNL     1      31.859 -13.231 -20.254  0.00  0.00    -0.003 C 
ATOM     26  C   UNL     1      33.976 -14.643 -21.396  0.00  0.00    +0.139 C 
ATOM     27  C   UNL     1      32.487 -14.249 -19.535  0.00  0.00    +0.003 C 
ATOM     28  C   UNL     1      33.546 -14.955 -20.107  0.00  0.00    +0.037 C 
BRANCH  26  29
ATOM     29  O   UNL     1      35.008 -15.334 -21.953  0.00  0.00    -0.464 OA
BRANCH  29  30
ATOM     30  C   UNL     1      35.245 -16.654 -21.463  0.00  0.00    +0.314 C 
BRANCH  30  32
ATOM     31  O   UNL     1      34.703 -17.707 -23.584  0.00  0.00    -0.246 OA
ATOM     32  C   UNL     1      35.441 -17.598 -22.617  0.00  0.00    +0.359 C 
BRANCH  32  33
ATOM     33  O   UNL     1      36.571 -18.327 -22.438  0.00  0.00    -0.478 OA
ATOM     34  H   UNL     1      37.248 -18.310 -23.086  0.00  0.00    +0.295 HD
ENDBRANCH  32  33
ENDBRANCH  30  32
ENDBRANCH  29  30
ENDBRANCH  26  29
ENDBRANCH  22  23
ENDBRANCH   1  22
TORSDOF 11
ENDMDL
