MODEL 1
REMARK VINA RESULT:     -12.4      0.000      0.000
REMARK  Name = 44141871
REMARK  6 active torsions:
REMARK  status: ('A' for Active; 'I' for Inactive)
REMARK    1  A    between atoms: C_1  and  C_10
REMARK    2  A    between atoms: C_4  and  O_20
REMARK    3  A    between atoms: C_9  and  C_13
REMARK    4  A    between atoms: C_13  and  C_15
REMARK    5  A    between atoms: O_20  and  C_21
REMARK    6  A    between atoms: C_21  and  C_23
REMARK                            x       y       z     vdW  Elec       q    Type
REMARK                         _______ _______ _______ _____ _____    ______ ____
ROOT
ATOM      1  C   UNL     1      34.558 -22.770 -16.917  0.00  0.00    +0.015 C 
ATOM      2  C   UNL     1      33.457 -22.690 -17.769  0.00  0.00    +0.004 C 
ATOM      3  C   UNL     1      35.752 -22.136 -17.259  0.00  0.00    +0.004 C 
ATOM      4  C   UNL     1      34.743 -21.340 -19.306  0.00  0.00    +0.139 C 
ATOM      5  C   UNL     1      33.549 -21.974 -18.963  0.00  0.00    +0.037 C 
ATOM      6  C   UNL     1      35.845 -21.420 -18.453  0.00  0.00    +0.037 C 
ENDROOT
BRANCH   1  10
ATOM      7  N   UNL     1      35.373 -24.457 -15.320  0.00  0.00    -0.236 N 
ATOM      8  N   UNL     1      35.111 -25.037 -14.135  0.00  0.00    -0.180 NA
ATOM      9  C   UNL     1      33.539 -23.465 -14.665  0.00  0.00    +0.018 C 
ATOM     10  C   UNL     1      34.462 -23.509 -15.682  0.00  0.00    +0.063 C 
ATOM     11  C   UNL     1      33.991 -24.427 -13.740  0.00  0.00    +0.115 C 
ATOM     12  H   UNL     1      36.151 -24.695 -15.875  0.00  0.00    +0.174 HD
BRANCH   9  13
ATOM     13  C   UNL     1      32.345 -22.611 -14.554  0.00  0.00    +0.056 C 
BRANCH  13  15
ATOM     14  N   UNL     1      28.627 -24.598 -15.490  0.00  0.00    -0.242 NA
ATOM     15  C   UNL     1      31.033 -23.312 -14.884  0.00  0.00    -0.015 C 
ATOM     16  C   UNL     1      30.634 -24.425 -14.153  0.00  0.00    +0.017 C 
ATOM     17  C   UNL     1      30.231 -22.841 -15.917  0.00  0.00    +0.017 C 
ATOM     18  C   UNL     1      29.433 -25.027 -14.493  0.00  0.00    +0.099 C 
ATOM     19  C   UNL     1      29.048 -23.514 -16.178  0.00  0.00    +0.099 C 
ENDBRANCH  13  15
ENDBRANCH   9  13
ENDBRANCH   1  10
BRANCH   4  20
ATOM     20  O   UNL     1      34.834 -20.635 -20.476  0.00  0.00    -0.468 OA
BRANCH  20  21
ATOM     21  C   UNL     1      35.984 -19.817 -20.645  0.00  0.00    +0.264 C 
BRANCH  21  23
ATOM     22  N   UNL     1      35.342 -17.484 -20.589  0.00  0.00    -0.406 NA
ATOM     23  C   UNL     1      35.602 -18.564 -21.360  0.00  0.00    +0.152 C 
ATOM     24  C   UNL     1      34.895 -16.238 -22.603  0.00  0.00    +0.026 C 
ATOM     25  C   UNL     1      34.993 -16.336 -21.199  0.00  0.00    +0.113 C 
ATOM     26  C   UNL     1      35.532 -18.566 -22.738  0.00  0.00    +0.031 C 
ATOM     27  C   UNL     1      35.172 -17.382 -23.364  0.00  0.00    +0.005 C 
ATOM     28  C   UNL     1      34.529 -15.023 -23.206  0.00  0.00    +0.002 C 
ATOM     29  C   UNL     1      34.717 -15.199 -20.443  0.00  0.00    +0.085 C 
ATOM     30  C   UNL     1      34.258 -13.902 -22.426  0.00  0.00    -0.004 C 
ATOM     31  C   UNL     1      34.353 -13.991 -21.043  0.00  0.00    -0.019 C 
ENDBRANCH  21  23
ENDBRANCH  20  21
ENDBRANCH   4  20
TORSDOF 6
ENDMDL
MODEL 2
REMARK VINA RESULT:     -12.3      2.013      9.760
REMARK  Name = 44141871
REMARK  6 active torsions:
REMARK  status: ('A' for Active; 'I' for Inactive)
REMARK    1  A    between atoms: C_1  and  C_10
REMARK    2  A    between atoms: C_4  and  O_20
REMARK    3  A    between atoms: C_9  and  C_13
REMARK    4  A    between atoms: C_13  and  C_15
REMARK    5  A    between atoms: O_20  and  C_21
REMARK    6  A    between atoms: C_21  and  C_23
REMARK                            x       y       z     vdW  Elec       q    Type
REMARK                         _______ _______ _______ _____ _____    ______ ____
ROOT
ATOM      1  C   UNL     1      35.091 -18.726 -21.653  0.00  0.00    +0.015 C 
ATOM      2  C   UNL     1      33.969 -19.444 -21.239  0.00  0.00    +0.004 C 
ATOM      3  C   UNL     1      36.338 -18.997 -21.091  0.00  0.00    +0.004 C 
ATOM      4  C   UNL     1      35.343 -20.704 -19.701  0.00  0.00    +0.139 C 
ATOM      5  C   UNL     1      34.095 -20.433 -20.263  0.00  0.00    +0.037 C 
ATOM      6  C   UNL     1      36.464 -19.986 -20.116  0.00  0.00    +0.037 C 
ENDROOT
BRANCH   1  10
ATOM      7  N   UNL     1      34.842 -17.992 -23.989  0.00  0.00    -0.236 N 
ATOM      8  N   UNL     1      34.733 -16.905 -24.774  0.00  0.00    -0.180 NA
ATOM      9  C   UNL     1      34.927 -16.333 -22.570  0.00  0.00    +0.018 C 
ATOM     10  C   UNL     1      34.960 -17.704 -22.662  0.00  0.00    +0.063 C 
ATOM     11  C   UNL     1      34.785 -15.895 -23.901  0.00  0.00    +0.115 C 
ATOM     12  H   UNL     1      34.837 -18.911 -24.341  0.00  0.00    +0.174 HD
BRANCH   9  13
ATOM     13  C   UNL     1      35.018 -15.498 -21.360  0.00  0.00    +0.056 C 
BRANCH  13  15
ATOM     14  N   UNL     1      31.960 -12.465 -21.041  0.00  0.00    -0.242 NA
ATOM     15  C   UNL     1      33.939 -14.429 -21.247  0.00  0.00    -0.015 C 
ATOM     16  C   UNL     1      33.829 -13.444 -22.223  0.00  0.00    +0.017 C 
ATOM     17  C   UNL     1      33.061 -14.433 -20.170  0.00  0.00    +0.017 C 
ATOM     18  C   UNL     1      32.832 -12.493 -22.074  0.00  0.00    +0.099 C 
ATOM     19  C   UNL     1      32.098 -13.438 -20.113  0.00  0.00    +0.099 C 
ENDBRANCH  13  15
ENDBRANCH   9  13
ENDBRANCH   1  10
BRANCH   4  20
ATOM     20  O   UNL     1      35.467 -21.677 -18.746  0.00  0.00    -0.468 OA
BRANCH  20  21
ATOM     21  C   UNL     1      34.513 -22.732 -18.777  0.00  0.00    +0.264 C 
BRANCH  21  23
ATOM     22  N   UNL     1      32.510 -22.820 -17.422  0.00  0.00    -0.406 NA
ATOM     23  C   UNL     1      33.862 -22.850 -17.440  0.00  0.00    +0.152 C 
ATOM     24  C   UNL     1      32.602 -23.062 -15.027  0.00  0.00    +0.026 C 
ATOM     25  C   UNL     1      31.886 -22.924 -16.234  0.00  0.00    +0.113 C 
ATOM     26  C   UNL     1      34.647 -22.981 -16.313  0.00  0.00    +0.031 C 
ATOM     27  C   UNL     1      34.002 -23.088 -15.090  0.00  0.00    +0.005 C 
ATOM     28  C   UNL     1      31.918 -23.168 -13.804  0.00  0.00    +0.002 C 
ATOM     29  C   UNL     1      30.495 -22.897 -16.170  0.00  0.00    +0.085 C 
ATOM     30  C   UNL     1      30.527 -23.138 -13.770  0.00  0.00    -0.004 C 
ATOM     31  C   UNL     1      29.815 -23.003 -14.955  0.00  0.00    -0.019 C 
ENDBRANCH  21  23
ENDBRANCH  20  21
ENDBRANCH   4  20
TORSDOF 6
ENDMDL
MODEL 3
REMARK VINA RESULT:     -12.1      2.521      9.923
REMARK  Name = 44141871
REMARK  6 active torsions:
REMARK  status: ('A' for Active; 'I' for Inactive)
REMARK    1  A    between atoms: C_1  and  C_10
REMARK    2  A    between atoms: C_4  and  O_20
REMARK    3  A    between atoms: C_9  and  C_13
REMARK    4  A    between atoms: C_13  and  C_15
REMARK    5  A    between atoms: O_20  and  C_21
REMARK    6  A    between atoms: C_21  and  C_23
REMARK                            x       y       z     vdW  Elec       q    Type
REMARK                         _______ _______ _______ _____ _____    ______ ____
ROOT
ATOM      1  C   UNL     1      35.313 -18.483 -21.960  0.00  0.00    +0.015 C 
ATOM      2  C   UNL     1      34.397 -19.389 -21.424  0.00  0.00    +0.004 C 
ATOM      3  C   UNL     1      36.620 -18.443 -21.474  0.00  0.00    +0.004 C 
ATOM      4  C   UNL     1      36.096 -20.215 -19.917  0.00  0.00    +0.139 C 
ATOM      5  C   UNL     1      34.789 -20.255 -20.403  0.00  0.00    +0.037 C 
ATOM      6  C   UNL     1      37.011 -19.309 -20.453  0.00  0.00    +0.037 C 
ENDROOT
BRANCH   1  10
ATOM      7  N   UNL     1      34.508 -18.031 -24.242  0.00  0.00    -0.236 N 
ATOM      8  N   UNL     1      34.171 -17.045 -25.092  0.00  0.00    -0.180 NA
ATOM      9  C   UNL     1      34.826 -16.217 -23.065  0.00  0.00    +0.018 C 
ATOM     10  C   UNL     1      34.907 -17.588 -23.015  0.00  0.00    +0.063 C 
ATOM     11  C   UNL     1      34.366 -15.940 -24.368  0.00  0.00    +0.115 C 
ATOM     12  H   UNL     1      34.471 -18.985 -24.483  0.00  0.00    +0.174 HD
BRANCH   9  13
ATOM     13  C   UNL     1      35.144 -15.246 -22.005  0.00  0.00    +0.056 C 
BRANCH  13  15
ATOM     14  N   UNL     1      31.760 -12.969 -20.586  0.00  0.00    -0.242 NA
ATOM     15  C   UNL     1      33.951 -14.443 -21.505  0.00  0.00    -0.015 C 
ATOM     16  C   UNL     1      33.407 -14.708 -20.252  0.00  0.00    +0.017 C 
ATOM     17  C   UNL     1      33.401 -13.442 -22.297  0.00  0.00    +0.017 C 
ATOM     18  C   UNL     1      32.322 -13.950 -19.843  0.00  0.00    +0.099 C 
ATOM     19  C   UNL     1      32.316 -12.740 -21.797  0.00  0.00    +0.099 C 
ENDBRANCH  13  15
ENDBRANCH   9  13
ENDBRANCH   1  10
BRANCH   4  20
ATOM     20  O   UNL     1      36.482 -21.068 -18.917  0.00  0.00    -0.468 OA
BRANCH  20  21
ATOM     21  C   UNL     1      35.518 -22.014 -18.475  0.00  0.00    +0.264 C 
BRANCH  21  23
ATOM     22  N   UNL     1      34.779 -22.956 -16.371  0.00  0.00    -0.406 NA
ATOM     23  C   UNL     1      35.791 -22.372 -17.051  0.00  0.00    +0.152 C 
ATOM     24  C   UNL     1      36.220 -23.052 -14.443  0.00  0.00    +0.026 C 
ATOM     25  C   UNL     1      34.988 -23.293 -15.084  0.00  0.00    +0.113 C 
ATOM     26  C   UNL     1      37.029 -22.095 -16.510  0.00  0.00    +0.031 C 
ATOM     27  C   UNL     1      37.242 -22.443 -15.184  0.00  0.00    +0.005 C 
ATOM     28  C   UNL     1      36.403 -23.417 -13.098  0.00  0.00    +0.002 C 
ATOM     29  C   UNL     1      33.973 -23.898 -14.347  0.00  0.00    +0.085 C 
ATOM     30  C   UNL     1      35.371 -24.019 -12.384  0.00  0.00    -0.004 C 
ATOM     31  C   UNL     1      34.155 -24.261 -13.010  0.00  0.00    -0.019 C 
ENDBRANCH  21  23
ENDBRANCH  20  21
ENDBRANCH   4  20
TORSDOF 6
ENDMDL
MODEL 4
REMARK VINA RESULT:     -12.1      1.976      3.794
REMARK  Name = 44141871
REMARK  6 active torsions:
REMARK  status: ('A' for Active; 'I' for Inactive)
REMARK    1  A    between atoms: C_1  and  C_10
REMARK    2  A    between atoms: C_4  and  O_20
REMARK    3  A    between atoms: C_9  and  C_13
REMARK    4  A    between atoms: C_13  and  C_15
REMARK    5  A    between atoms: O_20  and  C_21
REMARK    6  A    between atoms: C_21  and  C_23
REMARK                            x       y       z     vdW  Elec       q    Type
REMARK                         _______ _______ _______ _____ _____    ______ ____
ROOT
ATOM      1  C   UNL     1      33.974 -21.804 -18.417  0.00  0.00    +0.015 C 
ATOM      2  C   UNL     1      35.336 -21.809 -18.717  0.00  0.00    +0.004 C 
ATOM      3  C   UNL     1      33.090 -21.062 -19.201  0.00  0.00    +0.004 C 
ATOM      4  C   UNL     1      34.931 -20.330 -20.584  0.00  0.00    +0.139 C 
ATOM      5  C   UNL     1      35.814 -21.072 -19.800  0.00  0.00    +0.037 C 
ATOM      6  C   UNL     1      33.569 -20.325 -20.284  0.00  0.00    +0.037 C 
ENDROOT
BRANCH   1  10
ATOM      7  N   UNL     1      32.169 -22.919 -17.169  0.00  0.00    -0.236 N 
ATOM      8  N   UNL     1      31.903 -23.627 -16.057  0.00  0.00    -0.180 NA
ATOM      9  C   UNL     1      34.117 -23.077 -16.192  0.00  0.00    +0.018 C 
ATOM     10  C   UNL     1      33.480 -22.566 -17.297  0.00  0.00    +0.063 C 
ATOM     11  C   UNL     1      33.096 -23.720 -15.464  0.00  0.00    +0.115 C 
ATOM     12  H   UNL     1      31.480 -22.679 -17.831  0.00  0.00    +0.174 HD
BRANCH   9  13
ATOM     13  C   UNL     1      35.543 -22.982 -15.836  0.00  0.00    +0.056 C 
BRANCH  13  15
ATOM     14  N   UNL     1      36.700 -25.349 -12.415  0.00  0.00    -0.242 NA
ATOM     15  C   UNL     1      35.951 -23.817 -14.630  0.00  0.00    -0.015 C 
ATOM     16  C   UNL     1      35.877 -23.276 -13.350  0.00  0.00    +0.017 C 
ATOM     17  C   UNL     1      36.399 -25.121 -14.802  0.00  0.00    +0.017 C 
ATOM     18  C   UNL     1      36.260 -24.077 -12.286  0.00  0.00    +0.099 C 
ATOM     19  C   UNL     1      36.758 -25.839 -13.673  0.00  0.00    +0.099 C 
ENDBRANCH  13  15
ENDBRANCH   9  13
ENDBRANCH   1  10
BRANCH   4  20
ATOM     20  O   UNL     1      35.400 -19.609 -21.650  0.00  0.00    -0.468 OA
BRANCH  20  21
ATOM     21  C   UNL     1      35.936 -18.322 -21.368  0.00  0.00    +0.264 C 
BRANCH  21  23
ATOM     22  N   UNL     1      35.150 -16.071 -21.787  0.00  0.00    -0.406 NA
ATOM     23  C   UNL     1      35.322 -17.317 -22.285  0.00  0.00    +0.152 C 
ATOM     24  C   UNL     1      34.203 -15.428 -23.906  0.00  0.00    +0.026 C 
ATOM     25  C   UNL     1      34.599 -15.138 -22.584  0.00  0.00    +0.113 C 
ATOM     26  C   UNL     1      34.966 -17.696 -23.563  0.00  0.00    +0.031 C 
ATOM     27  C   UNL     1      34.398 -16.731 -24.383  0.00  0.00    +0.005 C 
ATOM     28  C   UNL     1      33.631 -14.428 -24.711  0.00  0.00    +0.002 C 
ATOM     29  C   UNL     1      34.405 -13.842 -22.112  0.00  0.00    +0.085 C 
ATOM     30  C   UNL     1      33.448 -13.141 -24.213  0.00  0.00    -0.004 C 
ATOM     31  C   UNL     1      33.837 -12.848 -22.912  0.00  0.00    -0.019 C 
ENDBRANCH  21  23
ENDBRANCH  20  21
ENDBRANCH   4  20
TORSDOF 6
ENDMDL
MODEL 5
REMARK VINA RESULT:     -12.1      4.283     11.988
REMARK  Name = 44141871
REMARK  6 active torsions:
REMARK  status: ('A' for Active; 'I' for Inactive)
REMARK    1  A    between atoms: C_1  and  C_10
REMARK    2  A    between atoms: C_4  and  O_20
REMARK    3  A    between atoms: C_9  and  C_13
REMARK    4  A    between atoms: C_13  and  C_15
REMARK    5  A    between atoms: O_20  and  C_21
REMARK    6  A    between atoms: C_21  and  C_23
REMARK                            x       y       z     vdW  Elec       q    Type
REMARK                         _______ _______ _______ _____ _____    ______ ____
ROOT
ATOM      1  C   UNL     1      33.162 -13.408 -21.926  0.00  0.00    +0.015 C 
ATOM      2  C   UNL     1      33.750 -13.993 -20.804  0.00  0.00    +0.004 C 
ATOM      3  C   UNL     1      33.437 -13.909 -23.198  0.00  0.00    +0.004 C 
ATOM      4  C   UNL     1      34.887 -15.580 -22.228  0.00  0.00    +0.139 C 
ATOM      5  C   UNL     1      34.612 -15.079 -20.955  0.00  0.00    +0.037 C 
ATOM      6  C   UNL     1      34.299 -14.995 -23.349  0.00  0.00    +0.037 C 
ENDROOT
BRANCH   1  10
ATOM      7  N   UNL     1      31.204 -12.307 -20.920  0.00  0.00    -0.236 N 
ATOM      8  N   UNL     1      30.491 -11.167 -20.914  0.00  0.00    -0.180 NA
ATOM      9  C   UNL     1      32.255 -11.046 -22.362  0.00  0.00    +0.018 C 
ATOM     10  C   UNL     1      32.270 -12.285 -21.769  0.00  0.00    +0.063 C 
ATOM     11  C   UNL     1      31.137 -10.400 -21.797  0.00  0.00    +0.115 C 
ATOM     12  H   UNL     1      30.977 -13.085 -20.361  0.00  0.00    +0.174 HD
BRANCH   9  13
ATOM     13  C   UNL     1      33.188 -10.503 -23.363  0.00  0.00    +0.056 C 
BRANCH  13  15
ATOM     14  N   UNL     1      32.970  -6.220 -23.880  0.00  0.00    -0.242 NA
ATOM     15  C   UNL     1      33.111  -8.992 -23.545  0.00  0.00    -0.015 C 
ATOM     16  C   UNL     1      32.125  -8.437 -24.352  0.00  0.00    +0.017 C 
ATOM     17  C   UNL     1      34.027  -8.164 -22.905  0.00  0.00    +0.017 C 
ATOM     18  C   UNL     1      32.098  -7.058 -24.486  0.00  0.00    +0.099 C 
ATOM     19  C   UNL     1      33.914  -6.797 -23.103  0.00  0.00    +0.099 C 
ENDBRANCH  13  15
ENDBRANCH   9  13
ENDBRANCH   1  10
BRANCH   4  20
ATOM     20  O   UNL     1      35.731 -16.649 -22.376  0.00  0.00    -0.468 OA
BRANCH  20  21
ATOM     21  C   UNL     1      35.133 -17.897 -22.700  0.00  0.00    +0.264 C 
BRANCH  21  23
ATOM     22  N   UNL     1      34.306 -19.568 -21.156  0.00  0.00    -0.406 NA
ATOM     23  C   UNL     1      35.377 -18.867 -21.592  0.00  0.00    +0.152 C 
ATOM     24  C   UNL     1      35.750 -20.658 -19.566  0.00  0.00    +0.026 C 
ATOM     25  C   UNL     1      34.487 -20.452 -20.158  0.00  0.00    +0.113 C 
ATOM     26  C   UNL     1      36.650 -18.998 -21.076  0.00  0.00    +0.031 C 
ATOM     27  C   UNL     1      36.834 -19.910 -20.047  0.00  0.00    +0.005 C 
ATOM     28  C   UNL     1      35.903 -21.590 -18.525  0.00  0.00    +0.002 C 
ATOM     29  C   UNL     1      33.410 -21.195 -19.679  0.00  0.00    +0.085 C 
ATOM     30  C   UNL     1      34.809 -22.319 -18.066  0.00  0.00    -0.004 C 
ATOM     31  C   UNL     1      33.562 -22.122 -18.644  0.00  0.00    -0.019 C 
ENDBRANCH  21  23
ENDBRANCH  20  21
ENDBRANCH   4  20
TORSDOF 6
ENDMDL
MODEL 6
REMARK VINA RESULT:     -12.0      3.478     10.818
REMARK  Name = 44141871
REMARK  6 active torsions:
REMARK  status: ('A' for Active; 'I' for Inactive)
REMARK    1  A    between atoms: C_1  and  C_10
REMARK    2  A    between atoms: C_4  and  O_20
REMARK    3  A    between atoms: C_9  and  C_13
REMARK    4  A    between atoms: C_13  and  C_15
REMARK    5  A    between atoms: O_20  and  C_21
REMARK    6  A    between atoms: C_21  and  C_23
REMARK                            x       y       z     vdW  Elec       q    Type
REMARK                         _______ _______ _______ _____ _____    ______ ____
ROOT
ATOM      1  C   UNL     1      34.281 -14.188 -22.272  0.00  0.00    +0.015 C 
ATOM      2  C   UNL     1      34.251 -14.408 -20.895  0.00  0.00    +0.004 C 
ATOM      3  C   UNL     1      34.795 -15.168 -23.123  0.00  0.00    +0.004 C 
ATOM      4  C   UNL     1      35.248 -16.585 -21.219  0.00  0.00    +0.139 C 
ATOM      5  C   UNL     1      34.734 -15.606 -20.369  0.00  0.00    +0.037 C 
ATOM      6  C   UNL     1      35.277 -16.365 -22.596  0.00  0.00    +0.037 C 
ENDROOT
BRANCH   1  10
ATOM      7  N   UNL     1      34.319 -12.363 -23.923  0.00  0.00    -0.236 N 
ATOM      8  N   UNL     1      33.717 -11.213 -24.275  0.00  0.00    -0.180 NA
ATOM      9  C   UNL     1      32.757 -12.127 -22.414  0.00  0.00    +0.018 C 
ATOM     10  C   UNL     1      33.781 -12.950 -22.816  0.00  0.00    +0.063 C 
ATOM     11  C   UNL     1      32.764 -11.074 -23.350  0.00  0.00    +0.115 C 
ATOM     12  H   UNL     1      35.077 -12.747 -24.420  0.00  0.00    +0.174 HD
BRANCH   9  13
ATOM     13  C   UNL     1      31.849 -12.296 -21.266  0.00  0.00    +0.056 C 
BRANCH  13  15
ATOM     14  N   UNL     1      31.780  -8.956 -18.530  0.00  0.00    -0.242 NA
ATOM     15  C   UNL     1      31.825 -11.118 -20.301  0.00  0.00    -0.015 C 
ATOM     16  C   UNL     1      31.642  -9.826 -20.782  0.00  0.00    +0.017 C 
ATOM     17  C   UNL     1      31.984 -11.330 -18.937  0.00  0.00    +0.017 C 
ATOM     18  C   UNL     1      31.628  -8.789 -19.863  0.00  0.00    +0.099 C 
ATOM     19  C   UNL     1      31.954 -10.225 -18.100  0.00  0.00    +0.099 C 
ENDBRANCH  13  15
ENDBRANCH   9  13
ENDBRANCH   1  10
BRANCH   4  20
ATOM     20  O   UNL     1      35.719 -17.762 -20.703  0.00  0.00    -0.468 OA
BRANCH  20  21
ATOM     21  C   UNL     1      35.381 -18.951 -21.406  0.00  0.00    +0.264 C 
BRANCH  21  23
ATOM     22  N   UNL     1      35.548 -20.501 -19.554  0.00  0.00    -0.406 NA
ATOM     23  C   UNL     1      34.739 -19.917 -20.467  0.00  0.00    +0.152 C 
ATOM     24  C   UNL     1      33.632 -21.696 -18.717  0.00  0.00    +0.026 C 
ATOM     25  C   UNL     1      35.005 -21.378 -18.690  0.00  0.00    +0.113 C 
ATOM     26  C   UNL     1      33.386 -20.165 -20.572  0.00  0.00    +0.031 C 
ATOM     27  C   UNL     1      32.828 -21.070 -19.680  0.00  0.00    +0.005 C 
ATOM     28  C   UNL     1      33.098 -22.617 -17.799  0.00  0.00    +0.002 C 
ATOM     29  C   UNL     1      35.803 -22.001 -17.733  0.00  0.00    +0.085 C 
ATOM     30  C   UNL     1      33.918 -23.226 -16.854  0.00  0.00    -0.004 C 
ATOM     31  C   UNL     1      35.272 -22.917 -16.820  0.00  0.00    -0.019 C 
ENDBRANCH  21  23
ENDBRANCH  20  21
ENDBRANCH   4  20
TORSDOF 6
ENDMDL
MODEL 7
REMARK VINA RESULT:     -11.9      2.064      3.919
REMARK  Name = 44141871
REMARK  6 active torsions:
REMARK  status: ('A' for Active; 'I' for Inactive)
REMARK    1  A    between atoms: C_1  and  C_10
REMARK    2  A    between atoms: C_4  and  O_20
REMARK    3  A    between atoms: C_9  and  C_13
REMARK    4  A    between atoms: C_13  and  C_15
REMARK    5  A    between atoms: O_20  and  C_21
REMARK    6  A    between atoms: C_21  and  C_23
REMARK                            x       y       z     vdW  Elec       q    Type
REMARK                         _______ _______ _______ _____ _____    ______ ____
ROOT
ATOM      1  C   UNL     1      34.323 -22.396 -17.479  0.00  0.00    +0.015 C 
ATOM      2  C   UNL     1      33.280 -22.030 -18.329  0.00  0.00    +0.004 C 
ATOM      3  C   UNL     1      35.637 -22.064 -17.805  0.00  0.00    +0.004 C 
ATOM      4  C   UNL     1      34.866 -20.998 -19.831  0.00  0.00    +0.139 C 
ATOM      5  C   UNL     1      33.551 -21.330 -19.505  0.00  0.00    +0.037 C 
ATOM      6  C   UNL     1      35.909 -21.365 -18.981  0.00  0.00    +0.037 C 
ENDROOT
BRANCH   1  10
ATOM      7  N   UNL     1      32.778 -23.485 -15.901  0.00  0.00    -0.236 N 
ATOM      8  N   UNL     1      32.719 -24.150 -14.734  0.00  0.00    -0.180 NA
ATOM      9  C   UNL     1      34.866 -23.575 -15.263  0.00  0.00    +0.018 C 
ATOM     10  C   UNL     1      34.041 -23.119 -16.263  0.00  0.00    +0.063 C 
ATOM     11  C   UNL     1      33.997 -24.202 -14.349  0.00  0.00    +0.115 C 
ATOM     12  H   UNL     1      31.983 -23.282 -16.445  0.00  0.00    +0.174 HD
BRANCH   9  13
ATOM     13  C   UNL     1      36.329 -23.444 -15.158  0.00  0.00    +0.056 C 
BRANCH  13  15
ATOM     14  N   UNL     1      38.202 -26.319 -12.536  0.00  0.00    -0.242 NA
ATOM     15  C   UNL     1      36.990 -24.458 -14.233  0.00  0.00    -0.015 C 
ATOM     16  C   UNL     1      37.131 -25.781 -14.637  0.00  0.00    +0.017 C 
ATOM     17  C   UNL     1      37.454 -24.064 -12.984  0.00  0.00    +0.017 C 
ATOM     18  C   UNL     1      37.739 -26.664 -13.759  0.00  0.00    +0.099 C 
ATOM     19  C   UNL     1      38.047 -25.024 -12.180  0.00  0.00    +0.099 C 
ENDBRANCH  13  15
ENDBRANCH   9  13
ENDBRANCH   1  10
BRANCH   4  20
ATOM     20  O   UNL     1      35.133 -20.308 -20.984  0.00  0.00    -0.468 OA
BRANCH  20  21
ATOM     21  C   UNL     1      36.147 -19.315 -20.916  0.00  0.00    +0.264 C 
BRANCH  21  23
ATOM     22  N   UNL     1      35.311 -17.059 -20.649  0.00  0.00    -0.406 NA
ATOM     23  C   UNL     1      35.639 -18.045 -21.514  0.00  0.00    +0.152 C 
ATOM     24  C   UNL     1      34.701 -15.695 -22.539  0.00  0.00    +0.026 C 
ATOM     25  C   UNL     1      34.848 -15.899 -21.151  0.00  0.00    +0.113 C 
ATOM     26  C   UNL     1      35.528 -17.940 -22.886  0.00  0.00    +0.031 C 
ATOM     27  C   UNL     1      35.051 -16.743 -23.401  0.00  0.00    +0.005 C 
ATOM     28  C   UNL     1      34.215 -14.471 -23.028  0.00  0.00    +0.002 C 
ATOM     29  C   UNL     1      34.499 -14.857 -20.296  0.00  0.00    +0.085 C 
ATOM     30  C   UNL     1      33.873 -13.446 -22.150  0.00  0.00    -0.004 C 
ATOM     31  C   UNL     1      34.016 -13.640 -20.782  0.00  0.00    -0.019 C 
ENDBRANCH  21  23
ENDBRANCH  20  21
ENDBRANCH   4  20
TORSDOF 6
ENDMDL
MODEL 8
REMARK VINA RESULT:     -11.9      2.048      3.959
REMARK  Name = 44141871
REMARK  6 active torsions:
REMARK  status: ('A' for Active; 'I' for Inactive)
REMARK    1  A    between atoms: C_1  and  C_10
REMARK    2  A    between atoms: C_4  and  O_20
REMARK    3  A    between atoms: C_9  and  C_13
REMARK    4  A    between atoms: C_13  and  C_15
REMARK    5  A    between atoms: O_20  and  C_21
REMARK    6  A    between atoms: C_21  and  C_23
REMARK                            x       y       z     vdW  Elec       q    Type
REMARK                         _______ _______ _______ _____ _____    ______ ____
ROOT
ATOM      1  C   UNL     1      34.311 -22.833 -16.636  0.00  0.00    +0.015 C 
ATOM      2  C   UNL     1      33.432 -22.712 -17.712  0.00  0.00    +0.004 C 
ATOM      3  C   UNL     1      35.630 -22.395 -16.760  0.00  0.00    +0.004 C 
ATOM      4  C   UNL     1      35.190 -21.714 -19.036  0.00  0.00    +0.139 C 
ATOM      5  C   UNL     1      33.872 -22.152 -18.912  0.00  0.00    +0.037 C 
ATOM      6  C   UNL     1      36.069 -21.835 -17.960  0.00  0.00    +0.037 C 
ENDROOT
BRANCH   1  10
ATOM      7  N   UNL     1      32.563 -23.790 -15.192  0.00  0.00    -0.236 N 
ATOM      8  N   UNL     1      32.333 -24.307 -13.972  0.00  0.00    -0.180 NA
ATOM      9  C   UNL     1      34.521 -23.701 -14.228  0.00  0.00    +0.018 C 
ATOM     10  C   UNL     1      33.857 -23.412 -15.396  0.00  0.00    +0.063 C 
ATOM     11  C   UNL     1      33.533 -24.250 -13.388  0.00  0.00    +0.115 C 
ATOM     12  H   UNL     1      31.860 -23.694 -15.876  0.00  0.00    +0.174 HD
BRANCH   9  13
ATOM     13  C   UNL     1      35.944 -23.489 -13.914  0.00  0.00    +0.056 C 
BRANCH  13  15
ATOM     14  N   UNL     1      38.401 -27.025 -14.246  0.00  0.00    -0.242 NA
ATOM     15  C   UNL     1      36.811 -24.736 -14.031  0.00  0.00    -0.015 C 
ATOM     16  C   UNL     1      38.115 -24.727 -13.547  0.00  0.00    +0.017 C 
ATOM     17  C   UNL     1      36.302 -25.887 -14.621  0.00  0.00    +0.017 C 
ATOM     18  C   UNL     1      38.861 -25.887 -13.678  0.00  0.00    +0.099 C 
ATOM     19  C   UNL     1      37.130 -26.994 -14.704  0.00  0.00    +0.099 C 
ENDBRANCH  13  15
ENDBRANCH   9  13
ENDBRANCH   1  10
BRANCH   4  20
ATOM     20  O   UNL     1      35.621 -21.161 -20.212  0.00  0.00    -0.468 OA
BRANCH  20  21
ATOM     21  C   UNL     1      36.200 -19.864 -20.137  0.00  0.00    +0.264 C 
BRANCH  21  23
ATOM     22  N   UNL     1      35.597 -17.701 -21.042  0.00  0.00    -0.406 NA
ATOM     23  C   UNL     1      35.698 -19.031 -21.269  0.00  0.00    +0.152 C 
ATOM     24  C   UNL     1      34.788 -17.445 -23.296  0.00  0.00    +0.026 C 
ATOM     25  C   UNL     1      35.148 -16.917 -22.040  0.00  0.00    +0.113 C 
ATOM     26  C   UNL     1      35.369 -19.639 -22.463  0.00  0.00    +0.031 C 
ATOM     27  C   UNL     1      34.907 -18.828 -23.490  0.00  0.00    +0.005 C 
ATOM     28  C   UNL     1      34.323 -16.596 -24.316  0.00  0.00    +0.002 C 
ATOM     29  C   UNL     1      35.029 -15.543 -21.848  0.00  0.00    +0.085 C 
ATOM     30  C   UNL     1      34.213 -15.226 -24.097  0.00  0.00    -0.004 C 
ATOM     31  C   UNL     1      34.568 -14.699 -22.861  0.00  0.00    -0.019 C 
ENDBRANCH  21  23
ENDBRANCH  20  21
ENDBRANCH   4  20
TORSDOF 6
ENDMDL
MODEL 9
REMARK VINA RESULT:     -11.8      2.445      9.910
REMARK  Name = 44141871
REMARK  6 active torsions:
REMARK  status: ('A' for Active; 'I' for Inactive)
REMARK    1  A    between atoms: C_1  and  C_10
REMARK    2  A    between atoms: C_4  and  O_20
REMARK    3  A    between atoms: C_9  and  C_13
REMARK    4  A    between atoms: C_13  and  C_15
REMARK    5  A    between atoms: O_20  and  C_21
REMARK    6  A    between atoms: C_21  and  C_23
REMARK                            x       y       z     vdW  Elec       q    Type
REMARK                         _______ _______ _______ _____ _____    ______ ____
ROOT
ATOM      1  C   UNL     1      35.072 -18.705 -21.848  0.00  0.00    +0.015 C 
ATOM      2  C   UNL     1      36.326 -18.818 -21.247  0.00  0.00    +0.004 C 
ATOM      3  C   UNL     1      34.017 -19.509 -21.415  0.00  0.00    +0.004 C 
ATOM      4  C   UNL     1      35.471 -20.538 -19.782  0.00  0.00    +0.139 C 
ATOM      5  C   UNL     1      36.525 -19.734 -20.215  0.00  0.00    +0.037 C 
ATOM      6  C   UNL     1      34.217 -20.425 -20.382  0.00  0.00    +0.037 C 
ENDROOT
BRANCH   1  10
ATOM      7  N   UNL     1      34.568 -18.139 -24.189  0.00  0.00    -0.236 N 
ATOM      8  N   UNL     1      34.415 -17.111 -25.043  0.00  0.00    -0.180 NA
ATOM      9  C   UNL     1      34.912 -16.384 -22.934  0.00  0.00    +0.018 C 
ATOM     10  C   UNL     1      34.866 -17.757 -22.915  0.00  0.00    +0.063 C 
ATOM     11  C   UNL     1      34.626 -16.042 -24.270  0.00  0.00    +0.115 C 
ATOM     12  H   UNL     1      34.473 -19.081 -24.460  0.00  0.00    +0.174 HD
BRANCH   9  13
ATOM     13  C   UNL     1      35.196 -15.466 -21.818  0.00  0.00    +0.056 C 
BRANCH  13  15
ATOM     14  N   UNL     1      31.837 -13.044 -20.592  0.00  0.00    -0.242 NA
ATOM     15  C   UNL     1      34.011 -14.612 -21.386  0.00  0.00    -0.015 C 
ATOM     16  C   UNL     1      33.528 -13.613 -22.225  0.00  0.00    +0.017 C 
ATOM     17  C   UNL     1      33.409 -14.827 -20.152  0.00  0.00    +0.017 C 
ATOM     18  C   UNL     1      32.449 -12.864 -21.785  0.00  0.00    +0.099 C 
ATOM     19  C   UNL     1      32.334 -14.023 -19.805  0.00  0.00    +0.099 C 
ENDBRANCH  13  15
ENDBRANCH   9  13
ENDBRANCH   1  10
BRANCH   4  20
ATOM     20  O   UNL     1      35.665 -21.436 -18.766  0.00  0.00    -0.468 OA
BRANCH  20  21
ATOM     21  C   UNL     1      34.618 -22.366 -18.523  0.00  0.00    +0.264 C 
BRANCH  21  23
ATOM     22  N   UNL     1      35.822 -22.708 -16.451  0.00  0.00    -0.406 NA
ATOM     23  C   UNL     1      34.628 -22.759 -17.083  0.00  0.00    +0.152 C 
ATOM     24  C   UNL     1      34.720 -23.466 -14.448  0.00  0.00    +0.026 C 
ATOM     25  C   UNL     1      35.871 -23.056 -15.152  0.00  0.00    +0.113 C 
ATOM     26  C   UNL     1      33.449 -23.148 -16.480  0.00  0.00    +0.031 C 
ATOM     27  C   UNL     1      33.502 -23.506 -15.140  0.00  0.00    +0.005 C 
ATOM     28  C   UNL     1      34.807 -23.822 -13.091  0.00  0.00    +0.002 C 
ATOM     29  C   UNL     1      37.081 -23.016 -14.463  0.00  0.00    +0.085 C 
ATOM     30  C   UNL     1      36.030 -23.774 -12.427  0.00  0.00    -0.004 C 
ATOM     31  C   UNL     1      37.168 -23.370 -13.114  0.00  0.00    -0.019 C 
ENDBRANCH  21  23
ENDBRANCH  20  21
ENDBRANCH   4  20
TORSDOF 6
ENDMDL
