MODEL 1
REMARK VINA RESULT:     -11.6      0.000      0.000
REMARK  Name = 5327110
REMARK  7 active torsions:
REMARK  status: ('A' for Active; 'I' for Inactive)
REMARK    1  A    between atoms: C_2  and  C_17
REMARK    2  A    between atoms: C_4  and  O_8
REMARK    3  A    between atoms: O_8  and  C_9
REMARK    4  A    between atoms: C_9  and  C_11
REMARK    5  A    between atoms: C_17  and  N_18
REMARK    6  A    between atoms: N_18  and  S_20
REMARK    7  A    between atoms: S_20  and  C_24
REMARK                            x       y       z     vdW  Elec       q    Type
REMARK                         _______ _______ _______ _____ _____    ______ ____
ROOT
ATOM      1  N   UNL     1      35.967 -19.614 -20.191  0.00  0.00    +0.388 N 
ATOM      2  C   UNL     1      34.589 -19.420 -20.641  0.00  0.00    -0.042 C 
ATOM      3  C   UNL     1      34.747 -19.413 -22.155  0.00  0.00    +0.007 C 
ATOM      4  C   UNL     1      36.043 -18.639 -22.364  0.00  0.00    +0.093 C 
ATOM      5  C   UNL     1      36.796 -18.758 -21.041  0.00  0.00    -0.051 C 
ATOM      6  H   UNL     1      36.240 -20.592 -20.298  0.00  0.00    -0.084 HD
ATOM      7  H   UNL     1      36.074 -19.377 -19.204  0.00  0.00    -0.084 HD
ENDROOT
BRANCH   4   8
ATOM      8  O   UNL     1      35.756 -17.268 -22.614  0.00  0.00    -0.354 OA
BRANCH   8   9
ATOM      9  C   UNL     1      34.819 -17.118 -23.671  0.00  0.00    +0.168 C 
BRANCH   9  11
ATOM     10 CL   UNL     1      33.077 -11.380 -23.936  0.00  0.00    -0.082 Cl
ATOM     11  C   UNL     1      34.382 -15.684 -23.737  0.00  0.00    +0.007 C 
ATOM     12  C   UNL     1      33.651 -15.236 -24.831  0.00  0.00    -0.001 C 
ATOM     13  C   UNL     1      34.714 -14.815 -22.703  0.00  0.00    -0.001 C 
ATOM     14  C   UNL     1      33.246 -13.903 -24.893  0.00  0.00    +0.011 C 
ATOM     15  C   UNL     1      34.310 -13.482 -22.765  0.00  0.00    +0.011 C 
ATOM     16  C   UNL     1      33.575 -13.025 -23.860  0.00  0.00    +0.058 C 
ENDBRANCH   9  11
ENDBRANCH   8   9
ENDBRANCH   4   8
BRANCH   2  17
ATOM     17  C   UNL     1      33.675 -20.525 -20.141  0.00  0.00    +0.070 C 
BRANCH  17  18
ATOM     18  N   UNL     1      34.489 -21.640 -19.618  0.00  0.00    -0.181 NA
ATOM     19  H   UNL     1      34.762 -22.206 -20.421  0.00  0.00    +0.149 HD
BRANCH  18  20
ATOM     20  S   UNL     1      33.833 -22.707 -18.466  0.00  0.00    +0.060 S 
ATOM     21  O   UNL     1      33.882 -24.061 -18.983  0.00  0.00    -0.153 OA
ATOM     22  O   UNL     1      32.583 -22.159 -17.974  0.00  0.00    -0.153 OA
BRANCH  20  24
ATOM     23  N   UNL     1      34.262 -24.001 -13.251  0.00  0.00    -0.242 NA
ATOM     24  C   UNL     1      35.005 -22.583 -17.149  0.00  0.00    +0.122 C 
ATOM     25  C   UNL     1      34.736 -23.061 -15.862  0.00  0.00    +0.022 C 
ATOM     26  C   UNL     1      36.219 -21.981 -17.458  0.00  0.00    +0.020 C 
ATOM     27  C   UNL     1      35.726 -22.923 -14.867  0.00  0.00    +0.020 C 
ATOM     28  C   UNL     1      37.194 -21.846 -16.473  0.00  0.00    +0.001 C 
ATOM     29  C   UNL     1      33.521 -23.671 -15.529  0.00  0.00    +0.022 C 
ATOM     30  C   UNL     1      36.951 -22.315 -15.182  0.00  0.00    +0.002 C 
ATOM     31  C   UNL     1      35.430 -23.410 -13.592  0.00  0.00    +0.099 C 
ATOM     32  C   UNL     1      33.339 -24.116 -14.229  0.00  0.00    +0.099 C 
ENDBRANCH  20  24
ENDBRANCH  18  20
ENDBRANCH  17  18
ENDBRANCH   2  17
TORSDOF 7
ENDMDL
MODEL 2
REMARK VINA RESULT:     -10.8      1.620      2.540
REMARK  Name = 5327110
REMARK  7 active torsions:
REMARK  status: ('A' for Active; 'I' for Inactive)
REMARK    1  A    between atoms: C_2  and  C_17
REMARK    2  A    between atoms: C_4  and  O_8
REMARK    3  A    between atoms: O_8  and  C_9
REMARK    4  A    between atoms: C_9  and  C_11
REMARK    5  A    between atoms: C_17  and  N_18
REMARK    6  A    between atoms: N_18  and  S_20
REMARK    7  A    between atoms: S_20  and  C_24
REMARK                            x       y       z     vdW  Elec       q    Type
REMARK                         _______ _______ _______ _____ _____    ______ ____
ROOT
ATOM      1  N   UNL     1      35.780 -20.391 -19.887  0.00  0.00    +0.388 N 
ATOM      2  C   UNL     1      34.424 -19.946 -20.205  0.00  0.00    -0.042 C 
ATOM      3  C   UNL     1      34.597 -19.367 -21.602  0.00  0.00    +0.007 C 
ATOM      4  C   UNL     1      35.945 -18.661 -21.518  0.00  0.00    +0.093 C 
ATOM      5  C   UNL     1      36.675 -19.331 -20.356  0.00  0.00    -0.051 C 
ATOM      6  H   UNL     1      35.988 -21.268 -20.367  0.00  0.00    -0.084 HD
ATOM      7  H   UNL     1      35.894 -20.559 -18.887  0.00  0.00    -0.084 HD
ENDROOT
BRANCH   4   8
ATOM      8  O   UNL     1      35.755 -17.284 -21.217  0.00  0.00    -0.354 OA
BRANCH   8   9
ATOM      9  C   UNL     1      35.411 -16.540 -22.377  0.00  0.00    +0.168 C 
BRANCH   9  11
ATOM     10 CL   UNL     1      31.881 -11.955 -20.783  0.00  0.00    -0.082 Cl
ATOM     11  C   UNL     1      34.527 -15.394 -21.979  0.00  0.00    +0.007 C 
ATOM     12  C   UNL     1      33.919 -14.620 -22.960  0.00  0.00    -0.001 C 
ATOM     13  C   UNL     1      34.326 -15.116 -20.631  0.00  0.00    -0.001 C 
ATOM     14  C   UNL     1      33.099 -13.555 -22.590  0.00  0.00    +0.011 C 
ATOM     15  C   UNL     1      33.507 -14.051 -20.261  0.00  0.00    +0.011 C 
ATOM     16  C   UNL     1      32.892 -13.270 -21.240  0.00  0.00    +0.058 C 
ENDBRANCH   9  11
ENDBRANCH   8   9
ENDBRANCH   4   8
BRANCH   2  17
ATOM     17  C   UNL     1      33.431 -21.094 -20.153  0.00  0.00    +0.070 C 
BRANCH  17  18
ATOM     18  N   UNL     1      33.184 -21.469 -18.747  0.00  0.00    -0.181 NA
ATOM     19  H   UNL     1      33.395 -20.647 -18.181  0.00  0.00    +0.149 HD
BRANCH  18  20
ATOM     20  S   UNL     1      34.027 -22.773 -18.052  0.00  0.00    +0.060 S 
ATOM     21  O   UNL     1      35.362 -22.340 -17.685  0.00  0.00    -0.153 OA
ATOM     22  O   UNL     1      33.844 -23.950 -18.880  0.00  0.00    -0.153 OA
BRANCH  20  24
ATOM     23  N   UNL     1      34.860 -24.476 -13.005  0.00  0.00    -0.242 NA
ATOM     24  C   UNL     1      33.114 -23.043 -16.562  0.00  0.00    +0.122 C 
ATOM     25  C   UNL     1      33.715 -23.520 -15.393  0.00  0.00    +0.022 C 
ATOM     26  C   UNL     1      31.754 -22.757 -16.612  0.00  0.00    +0.020 C 
ATOM     27  C   UNL     1      32.916 -23.709 -14.247  0.00  0.00    +0.020 C 
ATOM     28  C   UNL     1      30.967 -22.945 -15.478  0.00  0.00    +0.001 C 
ATOM     29  C   UNL     1      35.082 -23.815 -15.321  0.00  0.00    +0.022 C 
ATOM     30  C   UNL     1      31.543 -23.419 -14.299  0.00  0.00    +0.002 C 
ATOM     31  C   UNL     1      33.543 -24.185 -13.094  0.00  0.00    +0.099 C 
ATOM     32  C   UNL     1      35.595 -24.283 -14.121  0.00  0.00    +0.099 C 
ENDBRANCH  20  24
ENDBRANCH  18  20
ENDBRANCH  17  18
ENDBRANCH   2  17
TORSDOF 7
ENDMDL
MODEL 3
REMARK VINA RESULT:     -10.7      5.306     10.908
REMARK  Name = 5327110
REMARK  7 active torsions:
REMARK  status: ('A' for Active; 'I' for Inactive)
REMARK    1  A    between atoms: C_2  and  C_17
REMARK    2  A    between atoms: C_4  and  O_8
REMARK    3  A    between atoms: O_8  and  C_9
REMARK    4  A    between atoms: C_9  and  C_11
REMARK    5  A    between atoms: C_17  and  N_18
REMARK    6  A    between atoms: N_18  and  S_20
REMARK    7  A    between atoms: S_20  and  C_24
REMARK                            x       y       z     vdW  Elec       q    Type
REMARK                         _______ _______ _______ _____ _____    ______ ____
ROOT
ATOM      1  N   UNL     1      35.324 -16.266 -23.430  0.00  0.00    +0.388 N 
ATOM      2  C   UNL     1      34.507 -15.558 -22.445  0.00  0.00    -0.042 C 
ATOM      3  C   UNL     1      35.183 -15.940 -21.136  0.00  0.00    +0.007 C 
ATOM      4  C   UNL     1      35.542 -17.406 -21.348  0.00  0.00    +0.093 C 
ATOM      5  C   UNL     1      35.584 -17.591 -22.863  0.00  0.00    -0.051 C 
ATOM      6  H   UNL     1      36.202 -15.769 -23.586  0.00  0.00    -0.084 HD
ATOM      7  H   UNL     1      34.850 -16.332 -24.331  0.00  0.00    -0.084 HD
ENDROOT
BRANCH   4   8
ATOM      8  O   UNL     1      34.526 -18.240 -20.805  0.00  0.00    -0.354 OA
BRANCH   8   9
ATOM      9  C   UNL     1      34.617 -19.565 -21.309  0.00  0.00    +0.168 C 
BRANCH   9  11
ATOM     10 CL   UNL     1      34.022 -23.433 -16.759  0.00  0.00    -0.082 Cl
ATOM     11  C   UNL     1      34.467 -20.533 -20.172  0.00  0.00    +0.007 C 
ATOM     12  C   UNL     1      33.198 -20.886 -19.731  0.00  0.00    -0.001 C 
ATOM     13  C   UNL     1      35.602 -21.066 -19.569  0.00  0.00    -0.001 C 
ATOM     14  C   UNL     1      33.059 -21.786 -18.674  0.00  0.00    +0.011 C 
ATOM     15  C   UNL     1      35.463 -21.964 -18.512  0.00  0.00    +0.011 C 
ATOM     16  C   UNL     1      34.192 -22.325 -18.064  0.00  0.00    +0.058 C 
ENDBRANCH   9  11
ENDBRANCH   8   9
ENDBRANCH   4   8
BRANCH   2  17
ATOM     17  C   UNL     1      34.498 -14.060 -22.698  0.00  0.00    +0.070 C 
BRANCH  17  18
ATOM     18  N   UNL     1      33.949 -13.364 -21.517  0.00  0.00    -0.181 NA
ATOM     19  H   UNL     1      34.303 -13.854 -20.696  0.00  0.00    +0.149 HD
BRANCH  18  20
ATOM     20  S   UNL     1      32.265 -13.223 -21.318  0.00  0.00    +0.060 S 
ATOM     21  O   UNL     1      31.818 -14.179 -20.323  0.00  0.00    -0.153 OA
ATOM     22  O   UNL     1      31.637 -13.181 -22.625  0.00  0.00    -0.153 OA
BRANCH  20  24
ATOM     23  N   UNL     1      32.030  -8.089 -22.943  0.00  0.00    -0.242 NA
ATOM     24  C   UNL     1      32.118 -11.604 -20.622  0.00  0.00    +0.122 C 
ATOM     25  C   UNL     1      32.091 -10.451 -21.413  0.00  0.00    +0.022 C 
ATOM     26  C   UNL     1      32.029 -11.534 -19.237  0.00  0.00    +0.020 C 
ATOM     27  C   UNL     1      31.971  -9.197 -20.780  0.00  0.00    +0.020 C 
ATOM     28  C   UNL     1      31.911 -10.294 -18.614  0.00  0.00    +0.001 C 
ATOM     29  C   UNL     1      32.178 -10.499 -22.810  0.00  0.00    +0.022 C 
ATOM     30  C   UNL     1      31.882  -9.128 -19.380  0.00  0.00    +0.002 C 
ATOM     31  C   UNL     1      31.947  -8.063 -21.594  0.00  0.00    +0.099 C 
ATOM     32  C   UNL     1      32.144  -9.306 -23.515  0.00  0.00    +0.099 C 
ENDBRANCH  20  24
ENDBRANCH  18  20
ENDBRANCH  17  18
ENDBRANCH   2  17
TORSDOF 7
ENDMDL
MODEL 4
REMARK VINA RESULT:     -10.5      5.198     10.586
REMARK  Name = 5327110
REMARK  7 active torsions:
REMARK  status: ('A' for Active; 'I' for Inactive)
REMARK    1  A    between atoms: C_2  and  C_17
REMARK    2  A    between atoms: C_4  and  O_8
REMARK    3  A    between atoms: O_8  and  C_9
REMARK    4  A    between atoms: C_9  and  C_11
REMARK    5  A    between atoms: C_17  and  N_18
REMARK    6  A    between atoms: N_18  and  S_20
REMARK    7  A    between atoms: S_20  and  C_24
REMARK                            x       y       z     vdW  Elec       q    Type
REMARK                         _______ _______ _______ _____ _____    ______ ____
ROOT
ATOM      1  N   UNL     1      33.969 -16.490 -24.691  0.00  0.00    +0.388 N 
ATOM      2  C   UNL     1      33.948 -15.636 -23.504  0.00  0.00    -0.042 C 
ATOM      3  C   UNL     1      35.275 -15.976 -22.842  0.00  0.00    +0.007 C 
ATOM      4  C   UNL     1      35.392 -17.480 -23.056  0.00  0.00    +0.093 C 
ATOM      5  C   UNL     1      34.490 -17.785 -24.249  0.00  0.00    -0.051 C 
ATOM      6  H   UNL     1      34.578 -16.088 -25.406  0.00  0.00    -0.084 HD
ATOM      7  H   UNL     1      33.040 -16.581 -25.102  0.00  0.00    -0.084 HD
ENDROOT
BRANCH   4   8
ATOM      8  O   UNL     1      34.904 -18.173 -21.914  0.00  0.00    -0.354 OA
BRANCH   8   9
ATOM      9  C   UNL     1      35.932 -18.920 -21.280  0.00  0.00    +0.168 C 
BRANCH   9  11
ATOM     10 CL   UNL     1      33.440 -23.123 -17.793  0.00  0.00    -0.082 Cl
ATOM     11  C   UNL     1      35.308 -19.971 -20.409  0.00  0.00    +0.007 C 
ATOM     12  C   UNL     1      33.927 -20.120 -20.391  0.00  0.00    -0.001 C 
ATOM     13  C   UNL     1      36.120 -20.787 -19.627  0.00  0.00    -0.001 C 
ATOM     14  C   UNL     1      33.347 -21.096 -19.581  0.00  0.00    +0.011 C 
ATOM     15  C   UNL     1      35.541 -21.762 -18.817  0.00  0.00    +0.011 C 
ATOM     16  C   UNL     1      34.155 -21.918 -18.793  0.00  0.00    +0.058 C 
ENDBRANCH   9  11
ENDBRANCH   8   9
ENDBRANCH   4   8
BRANCH   2  17
ATOM     17  C   UNL     1      33.822 -14.167 -23.872  0.00  0.00    +0.070 C 
BRANCH  17  18
ATOM     18  N   UNL     1      32.631 -13.594 -23.217  0.00  0.00    -0.181 NA
ATOM     19  H   UNL     1      32.369 -12.767 -23.753  0.00  0.00    +0.149 HD
BRANCH  18  20
ATOM     20  S   UNL     1      32.702 -13.119 -21.585  0.00  0.00    +0.060 S 
ATOM     21  O   UNL     1      34.058 -13.282 -21.097  0.00  0.00    -0.153 OA
ATOM     22  O   UNL     1      31.592 -13.719 -20.869  0.00  0.00    -0.153 OA
BRANCH  20  24
ATOM     23  N   UNL     1      31.630  -8.952 -18.338  0.00  0.00    -0.242 NA
ATOM     24  C   UNL     1      32.368 -11.387 -21.697  0.00  0.00    +0.122 C 
ATOM     25  C   UNL     1      32.125 -10.598 -20.567  0.00  0.00    +0.022 C 
ATOM     26  C   UNL     1      32.357 -10.842 -22.975  0.00  0.00    +0.020 C 
ATOM     27  C   UNL     1      31.867  -9.223 -20.743  0.00  0.00    +0.020 C 
ATOM     28  C   UNL     1      32.101  -9.483 -23.146  0.00  0.00    +0.001 C 
ATOM     29  C   UNL     1      32.132 -11.126 -19.270  0.00  0.00    +0.022 C 
ATOM     30  C   UNL     1      31.856  -8.675 -22.035  0.00  0.00    +0.002 C 
ATOM     31  C   UNL     1      31.629  -8.461 -19.598  0.00  0.00    +0.099 C 
ATOM     32  C   UNL     1      31.882 -10.272 -18.208  0.00  0.00    +0.099 C 
ENDBRANCH  20  24
ENDBRANCH  18  20
ENDBRANCH  17  18
ENDBRANCH   2  17
TORSDOF 7
ENDMDL
MODEL 5
REMARK VINA RESULT:     -10.5      5.946     11.456
REMARK  Name = 5327110
REMARK  7 active torsions:
REMARK  status: ('A' for Active; 'I' for Inactive)
REMARK    1  A    between atoms: C_2  and  C_17
REMARK    2  A    between atoms: C_4  and  O_8
REMARK    3  A    between atoms: O_8  and  C_9
REMARK    4  A    between atoms: C_9  and  C_11
REMARK    5  A    between atoms: C_17  and  N_18
REMARK    6  A    between atoms: N_18  and  S_20
REMARK    7  A    between atoms: S_20  and  C_24
REMARK                            x       y       z     vdW  Elec       q    Type
REMARK                         _______ _______ _______ _____ _____    ______ ____
ROOT
ATOM      1  N   UNL     1      34.210 -14.507 -22.455  0.00  0.00    +0.388 N 
ATOM      2  C   UNL     1      33.625 -14.841 -21.157  0.00  0.00    -0.042 C 
ATOM      3  C   UNL     1      34.764 -15.586 -20.476  0.00  0.00    +0.007 C 
ATOM      4  C   UNL     1      35.360 -16.414 -21.608  0.00  0.00    +0.093 C 
ATOM      5  C   UNL     1      34.940 -15.699 -22.890  0.00  0.00    -0.051 C 
ATOM      6  H   UNL     1      34.848 -13.714 -22.363  0.00  0.00    -0.084 HD
ATOM      7  H   UNL     1      33.494 -14.240 -23.130  0.00  0.00    -0.084 HD
ENDROOT
BRANCH   4   8
ATOM      8  O   UNL     1      34.801 -17.723 -21.600  0.00  0.00    -0.354 OA
BRANCH   8   9
ATOM      9  C   UNL     1      35.799 -18.713 -21.399  0.00  0.00    +0.168 C 
BRANCH   9  11
ATOM     10 CL   UNL     1      33.559 -23.067 -17.926  0.00  0.00    -0.082 Cl
ATOM     11  C   UNL     1      35.240 -19.801 -20.530  0.00  0.00    +0.007 C 
ATOM     12  C   UNL     1      36.103 -20.630 -19.823  0.00  0.00    -0.001 C 
ATOM     13  C   UNL     1      33.862 -19.970 -20.441  0.00  0.00    -0.001 C 
ATOM     14  C   UNL     1      35.582 -21.642 -19.016  0.00  0.00    +0.011 C 
ATOM     15  C   UNL     1      33.342 -20.982 -19.634  0.00  0.00    +0.011 C 
ATOM     16  C   UNL     1      34.201 -21.818 -18.921  0.00  0.00    +0.058 C 
ENDBRANCH   9  11
ENDBRANCH   8   9
ENDBRANCH   4   8
BRANCH   2  17
ATOM     17  C   UNL     1      33.189 -13.597 -20.401  0.00  0.00    +0.070 C 
BRANCH  17  18
ATOM     18  N   UNL     1      31.898 -13.123 -20.936  0.00  0.00    -0.181 NA
ATOM     19  H   UNL     1      31.497 -13.896 -21.467  0.00  0.00    +0.149 HD
BRANCH  18  20
ATOM     20  S   UNL     1      31.845 -11.755 -21.946  0.00  0.00    +0.060 S 
ATOM     21  O   UNL     1      30.580 -11.730 -22.655  0.00  0.00    -0.153 OA
ATOM     22  O   UNL     1      33.093 -11.660 -22.679  0.00  0.00    -0.153 OA
BRANCH  20  24
ATOM     23  N   UNL     1      32.736  -6.441 -21.764  0.00  0.00    -0.242 NA
ATOM     24  C   UNL     1      31.835 -10.436 -20.769  0.00  0.00    +0.122 C 
ATOM     25  C   UNL     1      32.138  -9.117 -21.123  0.00  0.00    +0.022 C 
ATOM     26  C   UNL     1      31.509 -10.778 -19.462  0.00  0.00    +0.020 C 
ATOM     27  C   UNL     1      32.108  -8.122 -20.123  0.00  0.00    +0.020 C 
ATOM     28  C   UNL     1      31.481  -9.793 -18.477  0.00  0.00    +0.001 C 
ATOM     29  C   UNL     1      32.469  -8.750 -22.433  0.00  0.00    +0.022 C 
ATOM     30  C   UNL     1      31.779  -8.470 -18.804  0.00  0.00    +0.002 C 
ATOM     31  C   UNL     1      32.414  -6.815 -20.506  0.00  0.00    +0.099 C 
ATOM     32  C   UNL     1      32.755  -7.419 -22.695  0.00  0.00    +0.099 C 
ENDBRANCH  20  24
ENDBRANCH  18  20
ENDBRANCH  17  18
ENDBRANCH   2  17
TORSDOF 7
ENDMDL
MODEL 6
REMARK VINA RESULT:     -10.5      4.826      7.208
REMARK  Name = 5327110
REMARK  7 active torsions:
REMARK  status: ('A' for Active; 'I' for Inactive)
REMARK    1  A    between atoms: C_2  and  C_17
REMARK    2  A    between atoms: C_4  and  O_8
REMARK    3  A    between atoms: O_8  and  C_9
REMARK    4  A    between atoms: C_9  and  C_11
REMARK    5  A    between atoms: C_17  and  N_18
REMARK    6  A    between atoms: N_18  and  S_20
REMARK    7  A    between atoms: S_20  and  C_24
REMARK                            x       y       z     vdW  Elec       q    Type
REMARK                         _______ _______ _______ _____ _____    ______ ____
ROOT
ATOM      1  N   UNL     1      30.950 -24.359 -14.315  0.00  0.00    +0.388 N 
ATOM      2  C   UNL     1      32.412 -24.381 -14.336  0.00  0.00    -0.042 C 
ATOM      3  C   UNL     1      32.743 -23.000 -14.883  0.00  0.00    +0.007 C 
ATOM      4  C   UNL     1      31.677 -22.786 -15.951  0.00  0.00    +0.093 C 
ATOM      5  C   UNL     1      30.535 -23.725 -15.568  0.00  0.00    -0.051 C 
ATOM      6  H   UNL     1      30.615 -23.819 -13.516  0.00  0.00    -0.084 HD
ATOM      7  H   UNL     1      30.564 -25.299 -14.226  0.00  0.00    -0.084 HD
ENDROOT
BRANCH   4   8
ATOM      8  O   UNL     1      32.182 -23.164 -17.226  0.00  0.00    -0.354 OA
BRANCH   8   9
ATOM      9  C   UNL     1      33.595 -23.040 -17.283  0.00  0.00    +0.168 C 
BRANCH   9  11
ATOM     10 CL   UNL     1      35.045 -19.167 -21.633  0.00  0.00    -0.082 Cl
ATOM     11  C   UNL     1      33.959 -22.073 -18.371  0.00  0.00    +0.007 C 
ATOM     12  C   UNL     1      35.292 -21.902 -18.725  0.00  0.00    -0.001 C 
ATOM     13  C   UNL     1      32.956 -21.353 -19.014  0.00  0.00    -0.001 C 
ATOM     14  C   UNL     1      35.629 -21.002 -19.736  0.00  0.00    +0.011 C 
ATOM     15  C   UNL     1      33.293 -20.453 -20.024  0.00  0.00    +0.011 C 
ATOM     16  C   UNL     1      34.629 -20.278 -20.386  0.00  0.00    +0.058 C 
ENDBRANCH   9  11
ENDBRANCH   8   9
ENDBRANCH   4   8
BRANCH   2  17
ATOM     17  C   UNL     1      32.989 -24.630 -12.953  0.00  0.00    +0.070 C 
BRANCH  17  18
ATOM     18  N   UNL     1      33.972 -23.576 -12.632  0.00  0.00    -0.181 NA
ATOM     19  H   UNL     1      34.100 -23.025 -13.480  0.00  0.00    +0.149 HD
BRANCH  18  20
ATOM     20  S   UNL     1      35.525 -24.000 -12.082  0.00  0.00    +0.060 S 
ATOM     21  O   UNL     1      35.578 -25.431 -11.848  0.00  0.00    -0.153 OA
ATOM     22  O   UNL     1      35.925 -23.075 -11.038  0.00  0.00    -0.153 OA
BRANCH  20  24
ATOM     23  N   UNL     1      40.223 -25.510 -14.252  0.00  0.00    -0.242 NA
ATOM     24  C   UNL     1      36.522 -23.642 -13.497  0.00  0.00    +0.122 C 
ATOM     25  C   UNL     1      37.748 -24.275 -13.727  0.00  0.00    +0.022 C 
ATOM     26  C   UNL     1      36.022 -22.691 -14.379  0.00  0.00    +0.020 C 
ATOM     27  C   UNL     1      38.482 -23.932 -14.881  0.00  0.00    +0.020 C 
ATOM     28  C   UNL     1      36.750 -22.354 -15.517  0.00  0.00    +0.001 C 
ATOM     29  C   UNL     1      38.270 -25.236 -12.853  0.00  0.00    +0.022 C 
ATOM     30  C   UNL     1      37.976 -22.971 -15.770  0.00  0.00    +0.002 C 
ATOM     31  C   UNL     1      39.702 -24.580 -15.085  0.00  0.00    +0.099 C 
ATOM     32  C   UNL     1      39.492 -25.813 -13.158  0.00  0.00    +0.099 C 
ENDBRANCH  20  24
ENDBRANCH  18  20
ENDBRANCH  17  18
ENDBRANCH   2  17
TORSDOF 7
ENDMDL
MODEL 7
REMARK VINA RESULT:     -10.4      4.851     10.290
REMARK  Name = 5327110
REMARK  7 active torsions:
REMARK  status: ('A' for Active; 'I' for Inactive)
REMARK    1  A    between atoms: C_2  and  C_17
REMARK    2  A    between atoms: C_4  and  O_8
REMARK    3  A    between atoms: O_8  and  C_9
REMARK    4  A    between atoms: C_9  and  C_11
REMARK    5  A    between atoms: C_17  and  N_18
REMARK    6  A    between atoms: N_18  and  S_20
REMARK    7  A    between atoms: S_20  and  C_24
REMARK                            x       y       z     vdW  Elec       q    Type
REMARK                         _______ _______ _______ _____ _____    ______ ____
ROOT
ATOM      1  N   UNL     1      34.860 -18.489 -23.944  0.00  0.00    +0.388 N 
ATOM      2  C   UNL     1      34.681 -17.230 -23.221  0.00  0.00    -0.042 C 
ATOM      3  C   UNL     1      35.743 -17.332 -22.135  0.00  0.00    +0.007 C 
ATOM      4  C   UNL     1      35.681 -18.800 -21.728  0.00  0.00    +0.093 C 
ATOM      5  C   UNL     1      35.058 -19.519 -22.923  0.00  0.00    -0.051 C 
ATOM      6  H   UNL     1      35.676 -18.433 -24.555  0.00  0.00    -0.084 HD
ATOM      7  H   UNL     1      34.055 -18.698 -24.535  0.00  0.00    -0.084 HD
ENDROOT
BRANCH   4   8
ATOM      8  O   UNL     1      34.833 -18.956 -20.597  0.00  0.00    -0.354 OA
BRANCH   8   9
ATOM      9  C   UNL     1      33.958 -20.064 -20.753  0.00  0.00    +0.168 C 
BRANCH   9  11
ATOM     10 CL   UNL     1      34.560 -23.705 -16.019  0.00  0.00    -0.082 Cl
ATOM     11  C   UNL     1      34.108 -20.975 -19.570  0.00  0.00    +0.007 C 
ATOM     12  C   UNL     1      32.977 -21.511 -18.966  0.00  0.00    -0.001 C 
ATOM     13  C   UNL     1      35.379 -21.274 -19.088  0.00  0.00    -0.001 C 
ATOM     14  C   UNL     1      33.117 -22.358 -17.866  0.00  0.00    +0.011 C 
ATOM     15  C   UNL     1      35.518 -22.119 -17.988  0.00  0.00    +0.011 C 
ATOM     16  C   UNL     1      34.388 -22.662 -17.376  0.00  0.00    +0.058 C 
ENDBRANCH   9  11
ENDBRANCH   8   9
ENDBRANCH   4   8
BRANCH   2  17
ATOM     17  C   UNL     1      34.870 -16.029 -24.131  0.00  0.00    +0.070 C 
BRANCH  17  18
ATOM     18  N   UNL     1      34.847 -14.792 -23.326  0.00  0.00    -0.181 NA
ATOM     19  H   UNL     1      34.648 -15.070 -22.365  0.00  0.00    +0.149 HD
BRANCH  18  20
ATOM     20  S   UNL     1      33.756 -13.544 -23.712  0.00  0.00    +0.060 S 
ATOM     21  O   UNL     1      32.697 -14.075 -24.548  0.00  0.00    -0.153 OA
ATOM     22  O   UNL     1      34.506 -12.377 -24.137  0.00  0.00    -0.153 OA
BRANCH  20  24
ATOM     23  N   UNL     1      31.235  -9.478 -21.229  0.00  0.00    -0.242 NA
ATOM     24  C   UNL     1      33.064 -13.166 -22.130  0.00  0.00    +0.122 C 
ATOM     25  C   UNL     1      32.462 -11.933 -21.854  0.00  0.00    +0.022 C 
ATOM     26  C   UNL     1      33.149 -14.162 -21.165  0.00  0.00    +0.020 C 
ATOM     27  C   UNL     1      31.933 -11.711 -20.566  0.00  0.00    +0.020 C 
ATOM     28  C   UNL     1      32.627 -13.939 -19.893  0.00  0.00    +0.001 C 
ATOM     29  C   UNL     1      32.365 -10.916 -22.811  0.00  0.00    +0.022 C 
ATOM     30  C   UNL     1      32.021 -12.719 -19.592  0.00  0.00    +0.002 C 
ATOM     31  C   UNL     1      31.338 -10.472 -20.319  0.00  0.00    +0.099 C 
ATOM     32  C   UNL     1      31.751  -9.727 -22.451  0.00  0.00    +0.099 C 
ENDBRANCH  20  24
ENDBRANCH  18  20
ENDBRANCH  17  18
ENDBRANCH   2  17
TORSDOF 7
ENDMDL
MODEL 8
REMARK VINA RESULT:     -10.4      1.463      1.838
REMARK  Name = 5327110
REMARK  7 active torsions:
REMARK  status: ('A' for Active; 'I' for Inactive)
REMARK    1  A    between atoms: C_2  and  C_17
REMARK    2  A    between atoms: C_4  and  O_8
REMARK    3  A    between atoms: O_8  and  C_9
REMARK    4  A    between atoms: C_9  and  C_11
REMARK    5  A    between atoms: C_17  and  N_18
REMARK    6  A    between atoms: N_18  and  S_20
REMARK    7  A    between atoms: S_20  and  C_24
REMARK                            x       y       z     vdW  Elec       q    Type
REMARK                         _______ _______ _______ _____ _____    ______ ____
ROOT
ATOM      1  N   UNL     1      36.933 -19.816 -20.510  0.00  0.00    +0.388 N 
ATOM      2  C   UNL     1      35.480 -19.955 -20.413  0.00  0.00    -0.042 C 
ATOM      3  C   UNL     1      35.017 -19.388 -21.748  0.00  0.00    +0.007 C 
ATOM      4  C   UNL     1      35.951 -18.202 -21.962  0.00  0.00    +0.093 C 
ATOM      5  C   UNL     1      37.177 -18.499 -21.102  0.00  0.00    -0.051 C 
ATOM      6  H   UNL     1      37.321 -20.549 -21.105  0.00  0.00    -0.084 HD
ATOM      7  H   UNL     1      37.378 -19.902 -19.596  0.00  0.00    -0.084 HD
ENDROOT
BRANCH   4   8
ATOM      8  O   UNL     1      35.334 -17.007 -21.497  0.00  0.00    -0.354 OA
BRANCH   8   9
ATOM      9  C   UNL     1      35.234 -16.038 -22.531  0.00  0.00    +0.168 C 
BRANCH   9  11
ATOM     10 CL   UNL     1      31.404 -11.744 -20.821  0.00  0.00    -0.082 Cl
ATOM     11  C   UNL     1      34.276 -14.965 -22.104  0.00  0.00    +0.007 C 
ATOM     12  C   UNL     1      33.549 -14.269 -23.063  0.00  0.00    -0.001 C 
ATOM     13  C   UNL     1      34.124 -14.676 -20.751  0.00  0.00    -0.001 C 
ATOM     14  C   UNL     1      32.659 -13.271 -22.666  0.00  0.00    +0.011 C 
ATOM     15  C   UNL     1      33.235 -13.678 -20.355  0.00  0.00    +0.011 C 
ATOM     16  C   UNL     1      32.501 -12.976 -21.311  0.00  0.00    +0.058 C 
ENDBRANCH   9  11
ENDBRANCH   8   9
ENDBRANCH   4   8
BRANCH   2  17
ATOM     17  C   UNL     1      35.068 -21.401 -20.204  0.00  0.00    +0.070 C 
BRANCH  17  18
ATOM     18  N   UNL     1      34.944 -21.674 -18.759  0.00  0.00    -0.181 NA
ATOM     19  H   UNL     1      35.840 -22.053 -18.453  0.00  0.00    +0.149 HD
BRANCH  18  20
ATOM     20  S   UNL     1      33.741 -22.738 -18.193  0.00  0.00    +0.060 S 
ATOM     21  O   UNL     1      33.862 -24.008 -18.882  0.00  0.00    -0.153 OA
ATOM     22  O   UNL     1      32.469 -22.041 -18.165  0.00  0.00    -0.153 OA
BRANCH  20  24
ATOM     23  N   UNL     1      31.594 -24.270 -13.493  0.00  0.00    -0.242 NA
ATOM     24  C   UNL     1      34.234 -22.981 -16.513  0.00  0.00    +0.122 C 
ATOM     25  C   UNL     1      33.339 -23.409 -15.527  0.00  0.00    +0.022 C 
ATOM     26  C   UNL     1      35.567 -22.721 -16.217  0.00  0.00    +0.020 C 
ATOM     27  C   UNL     1      33.812 -23.578 -14.209  0.00  0.00    +0.020 C 
ATOM     28  C   UNL     1      36.031 -22.888 -14.914  0.00  0.00    +0.001 C 
ATOM     29  C   UNL     1      31.993 -23.677 -15.803  0.00  0.00    +0.022 C 
ATOM     30  C   UNL     1      35.159 -23.315 -13.912  0.00  0.00    +0.002 C 
ATOM     31  C   UNL     1      32.897 -24.007 -13.246  0.00  0.00    +0.099 C 
ATOM     32  C   UNL     1      31.176 -24.098 -14.765  0.00  0.00    +0.099 C 
ENDBRANCH  20  24
ENDBRANCH  18  20
ENDBRANCH  17  18
ENDBRANCH   2  17
TORSDOF 7
ENDMDL
MODEL 9
REMARK VINA RESULT:     -10.3      2.629      3.801
REMARK  Name = 5327110
REMARK  7 active torsions:
REMARK  status: ('A' for Active; 'I' for Inactive)
REMARK    1  A    between atoms: C_2  and  C_17
REMARK    2  A    between atoms: C_4  and  O_8
REMARK    3  A    between atoms: O_8  and  C_9
REMARK    4  A    between atoms: C_9  and  C_11
REMARK    5  A    between atoms: C_17  and  N_18
REMARK    6  A    between atoms: N_18  and  S_20
REMARK    7  A    between atoms: S_20  and  C_24
REMARK                            x       y       z     vdW  Elec       q    Type
REMARK                         _______ _______ _______ _____ _____    ______ ____
ROOT
ATOM      1  N   UNL     1      35.858 -22.120 -18.452  0.00  0.00    +0.388 N 
ATOM      2  C   UNL     1      34.450 -21.767 -18.271  0.00  0.00    -0.042 C 
ATOM      3  C   UNL     1      33.995 -21.528 -19.704  0.00  0.00    +0.007 C 
ATOM      4  C   UNL     1      35.188 -20.816 -20.331  0.00  0.00    +0.093 C 
ATOM      5  C   UNL     1      36.383 -21.194 -19.459  0.00  0.00    -0.051 C 
ATOM      6  H   UNL     1      35.943 -23.083 -18.778  0.00  0.00    -0.084 HD
ATOM      7  H   UNL     1      36.376 -22.051 -17.576  0.00  0.00    -0.084 HD
ENDROOT
BRANCH   4   8
ATOM      8  O   UNL     1      34.998 -19.407 -20.276  0.00  0.00    -0.354 OA
BRANCH   8   9
ATOM      9  C   UNL     1      36.045 -18.715 -20.941  0.00  0.00    +0.168 C 
BRANCH   9  11
ATOM     10 CL   UNL     1      33.676 -15.246 -25.228  0.00  0.00    -0.082 Cl
ATOM     11  C   UNL     1      35.453 -17.847 -22.013  0.00  0.00    +0.007 C 
ATOM     12  C   UNL     1      35.348 -16.477 -21.809  0.00  0.00    -0.001 C 
ATOM     13  C   UNL     1      35.014 -18.424 -23.201  0.00  0.00    -0.001 C 
ATOM     14  C   UNL     1      34.798 -15.670 -22.805  0.00  0.00    +0.011 C 
ATOM     15  C   UNL     1      34.464 -17.617 -24.196  0.00  0.00    +0.011 C 
ATOM     16  C   UNL     1      34.355 -16.241 -24.000  0.00  0.00    +0.058 C 
ENDBRANCH   9  11
ENDBRANCH   8   9
ENDBRANCH   4   8
BRANCH   2  17
ATOM     17  C   UNL     1      33.680 -22.876 -17.576  0.00  0.00    +0.070 C 
BRANCH  17  18
ATOM     18  N   UNL     1      34.593 -23.638 -16.702  0.00  0.00    -0.181 NA
ATOM     19  H   UNL     1      34.211 -24.581 -16.629  0.00  0.00    +0.149 HD
BRANCH  18  20
ATOM     20  S   UNL     1      34.894 -23.105 -15.114  0.00  0.00    +0.060 S 
ATOM     21  O   UNL     1      33.639 -23.013 -14.393  0.00  0.00    -0.153 OA
ATOM     22  O   UNL     1      35.794 -21.969 -15.160  0.00  0.00    -0.153 OA
BRANCH  20  24
ATOM     23  N   UNL     1      37.627 -24.373 -10.644  0.00  0.00    -0.242 NA
ATOM     24  C   UNL     1      35.808 -24.461 -14.444  0.00  0.00    +0.122 C 
ATOM     25  C   UNL     1      36.404 -24.409 -13.180  0.00  0.00    +0.022 C 
ATOM     26  C   UNL     1      35.909 -25.594 -15.245  0.00  0.00    +0.020 C 
ATOM     27  C   UNL     1      37.117 -25.535 -12.719  0.00  0.00    +0.020 C 
ATOM     28  C   UNL     1      36.614 -26.704 -14.787  0.00  0.00    +0.001 C 
ATOM     29  C   UNL     1      36.316 -23.279 -12.357  0.00  0.00    +0.022 C 
ATOM     30  C   UNL     1      37.217 -26.677 -13.529  0.00  0.00    +0.002 C 
ATOM     31  C   UNL     1      37.701 -25.454 -11.453  0.00  0.00    +0.099 C 
ATOM     32  C   UNL     1      36.936 -23.314 -11.118  0.00  0.00    +0.099 C 
ENDBRANCH  20  24
ENDBRANCH  18  20
ENDBRANCH  17  18
ENDBRANCH   2  17
TORSDOF 7
ENDMDL
