MODEL 1
REMARK VINA RESULT:     -11.4      0.000      0.000
REMARK  Name = 10361208
REMARK  3 active torsions:
REMARK  status: ('A' for Active; 'I' for Inactive)
REMARK    1  A    between atoms: N_1  and  C_12
REMARK    2  A    between atoms: C_10  and  C_18
REMARK    3  A    between atoms: C_21  and  C_27
REMARK                            x       y       z     vdW  Elec       q    Type
REMARK                         _______ _______ _______ _____ _____    ______ ____
ROOT
ATOM      1  N   UNL     1      35.106 -24.738 -13.660  0.00  0.00    -0.318 N 
ATOM      2  N   UNL     1      34.131 -23.618 -15.413  0.00  0.00    -0.147 NA
ATOM      3  N   UNL     1      32.957 -23.250 -15.984  0.00  0.00    -0.190 N 
ATOM      4  N   UNL     1      30.811 -22.994 -16.372  0.00  0.00    -0.127 NA
ATOM      5  N   UNL     1      31.515 -22.359 -17.374  0.00  0.00    -0.127 NA
ATOM      6  C   UNL     1      34.008 -24.319 -14.309  0.00  0.00    +0.149 C 
ATOM      7  C   UNL     1      32.667 -24.682 -13.728  0.00  0.00    +0.039 C 
ATOM      8  C   UNL     1      31.685 -23.524 -15.543  0.00  0.00    +0.187 A 
ATOM      9  C   UNL     1      31.560 -24.276 -14.360  0.00  0.00    +0.044 C 
ATOM     10  C   UNL     1      32.795 -22.523 -17.127  0.00  0.00    +0.187 A 
ATOM     11  H   UNL     1      34.993 -25.276 -12.843  0.00  0.00    +0.148 HD
ENDROOT
BRANCH   1  12
ATOM     12  C   UNL     1      36.451 -24.433 -14.110  0.00  0.00    +0.070 C 
ATOM     13  C   UNL     1      37.236 -23.740 -12.991  0.00  0.00    +0.020 C 
ATOM     14  C   UNL     1      37.151 -25.712 -14.580  0.00  0.00    +0.020 C 
ATOM     15  C   UNL     1      37.589 -24.687 -11.843  0.00  0.00    +0.002 C 
ATOM     16  C   UNL     1      37.504 -26.651 -13.426  0.00  0.00    +0.002 C 
ATOM     17  C   UNL     1      38.306 -25.936 -12.343  0.00  0.00    +0.000 C 
ENDBRANCH   1  12
BRANCH  10  18
ATOM     18  C   UNL     1      33.888 -22.019 -17.925  0.00  0.00    +0.038 C 
ATOM     19  C   UNL     1      33.630 -21.210 -19.031  0.00  0.00    +0.007 C 
ATOM     20  C   UNL     1      35.201 -22.345 -17.590  0.00  0.00    +0.003 C 
ATOM     21  C   UNL     1      34.686 -20.725 -19.801  0.00  0.00    +0.072 C 
ATOM     22  C   UNL     1      36.259 -21.860 -18.360  0.00  0.00    +0.000 C 
ATOM     23  C   UNL     1      36.000 -21.049 -19.467  0.00  0.00    +0.004 C 
BRANCH  21  27
ATOM     24  F   UNL     1      34.634 -18.530 -20.751  0.00  0.00    -0.166 F 
ATOM     25  F   UNL     1      35.175 -20.161 -22.074  0.00  0.00    -0.166 F 
ATOM     26  F   UNL     1      33.117 -19.943 -21.408  0.00  0.00    -0.166 F 
ATOM     27  C   UNL     1      34.411 -19.857 -20.983  0.00  0.00    +0.419 C 
ENDBRANCH  21  27
ENDBRANCH  10  18
TORSDOF 3
ENDMDL
MODEL 2
REMARK VINA RESULT:     -11.1      3.251      5.229
REMARK  Name = 10361208
REMARK  3 active torsions:
REMARK  status: ('A' for Active; 'I' for Inactive)
REMARK    1  A    between atoms: N_1  and  C_12
REMARK    2  A    between atoms: C_10  and  C_18
REMARK    3  A    between atoms: C_21  and  C_27
REMARK                            x       y       z     vdW  Elec       q    Type
REMARK                         _______ _______ _______ _____ _____    ______ ____
ROOT
ATOM      1  N   UNL     1      36.895 -22.960 -14.184  0.00  0.00    -0.318 N 
ATOM      2  N   UNL     1      34.959 -22.901 -15.420  0.00  0.00    -0.147 NA
ATOM      3  N   UNL     1      34.420 -22.621 -16.632  0.00  0.00    -0.190 N 
ATOM      4  N   UNL     1      34.198 -22.018 -18.732  0.00  0.00    -0.127 NA
ATOM      5  N   UNL     1      32.956 -22.370 -18.245  0.00  0.00    -0.127 NA
ATOM      6  C   UNL     1      36.256 -22.714 -15.339  0.00  0.00    +0.149 C 
ATOM      7  C   UNL     1      37.075 -22.226 -16.504  0.00  0.00    +0.039 C 
ATOM      8  C   UNL     1      35.069 -22.173 -17.757  0.00  0.00    +0.187 A 
ATOM      9  C   UNL     1      36.459 -21.973 -17.665  0.00  0.00    +0.044 C 
ATOM     10  C   UNL     1      33.107 -22.726 -16.989  0.00  0.00    +0.187 A 
ATOM     11  H   UNL     1      37.866 -22.798 -14.139  0.00  0.00    +0.148 HD
ENDROOT
BRANCH   1  12
ATOM     12  C   UNL     1      36.218 -23.453 -13.000  0.00  0.00    +0.070 C 
ATOM     13  C   UNL     1      35.860 -24.933 -13.177  0.00  0.00    +0.020 C 
ATOM     14  C   UNL     1      37.093 -23.230 -11.762  0.00  0.00    +0.020 C 
ATOM     15  C   UNL     1      37.086 -25.846 -13.135  0.00  0.00    +0.002 C 
ATOM     16  C   UNL     1      38.314 -24.150 -11.727  0.00  0.00    +0.002 C 
ATOM     17  C   UNL     1      37.919 -25.616 -11.880  0.00  0.00    +0.000 C 
ENDBRANCH   1  12
BRANCH  10  18
ATOM     18  C   UNL     1      32.062 -23.170 -16.098  0.00  0.00    +0.038 C 
ATOM     19  C   UNL     1      30.724 -23.029 -16.466  0.00  0.00    +0.007 C 
ATOM     20  C   UNL     1      32.391 -23.738 -14.868  0.00  0.00    +0.003 C 
ATOM     21  C   UNL     1      29.715 -23.457 -15.604  0.00  0.00    +0.072 C 
ATOM     22  C   UNL     1      31.382 -24.166 -14.005  0.00  0.00    +0.000 C 
ATOM     23  C   UNL     1      30.043 -24.025 -14.374  0.00  0.00    +0.004 C 
BRANCH  21  27
ATOM     24  F   UNL     1      27.450 -23.063 -14.944  0.00  0.00    -0.166 F 
ATOM     25  F   UNL     1      28.061 -22.285 -16.874  0.00  0.00    -0.166 F 
ATOM     26  F   UNL     1      27.788 -24.426 -16.605  0.00  0.00    -0.166 F 
ATOM     27  C   UNL     1      28.284 -23.308 -15.997  0.00  0.00    +0.419 C 
ENDBRANCH  21  27
ENDBRANCH  10  18
TORSDOF 3
ENDMDL
MODEL 3
REMARK VINA RESULT:     -10.5      4.336      7.323
REMARK  Name = 10361208
REMARK  3 active torsions:
REMARK  status: ('A' for Active; 'I' for Inactive)
REMARK    1  A    between atoms: N_1  and  C_12
REMARK    2  A    between atoms: C_10  and  C_18
REMARK    3  A    between atoms: C_21  and  C_27
REMARK                            x       y       z     vdW  Elec       q    Type
REMARK                         _______ _______ _______ _____ _____    ______ ____
ROOT
ATOM      1  N   UNL     1      31.444 -23.155 -16.758  0.00  0.00    -0.318 N 
ATOM      2  N   UNL     1      33.696 -23.038 -16.314  0.00  0.00    -0.147 NA
ATOM      3  N   UNL     1      34.903 -22.631 -16.779  0.00  0.00    -0.190 N 
ATOM      4  N   UNL     1      36.469 -21.776 -18.058  0.00  0.00    -0.127 NA
ATOM      5  N   UNL     1      37.058 -22.250 -16.903  0.00  0.00    -0.127 NA
ATOM      6  C   UNL     1      32.687 -22.795 -17.119  0.00  0.00    +0.149 C 
ATOM      7  C   UNL     1      32.862 -22.118 -18.452  0.00  0.00    +0.039 C 
ATOM      8  C   UNL     1      35.177 -22.008 -17.973  0.00  0.00    +0.187 A 
ATOM      9  C   UNL     1      34.092 -21.751 -18.831  0.00  0.00    +0.044 C 
ATOM     10  C   UNL     1      36.108 -22.759 -16.152  0.00  0.00    +0.187 A 
ATOM     11  H   UNL     1      30.703 -22.979 -17.383  0.00  0.00    +0.148 HD
ENDROOT
BRANCH   1  12
ATOM     12  C   UNL     1      31.147 -23.794 -15.490  0.00  0.00    +0.070 C 
ATOM     13  C   UNL     1      30.617 -22.760 -14.492  0.00  0.00    +0.020 C 
ATOM     14  C   UNL     1      30.149 -24.938 -15.699  0.00  0.00    +0.020 C 
ATOM     15  C   UNL     1      29.209 -22.272 -14.837  0.00  0.00    +0.002 C 
ATOM     16  C   UNL     1      28.743 -24.442 -16.040  0.00  0.00    +0.002 C 
ATOM     17  C   UNL     1      28.237 -23.434 -15.012  0.00  0.00    +0.000 C 
ENDBRANCH   1  12
BRANCH  10  18
ATOM     18  C   UNL     1      36.281 -23.366 -14.854  0.00  0.00    +0.038 C 
ATOM     19  C   UNL     1      37.328 -24.261 -14.636  0.00  0.00    +0.007 C 
ATOM     20  C   UNL     1      35.400 -23.056 -13.818  0.00  0.00    +0.003 C 
ATOM     21  C   UNL     1      37.494 -24.847 -13.381  0.00  0.00    +0.072 C 
ATOM     22  C   UNL     1      35.566 -23.642 -12.563  0.00  0.00    +0.000 C 
ATOM     23  C   UNL     1      36.614 -24.538 -12.345  0.00  0.00    +0.004 C 
BRANCH  21  27
ATOM     24  F   UNL     1      38.584 -26.894 -13.967  0.00  0.00    -0.166 F 
ATOM     25  F   UNL     1      39.851 -25.254 -13.329  0.00  0.00    -0.166 F 
ATOM     26  F   UNL     1      38.619 -26.302 -11.875  0.00  0.00    -0.166 F 
ATOM     27  C   UNL     1      38.614 -25.804 -13.146  0.00  0.00    +0.419 C 
ENDBRANCH  21  27
ENDBRANCH  10  18
TORSDOF 3
ENDMDL
MODEL 4
REMARK VINA RESULT:     -10.4      2.033      2.564
REMARK  Name = 10361208
REMARK  3 active torsions:
REMARK  status: ('A' for Active; 'I' for Inactive)
REMARK    1  A    between atoms: N_1  and  C_12
REMARK    2  A    between atoms: C_10  and  C_18
REMARK    3  A    between atoms: C_21  and  C_27
REMARK                            x       y       z     vdW  Elec       q    Type
REMARK                         _______ _______ _______ _____ _____    ______ ____
ROOT
ATOM      1  N   UNL     1      34.613 -24.976 -13.226  0.00  0.00    -0.318 N 
ATOM      2  N   UNL     1      33.460 -23.922 -14.911  0.00  0.00    -0.147 NA
ATOM      3  N   UNL     1      32.231 -23.612 -15.395  0.00  0.00    -0.190 N 
ATOM      4  N   UNL     1      30.053 -23.455 -15.622  0.00  0.00    -0.127 NA
ATOM      5  N   UNL     1      30.651 -22.802 -16.681  0.00  0.00    -0.127 NA
ATOM      6  C   UNL     1      33.451 -24.614 -13.795  0.00  0.00    +0.149 C 
ATOM      7  C   UNL     1      32.175 -25.027 -13.111  0.00  0.00    +0.039 C 
ATOM      8  C   UNL     1      31.010 -23.936 -14.856  0.00  0.00    +0.187 A 
ATOM      9  C   UNL     1      31.007 -24.678 -13.661  0.00  0.00    +0.044 C 
ATOM     10  C   UNL     1      31.953 -22.907 -16.530  0.00  0.00    +0.187 A 
ATOM     11  H   UNL     1      34.585 -25.509 -12.398  0.00  0.00    +0.148 HD
ENDROOT
BRANCH   1  12
ATOM     12  C   UNL     1      35.905 -24.619 -13.779  0.00  0.00    +0.070 C 
ATOM     13  C   UNL     1      36.399 -23.309 -13.156  0.00  0.00    +0.020 C 
ATOM     14  C   UNL     1      36.904 -25.759 -13.559  0.00  0.00    +0.020 C 
ATOM     15  C   UNL     1      36.814 -23.470 -11.693  0.00  0.00    +0.002 C 
ATOM     16  C   UNL     1      37.317 -25.910 -12.095  0.00  0.00    +0.002 C 
ATOM     17  C   UNL     1      37.827 -24.595 -11.515  0.00  0.00    +0.000 C 
ENDBRANCH   1  12
BRANCH  10  18
ATOM     18  C   UNL     1      32.959 -22.367 -17.412  0.00  0.00    +0.038 C 
ATOM     19  C   UNL     1      34.300 -22.377 -17.030  0.00  0.00    +0.007 C 
ATOM     20  C   UNL     1      32.588 -21.834 -18.646  0.00  0.00    +0.003 C 
ATOM     21  C   UNL     1      35.271 -21.854 -17.883  0.00  0.00    +0.072 C 
ATOM     22  C   UNL     1      33.559 -21.310 -19.500  0.00  0.00    +0.000 C 
ATOM     23  C   UNL     1      34.902 -21.320 -19.118  0.00  0.00    +0.004 C 
BRANCH  21  27
ATOM     24  F   UNL     1      37.144 -20.669 -16.982  0.00  0.00    -0.166 F 
ATOM     25  F   UNL     1      36.993 -22.780 -16.505  0.00  0.00    -0.166 F 
ATOM     26  F   UNL     1      37.543 -22.160 -18.515  0.00  0.00    -0.166 F 
ATOM     27  C   UNL     1      36.706 -21.865 -17.477  0.00  0.00    +0.419 C 
ENDBRANCH  21  27
ENDBRANCH  10  18
TORSDOF 3
ENDMDL
MODEL 5
REMARK VINA RESULT:     -10.4      3.826      5.655
REMARK  Name = 10361208
REMARK  3 active torsions:
REMARK  status: ('A' for Active; 'I' for Inactive)
REMARK    1  A    between atoms: N_1  and  C_12
REMARK    2  A    between atoms: C_10  and  C_18
REMARK    3  A    between atoms: C_21  and  C_27
REMARK                            x       y       z     vdW  Elec       q    Type
REMARK                         _______ _______ _______ _____ _____    ______ ____
ROOT
ATOM      1  N   UNL     1      36.748 -22.949 -14.499  0.00  0.00    -0.318 N 
ATOM      2  N   UNL     1      34.827 -22.781 -15.748  0.00  0.00    -0.147 NA
ATOM      3  N   UNL     1      34.312 -22.465 -16.963  0.00  0.00    -0.190 N 
ATOM      4  N   UNL     1      34.138 -21.838 -19.059  0.00  0.00    -0.127 NA
ATOM      5  N   UNL     1      32.876 -22.128 -18.584  0.00  0.00    -0.127 NA
ATOM      6  C   UNL     1      36.132 -22.662 -15.657  0.00  0.00    +0.149 C 
ATOM      7  C   UNL     1      36.984 -22.210 -16.813  0.00  0.00    +0.039 C 
ATOM      8  C   UNL     1      34.992 -22.045 -18.080  0.00  0.00    +0.187 A 
ATOM      9  C   UNL     1      36.390 -21.918 -17.976  0.00  0.00    +0.044 C 
ATOM     10  C   UNL     1      32.998 -22.500 -17.329  0.00  0.00    +0.187 A 
ATOM     11  H   UNL     1      37.725 -22.838 -14.446  0.00  0.00    +0.148 HD
ENDROOT
BRANCH   1  12
ATOM     12  C   UNL     1      36.037 -23.414 -13.323  0.00  0.00    +0.070 C 
ATOM     13  C   UNL     1      35.668 -24.892 -13.482  0.00  0.00    +0.020 C 
ATOM     14  C   UNL     1      36.884 -23.177 -12.068  0.00  0.00    +0.020 C 
ATOM     15  C   UNL     1      36.882 -25.818 -13.395  0.00  0.00    +0.002 C 
ATOM     16  C   UNL     1      38.094 -24.108 -11.987  0.00  0.00    +0.002 C 
ATOM     17  C   UNL     1      37.687 -25.573 -12.123  0.00  0.00    +0.000 C 
ENDBRANCH   1  12
BRANCH  10  18
ATOM     18  C   UNL     1      31.925 -22.894 -16.449  0.00  0.00    +0.038 C 
ATOM     19  C   UNL     1      32.212 -23.471 -15.212  0.00  0.00    +0.007 C 
ATOM     20  C   UNL     1      30.600 -22.697 -16.836  0.00  0.00    +0.003 C 
ATOM     21  C   UNL     1      31.174 -23.851 -14.362  0.00  0.00    +0.072 C 
ATOM     22  C   UNL     1      29.561 -23.079 -15.987  0.00  0.00    +0.000 C 
ATOM     23  C   UNL     1      29.849 -23.656 -14.749  0.00  0.00    +0.004 C 
BRANCH  21  27
ATOM     24  F   UNL     1      30.388 -24.589 -12.227  0.00  0.00    -0.166 F 
ATOM     25  F   UNL     1      32.000 -25.727 -13.129  0.00  0.00    -0.166 F 
ATOM     26  F   UNL     1      32.391 -23.745 -12.322  0.00  0.00    -0.166 F 
ATOM     27  C   UNL     1      31.480 -24.467 -13.039  0.00  0.00    +0.419 C 
ENDBRANCH  21  27
ENDBRANCH  10  18
TORSDOF 3
ENDMDL
MODEL 6
REMARK VINA RESULT:     -10.2      1.812      4.635
REMARK  Name = 10361208
REMARK  3 active torsions:
REMARK  status: ('A' for Active; 'I' for Inactive)
REMARK    1  A    between atoms: N_1  and  C_12
REMARK    2  A    between atoms: C_10  and  C_18
REMARK    3  A    between atoms: C_21  and  C_27
REMARK                            x       y       z     vdW  Elec       q    Type
REMARK                         _______ _______ _______ _____ _____    ______ ____
ROOT
ATOM      1  N   UNL     1      32.622 -24.091 -14.528  0.00  0.00    -0.318 N 
ATOM      2  N   UNL     1      34.142 -23.089 -15.930  0.00  0.00    -0.147 NA
ATOM      3  N   UNL     1      35.454 -22.808 -16.132  0.00  0.00    -0.190 N 
ATOM      4  N   UNL     1      37.630 -22.687 -15.868  0.00  0.00    -0.127 NA
ATOM      5  N   UNL     1      37.297 -22.049 -17.045  0.00  0.00    -0.127 NA
ATOM      6  C   UNL     1      33.888 -23.758 -14.829  0.00  0.00    +0.149 C 
ATOM      7  C   UNL     1      34.970 -24.178 -13.870  0.00  0.00    +0.039 C 
ATOM      8  C   UNL     1      36.518 -23.140 -15.328  0.00  0.00    +0.187 A 
ATOM      9  C   UNL     1      36.239 -23.856 -14.150  0.00  0.00    +0.044 C 
ATOM     10  C   UNL     1      35.993 -22.130 -17.186  0.00  0.00    +0.187 A 
ATOM     11  H   UNL     1      32.450 -24.578 -13.690  0.00  0.00    +0.148 HD
ENDROOT
BRANCH   1  12
ATOM     12  C   UNL     1      31.497 -23.761 -15.383  0.00  0.00    +0.070 C 
ATOM     13  C   UNL     1      30.764 -25.040 -15.802  0.00  0.00    +0.020 C 
ATOM     14  C   UNL     1      30.560 -22.784 -14.667  0.00  0.00    +0.020 C 
ATOM     15  C   UNL     1      29.993 -25.684 -14.650  0.00  0.00    +0.002 C 
ATOM     16  C   UNL     1      29.790 -23.437 -13.518  0.00  0.00    +0.002 C 
ATOM     17  C   UNL     1      29.052 -24.690 -13.977  0.00  0.00    +0.000 C 
ENDBRANCH   1  12
BRANCH  10  18
ATOM     18  C   UNL     1      35.220 -21.595 -18.281  0.00  0.00    +0.038 C 
ATOM     19  C   UNL     1      35.802 -20.692 -19.171  0.00  0.00    +0.007 C 
ATOM     20  C   UNL     1      33.890 -21.980 -18.449  0.00  0.00    +0.003 C 
ATOM     21  C   UNL     1      35.054 -20.175 -20.228  0.00  0.00    +0.072 C 
ATOM     22  C   UNL     1      33.142 -21.463 -19.506  0.00  0.00    +0.000 C 
ATOM     23  C   UNL     1      33.724 -20.560 -20.396  0.00  0.00    +0.004 C 
BRANCH  21  27
ATOM     24  F   UNL     1      37.033 -19.121 -21.062  0.00  0.00    -0.166 F 
ATOM     25  F   UNL     1      35.451 -19.516 -22.493  0.00  0.00    -0.166 F 
ATOM     26  F   UNL     1      35.210 -17.937 -21.017  0.00  0.00    -0.166 F 
ATOM     27  C   UNL     1      35.676 -19.210 -21.181  0.00  0.00    +0.419 C 
ENDBRANCH  21  27
ENDBRANCH  10  18
TORSDOF 3
ENDMDL
MODEL 7
REMARK VINA RESULT:      -9.9      2.219      5.095
REMARK  Name = 10361208
REMARK  3 active torsions:
REMARK  status: ('A' for Active; 'I' for Inactive)
REMARK    1  A    between atoms: N_1  and  C_12
REMARK    2  A    between atoms: C_10  and  C_18
REMARK    3  A    between atoms: C_21  and  C_27
REMARK                            x       y       z     vdW  Elec       q    Type
REMARK                         _______ _______ _______ _____ _____    ______ ____
ROOT
ATOM      1  N   UNL     1      32.226 -24.554 -13.776  0.00  0.00    -0.318 N 
ATOM      2  N   UNL     1      34.248 -23.640 -14.373  0.00  0.00    -0.147 NA
ATOM      3  N   UNL     1      35.517 -23.385 -13.970  0.00  0.00    -0.190 N 
ATOM      4  N   UNL     1      37.341 -23.278 -12.753  0.00  0.00    -0.127 NA
ATOM      5  N   UNL     1      37.598 -22.693 -13.976  0.00  0.00    -0.127 NA
ATOM      6  C   UNL     1      33.501 -24.252 -13.483  0.00  0.00    +0.149 C 
ATOM      7  C   UNL     1      34.019 -24.638 -12.123  0.00  0.00    +0.039 C 
ATOM      8  C   UNL     1      36.091 -23.691 -12.759  0.00  0.00    +0.187 A 
ATOM      9  C   UNL     1      35.287 -24.346 -11.809  0.00  0.00    +0.044 C 
ATOM     10  C   UNL     1      36.496 -22.765 -14.690  0.00  0.00    +0.187 A 
ATOM     11  H   UNL     1      31.678 -24.999 -13.089  0.00  0.00    +0.148 HD
ENDROOT
BRANCH   1  12
ATOM     12  C   UNL     1      31.621 -24.252 -15.060  0.00  0.00    +0.070 C 
ATOM     13  C   UNL     1      30.478 -25.232 -15.345  0.00  0.00    +0.020 C 
ATOM     14  C   UNL     1      31.136 -22.799 -15.084  0.00  0.00    +0.020 C 
ATOM     15  C   UNL     1      29.257 -24.992 -14.456  0.00  0.00    +0.002 C 
ATOM     16  C   UNL     1      29.913 -22.568 -14.196  0.00  0.00    +0.002 C 
ATOM     17  C   UNL     1      28.787 -23.543 -14.524  0.00  0.00    +0.000 C 
ENDBRANCH   1  12
BRANCH  10  18
ATOM     18  C   UNL     1      36.320 -22.273 -16.035  0.00  0.00    +0.038 C 
ATOM     19  C   UNL     1      35.201 -22.651 -16.776  0.00  0.00    +0.007 C 
ATOM     20  C   UNL     1      37.271 -21.421 -16.594  0.00  0.00    +0.003 C 
ATOM     21  C   UNL     1      35.032 -22.176 -18.076  0.00  0.00    +0.072 C 
ATOM     22  C   UNL     1      37.104 -20.945 -17.895  0.00  0.00    +0.000 C 
ATOM     23  C   UNL     1      35.983 -21.324 -18.636  0.00  0.00    +0.004 C 
BRANCH  21  27
ATOM     24  F   UNL     1      32.711 -22.754 -18.112  0.00  0.00    -0.166 F 
ATOM     25  F   UNL     1      33.481 -21.670 -19.825  0.00  0.00    -0.166 F 
ATOM     26  F   UNL     1      34.016 -23.757 -19.533  0.00  0.00    -0.166 F 
ATOM     27  C   UNL     1      33.834 -22.578 -18.868  0.00  0.00    +0.419 C 
ENDBRANCH  21  27
ENDBRANCH  10  18
TORSDOF 3
ENDMDL
MODEL 8
REMARK VINA RESULT:      -9.7      4.296      7.336
REMARK  Name = 10361208
REMARK  3 active torsions:
REMARK  status: ('A' for Active; 'I' for Inactive)
REMARK    1  A    between atoms: N_1  and  C_12
REMARK    2  A    between atoms: C_10  and  C_18
REMARK    3  A    between atoms: C_21  and  C_27
REMARK                            x       y       z     vdW  Elec       q    Type
REMARK                         _______ _______ _______ _____ _____    ______ ____
ROOT
ATOM      1  N   UNL     1      31.665 -23.311 -16.374  0.00  0.00    -0.318 N 
ATOM      2  N   UNL     1      33.922 -23.381 -15.952  0.00  0.00    -0.147 NA
ATOM      3  N   UNL     1      35.149 -22.993 -16.384  0.00  0.00    -0.190 N 
ATOM      4  N   UNL     1      36.754 -22.083 -17.574  0.00  0.00    -0.127 NA
ATOM      5  N   UNL     1      37.322 -22.727 -16.494  0.00  0.00    -0.127 NA
ATOM      6  C   UNL     1      32.924 -22.983 -16.707  0.00  0.00    +0.149 C 
ATOM      7  C   UNL     1      33.130 -22.162 -17.952  0.00  0.00    +0.039 C 
ATOM      8  C   UNL     1      35.450 -22.248 -17.498  0.00  0.00    +0.187 A 
ATOM      9  C   UNL     1      34.376 -21.825 -18.303  0.00  0.00    +0.044 C 
ATOM     10  C   UNL     1      36.348 -23.266 -15.794  0.00  0.00    +0.187 A 
ATOM     11  H   UNL     1      30.931 -23.017 -16.961  0.00  0.00    +0.148 HD
ENDROOT
BRANCH   1  12
ATOM     12  C   UNL     1      31.339 -24.080 -15.187  0.00  0.00    +0.070 C 
ATOM     13  C   UNL     1      30.859 -23.146 -14.072  0.00  0.00    +0.020 C 
ATOM     14  C   UNL     1      30.289 -25.144 -15.522  0.00  0.00    +0.020 C 
ATOM     15  C   UNL     1      29.475 -22.557 -14.348  0.00  0.00    +0.002 C 
ATOM     16  C   UNL     1      28.908 -24.547 -15.793  0.00  0.00    +0.002 C 
ATOM     17  C   UNL     1      28.450 -23.644 -14.652  0.00  0.00    +0.000 C 
ENDBRANCH   1  12
BRANCH  10  18
ATOM     18  C   UNL     1      36.495 -24.034 -14.581  0.00  0.00    +0.038 C 
ATOM     19  C   UNL     1      36.185 -23.459 -13.349  0.00  0.00    +0.007 C 
ATOM     20  C   UNL     1      36.949 -25.351 -14.642  0.00  0.00    +0.003 C 
ATOM     21  C   UNL     1      36.327 -24.201 -12.178  0.00  0.00    +0.072 C 
ATOM     22  C   UNL     1      37.093 -26.094 -13.470  0.00  0.00    +0.000 C 
ATOM     23  C   UNL     1      36.782 -25.518 -12.237  0.00  0.00    +0.004 C 
BRANCH  21  27
ATOM     24  F   UNL     1      36.133 -24.446  -9.806  0.00  0.00    -0.166 F 
ATOM     25  F   UNL     1      36.771 -22.509 -10.546  0.00  0.00    -0.166 F 
ATOM     26  F   UNL     1      34.706 -23.140 -10.800  0.00  0.00    -0.166 F 
ATOM     27  C   UNL     1      35.994 -23.588 -10.859  0.00  0.00    +0.419 C 
ENDBRANCH  21  27
ENDBRANCH  10  18
TORSDOF 3
ENDMDL
MODEL 9
REMARK VINA RESULT:      -9.3     10.434     14.838
REMARK  Name = 10361208
REMARK  3 active torsions:
REMARK  status: ('A' for Active; 'I' for Inactive)
REMARK    1  A    between atoms: N_1  and  C_12
REMARK    2  A    between atoms: C_10  and  C_18
REMARK    3  A    between atoms: C_21  and  C_27
REMARK                            x       y       z     vdW  Elec       q    Type
REMARK                         _______ _______ _______ _____ _____    ______ ____
ROOT
ATOM      1  N   UNL     1      32.693  -7.538 -22.425  0.00  0.00    -0.318 N 
ATOM      2  N   UNL     1      32.615  -9.721 -21.712  0.00  0.00    -0.147 NA
ATOM      3  N   UNL     1      32.334 -10.544 -20.671  0.00  0.00    -0.190 N 
ATOM      4  N   UNL     1      31.738 -11.277 -18.690  0.00  0.00    -0.127 NA
ATOM      5  N   UNL     1      32.072 -12.362 -19.475  0.00  0.00    -0.127 NA
ATOM      6  C   UNL     1      32.443  -8.443 -21.465  0.00  0.00    +0.149 C 
ATOM      7  C   UNL     1      31.969  -7.937 -20.128  0.00  0.00    +0.039 C 
ATOM      8  C   UNL     1      31.898 -10.192 -19.417  0.00  0.00    +0.187 A 
ATOM      9  C   UNL     1      31.715  -8.821 -19.157  0.00  0.00    +0.044 C 
ATOM     10  C   UNL     1      32.426 -11.905 -20.655  0.00  0.00    +0.187 A 
ATOM     11  H   UNL     1      32.572  -6.584 -22.214  0.00  0.00    +0.148 HD
ENDROOT
BRANCH   1  12
ATOM     12  C   UNL     1      33.133  -7.906 -23.757  0.00  0.00    +0.070 C 
ATOM     13  C   UNL     1      32.611  -6.892 -24.781  0.00  0.00    +0.020 C 
ATOM     14  C   UNL     1      34.661  -8.010 -23.796  0.00  0.00    +0.020 C 
ATOM     15  C   UNL     1      33.308  -5.535 -24.677  0.00  0.00    +0.002 C 
ATOM     16  C   UNL     1      35.349  -6.649 -23.696  0.00  0.00    +0.002 C 
ATOM     17  C   UNL     1      34.825  -5.674 -24.745  0.00  0.00    +0.000 C 
ENDBRANCH   1  12
BRANCH  10  18
ATOM     18  C   UNL     1      32.851 -12.699 -21.783  0.00  0.00    +0.038 C 
ATOM     19  C   UNL     1      33.641 -13.830 -21.583  0.00  0.00    +0.007 C 
ATOM     20  C   UNL     1      32.471 -12.332 -23.074  0.00  0.00    +0.003 C 
ATOM     21  C   UNL     1      34.051 -14.596 -22.673  0.00  0.00    +0.072 C 
ATOM     22  C   UNL     1      32.882 -13.098 -24.166  0.00  0.00    +0.000 C 
ATOM     23  C   UNL     1      33.672 -14.230 -23.965  0.00  0.00    +0.004 C 
BRANCH  21  27
ATOM     24  F   UNL     1      35.230 -16.018 -21.154  0.00  0.00    -0.166 F 
ATOM     25  F   UNL     1      34.299 -16.967 -22.868  0.00  0.00    -0.166 F 
ATOM     26  F   UNL     1      36.079 -15.747 -23.137  0.00  0.00    -0.166 F 
ATOM     27  C   UNL     1      34.895 -15.807 -22.461  0.00  0.00    +0.419 C 
ENDBRANCH  21  27
ENDBRANCH  10  18
TORSDOF 3
ENDMDL
