MODEL 1
REMARK VINA RESULT:     -11.9      0.000      0.000
REMARK  Name = 118598754
REMARK  1 active torsions:
REMARK  status: ('A' for Active; 'I' for Inactive)
REMARK    1  A    between atoms: C_15  and  N_19
REMARK                            x       y       z     vdW  Elec       q    Type
REMARK                         _______ _______ _______ _____ _____    ______ ____
ROOT
ATOM      1  O   UNL     1      32.089 -24.672 -12.741  0.00  0.00    -0.269 OA
ATOM      2  O   UNL     1      36.825 -23.218 -15.828  0.00  0.00    -0.268 OA
ATOM      3  N   UNL     1      34.939 -23.797 -14.601  0.00  0.00    -0.238 N 
ATOM      4  N   UNL     1      34.419 -24.658 -12.535  0.00  0.00    -0.288 N 
ATOM      5  C   UNL     1      35.570 -24.280 -13.347  0.00  0.00    +0.124 C 
ATOM      6  C   UNL     1      36.456 -25.515 -13.603  0.00  0.00    +0.038 C 
ATOM      7  C   UNL     1      36.358 -23.156 -12.645  0.00  0.00    +0.038 C 
ATOM      8  C   UNL     1      37.091 -23.645 -11.395  0.00  0.00    +0.003 C 
ATOM      9  C   UNL     1      37.189 -25.984 -12.345  0.00  0.00    +0.003 C 
ATOM     10  C   UNL     1      37.976 -24.850 -11.696  0.00  0.00    +0.000 C 
ATOM     11  C   UNL     1      33.561 -23.893 -14.507  0.00  0.00    +0.105 C 
ATOM     12  C   UNL     1      33.204 -24.449 -13.175  0.00  0.00    +0.260 C 
ATOM     13  C   UNL     1      35.603 -23.314 -15.721  0.00  0.00    +0.267 C 
ATOM     14  C   UNL     1      32.755 -23.520 -15.511  0.00  0.00    -0.002 C 
ATOM     15  C   UNL     1      34.715 -22.890 -16.862  0.00  0.00    +0.104 C 
ATOM     16  C   UNL     1      33.383 -23.005 -16.716  0.00  0.00    +0.016 C 
ATOM     17  C   UNL     1      31.257 -23.572 -15.538  0.00  0.00    +0.033 C 
ATOM     18  H   UNL     1      34.495 -25.025 -11.624  0.00  0.00    +0.151 HD
ENDROOT
BRANCH  15  19
ATOM     19  N   UNL     1      35.342 -22.412 -17.975  0.00  0.00    -0.298 N 
ATOM     20  N   UNL     1      33.525 -21.491 -19.180  0.00  0.00    -0.233 NA
ATOM     21  N   UNL     1      33.929 -19.757 -20.804  0.00  0.00    -0.234 NA
ATOM     22  C   UNL     1      34.852 -21.516 -18.932  0.00  0.00    +0.113 C 
ATOM     23  C   UNL     1      35.766 -20.704 -19.571  0.00  0.00    +0.121 C 
ATOM     24  C   UNL     1      35.242 -19.835 -20.507  0.00  0.00    +0.107 C 
ATOM     25  C   UNL     1      33.138 -20.600 -20.113  0.00  0.00    +0.252 C 
ATOM     26  H   UNL     1      36.258 -22.739 -18.124  0.00  0.00    +0.153 HD
ATOM     27  N   UNL     1      36.150 -18.987 -21.187  0.00  0.00    -0.346 N 
ATOM     28  H   UNL     1      35.819 -18.351 -21.862  0.00  0.00    +0.143 HD
ATOM     29  H   UNL     1      37.113 -19.030 -20.984  0.00  0.00    +0.143 HD
ENDBRANCH  15  19
TORSDOF 1
ENDMDL
MODEL 2
REMARK VINA RESULT:     -10.0     10.747     15.012
REMARK  Name = 118598754
REMARK  1 active torsions:
REMARK  status: ('A' for Active; 'I' for Inactive)
REMARK    1  A    between atoms: C_15  and  N_19
REMARK                            x       y       z     vdW  Elec       q    Type
REMARK                         _______ _______ _______ _____ _____    ______ ____
ROOT
ATOM      1  O   UNL     1      31.475  -8.464 -20.121  0.00  0.00    -0.269 OA
ATOM      2  O   UNL     1      34.288 -10.807 -24.666  0.00  0.00    -0.268 OA
ATOM      3  N   UNL     1      33.169  -9.876 -22.856  0.00  0.00    -0.238 N 
ATOM      4  N   UNL     1      32.799  -7.805 -21.934  0.00  0.00    -0.288 N 
ATOM      5  C   UNL     1      33.485  -8.439 -23.053  0.00  0.00    +0.124 C 
ATOM      6  C   UNL     1      35.001  -8.178 -22.952  0.00  0.00    +0.038 C 
ATOM      7  C   UNL     1      32.910  -7.914 -24.383  0.00  0.00    +0.038 C 
ATOM      8  C   UNL     1      33.293  -6.458 -24.655  0.00  0.00    +0.003 C 
ATOM      9  C   UNL     1      35.367  -6.721 -23.236  0.00  0.00    +0.003 C 
ATOM     10  C   UNL     1      34.801  -6.248 -24.571  0.00  0.00    +0.000 C 
ATOM     11  C   UNL     1      32.378 -10.039 -21.731  0.00  0.00    +0.105 C 
ATOM     12  C   UNL     1      32.127  -8.707 -21.119  0.00  0.00    +0.260 C 
ATOM     13  C   UNL     1      33.588 -10.927 -23.662  0.00  0.00    +0.267 C 
ATOM     14  C   UNL     1      31.954 -11.246 -21.332  0.00  0.00    -0.002 C 
ATOM     15  C   UNL     1      33.121 -12.293 -23.231  0.00  0.00    +0.104 C 
ATOM     16  C   UNL     1      32.356 -12.393 -22.130  0.00  0.00    +0.016 C 
ATOM     17  C   UNL     1      31.099 -11.559 -20.141  0.00  0.00    +0.033 C 
ATOM     18  H   UNL     1      32.810  -6.834 -21.770  0.00  0.00    +0.151 HD
ENDROOT
BRANCH  15  19
ATOM     19  N   UNL     1      33.519 -13.344 -24.005  0.00  0.00    -0.298 N 
ATOM     20  N   UNL     1      34.793 -14.609 -22.464  0.00  0.00    -0.233 NA
ATOM     21  N   UNL     1      35.107 -16.970 -22.832  0.00  0.00    -0.234 NA
ATOM     22  C   UNL     1      34.062 -14.567 -23.598  0.00  0.00    +0.113 C 
ATOM     23  C   UNL     1      33.815 -15.669 -24.391  0.00  0.00    +0.121 C 
ATOM     24  C   UNL     1      34.368 -16.856 -23.954  0.00  0.00    +0.107 C 
ATOM     25  C   UNL     1      35.278 -15.824 -22.144  0.00  0.00    +0.252 C 
ATOM     26  H   UNL     1      33.409 -13.226 -24.976  0.00  0.00    +0.153 HD
ATOM     27  N   UNL     1      34.139 -18.009 -24.743  0.00  0.00    -0.346 N 
ATOM     28  H   UNL     1      34.515 -18.877 -24.468  0.00  0.00    +0.143 HD
ATOM     29  H   UNL     1      33.602 -17.945 -25.567  0.00  0.00    +0.143 HD
ENDBRANCH  15  19
TORSDOF 1
ENDMDL
MODEL 3
REMARK VINA RESULT:      -9.9     10.987     15.067
REMARK  Name = 118598754
REMARK  1 active torsions:
REMARK  status: ('A' for Active; 'I' for Inactive)
REMARK    1  A    between atoms: C_15  and  N_19
REMARK                            x       y       z     vdW  Elec       q    Type
REMARK                         _______ _______ _______ _____ _____    ______ ____
ROOT
ATOM      1  O   UNL     1      31.453  -8.751 -19.087  0.00  0.00    -0.269 OA
ATOM      2  O   UNL     1      32.983 -10.422 -24.466  0.00  0.00    -0.268 OA
ATOM      3  N   UNL     1      32.375  -9.758 -22.325  0.00  0.00    -0.238 N 
ATOM      4  N   UNL     1      31.814  -7.830 -21.207  0.00  0.00    -0.288 N 
ATOM      5  C   UNL     1      32.201  -8.298 -22.534  0.00  0.00    +0.124 C 
ATOM      6  C   UNL     1      33.522  -7.629 -22.959  0.00  0.00    +0.038 C 
ATOM      7  C   UNL     1      31.070  -8.006 -23.540  0.00  0.00    +0.038 C 
ATOM      8  C   UNL     1      30.924  -6.513 -23.841  0.00  0.00    +0.003 C 
ATOM      9  C   UNL     1      33.355  -6.141 -23.265  0.00  0.00    +0.003 C 
ATOM     10  C   UNL     1      32.246  -5.895 -24.283  0.00  0.00    +0.000 C 
ATOM     11  C   UNL     1      32.112 -10.084 -21.005  0.00  0.00    +0.105 C 
ATOM     12  C   UNL     1      31.747  -8.848 -20.264  0.00  0.00    +0.260 C 
ATOM     13  C   UNL     1      32.746 -10.687 -23.289  0.00  0.00    +0.267 C 
ATOM     14  C   UNL     1      32.201 -11.344 -20.556  0.00  0.00    -0.002 C 
ATOM     15  C   UNL     1      32.851 -12.109 -22.804  0.00  0.00    +0.104 C 
ATOM     16  C   UNL     1      32.585 -12.369 -21.512  0.00  0.00    +0.016 C 
ATOM     17  C   UNL     1      31.945 -11.829 -19.161  0.00  0.00    +0.033 C 
ATOM     18  H   UNL     1      31.620  -6.887 -21.000  0.00  0.00    +0.151 HD
ENDROOT
BRANCH  15  19
ATOM     19  N   UNL     1      33.215 -13.042 -23.731  0.00  0.00    -0.298 N 
ATOM     20  N   UNL     1      34.701 -14.394 -22.481  0.00  0.00    -0.233 NA
ATOM     21  N   UNL     1      35.086 -16.676 -23.151  0.00  0.00    -0.234 NA
ATOM     22  C   UNL     1      33.854 -14.269 -23.525  0.00  0.00    +0.113 C 
ATOM     23  C   UNL     1      33.578 -15.288 -24.412  0.00  0.00    +0.121 C 
ATOM     24  C   UNL     1      34.229 -16.482 -24.174  0.00  0.00    +0.107 C 
ATOM     25  C   UNL     1      35.274 -15.607 -22.354  0.00  0.00    +0.252 C 
ATOM     26  H   UNL     1      32.998 -12.823 -24.666  0.00  0.00    +0.153 HD
ATOM     27  N   UNL     1      33.973 -17.552 -25.065  0.00  0.00    -0.346 N 
ATOM     28  H   UNL     1      34.416 -18.422 -24.932  0.00  0.00    +0.143 HD
ATOM     29  H   UNL     1      33.350 -17.429 -25.819  0.00  0.00    +0.143 HD
ENDBRANCH  15  19
TORSDOF 1
ENDMDL
MODEL 4
REMARK VINA RESULT:      -9.8      2.734      5.043
REMARK  Name = 118598754
REMARK  1 active torsions:
REMARK  status: ('A' for Active; 'I' for Inactive)
REMARK    1  A    between atoms: C_15  and  N_19
REMARK                            x       y       z     vdW  Elec       q    Type
REMARK                         _______ _______ _______ _____ _____    ______ ____
ROOT
ATOM      1  O   UNL     1      38.330 -22.121 -15.993  0.00  0.00    -0.269 OA
ATOM      2  O   UNL     1      33.470 -24.723 -14.073  0.00  0.00    -0.268 OA
ATOM      3  N   UNL     1      35.403 -23.686 -14.838  0.00  0.00    -0.238 N 
ATOM      4  N   UNL     1      37.586 -23.398 -14.179  0.00  0.00    -0.288 N 
ATOM      5  C   UNL     1      36.346 -24.031 -13.743  0.00  0.00    +0.124 C 
ATOM      6  C   UNL     1      35.894 -23.423 -12.401  0.00  0.00    +0.038 C 
ATOM      7  C   UNL     1      36.547 -25.555 -13.634  0.00  0.00    +0.038 C 
ATOM      8  C   UNL     1      37.447 -25.945 -12.460  0.00  0.00    +0.003 C 
ATOM      9  C   UNL     1      36.798 -23.832 -11.237  0.00  0.00    +0.003 C 
ATOM     10  C   UNL     1      36.951 -25.348 -11.148  0.00  0.00    +0.000 C 
ATOM     11  C   UNL     1      36.050 -22.930 -15.801  0.00  0.00    +0.105 C 
ATOM     12  C   UNL     1      37.465 -22.733 -15.393  0.00  0.00    +0.260 C 
ATOM     13  C   UNL     1      34.065 -24.052 -14.914  0.00  0.00    +0.267 C 
ATOM     14  C   UNL     1      35.416 -22.489 -16.897  0.00  0.00    -0.002 C 
ATOM     15  C   UNL     1      33.336 -23.565 -16.139  0.00  0.00    +0.104 C 
ATOM     16  C   UNL     1      34.012 -22.834 -17.043  0.00  0.00    +0.016 C 
ATOM     17  C   UNL     1      35.995 -21.667 -18.010  0.00  0.00    +0.033 C 
ATOM     18  H   UNL     1      38.425 -23.439 -13.665  0.00  0.00    +0.151 HD
ENDROOT
BRANCH  15  19
ATOM     19  N   UNL     1      32.019 -23.910 -16.240  0.00  0.00    -0.298 N 
ATOM     20  N   UNL     1      31.060 -22.615 -14.506  0.00  0.00    -0.233 NA
ATOM     21  N   UNL     1      28.722 -22.041 -14.602  0.00  0.00    -0.234 NA
ATOM     22  C   UNL     1      30.908 -23.272 -15.675  0.00  0.00    +0.113 C 
ATOM     23  C   UNL     1      29.712 -23.358 -16.357  0.00  0.00    +0.121 C 
ATOM     24  C   UNL     1      28.641 -22.717 -15.767  0.00  0.00    +0.107 C 
ATOM     25  C   UNL     1      29.943 -22.030 -14.034  0.00  0.00    +0.252 C 
ATOM     26  H   UNL     1      31.826 -24.710 -16.780  0.00  0.00    +0.153 HD
ATOM     27  N   UNL     1      27.394 -22.784 -16.435  0.00  0.00    -0.346 N 
ATOM     28  H   UNL     1      26.604 -22.340 -16.049  0.00  0.00    +0.143 HD
ATOM     29  H   UNL     1      27.316 -23.273 -17.286  0.00  0.00    +0.143 HD
ENDBRANCH  15  19
TORSDOF 1
ENDMDL
MODEL 5
REMARK VINA RESULT:      -9.2      1.841      4.273
REMARK  Name = 118598754
REMARK  1 active torsions:
REMARK  status: ('A' for Active; 'I' for Inactive)
REMARK    1  A    between atoms: C_15  and  N_19
REMARK                            x       y       z     vdW  Elec       q    Type
REMARK                         _______ _______ _______ _____ _____    ______ ____
ROOT
ATOM      1  O   UNL     1      33.639 -23.822 -12.086  0.00  0.00    -0.269 OA
ATOM      2  O   UNL     1      32.336 -22.993 -17.715  0.00  0.00    -0.268 OA
ATOM      3  N   UNL     1      32.856 -23.321 -15.474  0.00  0.00    -0.238 N 
ATOM      4  N   UNL     1      31.781 -23.827 -13.508  0.00  0.00    -0.288 N 
ATOM      5  C   UNL     1      31.507 -23.610 -14.924  0.00  0.00    +0.124 C 
ATOM      6  C   UNL     1      30.561 -22.405 -15.094  0.00  0.00    +0.038 C 
ATOM      7  C   UNL     1      30.910 -24.889 -15.542  0.00  0.00    +0.038 C 
ATOM      8  C   UNL     1      29.485 -25.165 -15.057  0.00  0.00    +0.003 C 
ATOM      9  C   UNL     1      29.140 -22.702 -14.615  0.00  0.00    +0.003 C 
ATOM     10  C   UNL     1      28.575 -23.960 -15.268  0.00  0.00    +0.000 C 
ATOM     11  C   UNL     1      33.802 -23.370 -14.465  0.00  0.00    +0.105 C 
ATOM     12  C   UNL     1      33.125 -23.697 -13.182  0.00  0.00    +0.260 C 
ATOM     13  C   UNL     1      33.158 -23.040 -16.801  0.00  0.00    +0.267 C 
ATOM     14  C   UNL     1      35.102 -23.144 -14.701  0.00  0.00    -0.002 C 
ATOM     15  C   UNL     1      34.614 -22.782 -17.087  0.00  0.00    +0.104 C 
ATOM     16  C   UNL     1      35.490 -22.842 -16.069  0.00  0.00    +0.016 C 
ATOM     17  C   UNL     1      36.222 -23.166 -13.705  0.00  0.00    +0.033 C 
ATOM     18  H   UNL     1      31.083 -24.044 -12.848  0.00  0.00    +0.151 HD
ENDROOT
BRANCH  15  19
ATOM     19  N   UNL     1      34.939 -22.502 -18.383  0.00  0.00    -0.298 N 
ATOM     20  N   UNL     1      33.134 -21.116 -19.031  0.00  0.00    -0.233 NA
ATOM     21  N   UNL     1      33.416 -19.569 -20.858  0.00  0.00    -0.234 NA
ATOM     22  C   UNL     1      34.412 -21.509 -19.216  0.00  0.00    +0.113 C 
ATOM     23  C   UNL     1      35.242 -20.987 -20.186  0.00  0.00    +0.121 C 
ATOM     24  C   UNL     1      34.684 -20.010 -20.987  0.00  0.00    +0.107 C 
ATOM     25  C   UNL     1      32.707 -20.156 -19.874  0.00  0.00    +0.252 C 
ATOM     26  H   UNL     1      35.634 -23.073 -18.783  0.00  0.00    +0.153 HD
ATOM     27  N   UNL     1      35.503 -19.451 -21.998  0.00  0.00    -0.346 N 
ATOM     28  H   UNL     1      35.146 -18.751 -22.591  0.00  0.00    +0.143 HD
ATOM     29  H   UNL     1      36.432 -19.760 -22.107  0.00  0.00    +0.143 HD
ENDBRANCH  15  19
TORSDOF 1
ENDMDL
