MODEL 1
REMARK VINA RESULT:     -11.2      0.000      0.000
REMARK  Name = 46213929
REMARK  4 active torsions:
REMARK  status: ('A' for Active; 'I' for Inactive)
REMARK    1  A    between atoms: C_7  and  C_20
REMARK    2  A    between atoms: C_9  and  C_28
REMARK    3  A    between atoms: C_20  and  N_22
REMARK    4  A    between atoms: C_28  and  C_31
REMARK                            x       y       z     vdW  Elec       q    Type
REMARK                         _______ _______ _______ _____ _____    ______ ____
ROOT
ATOM      1  N   UNL     1      34.179 -23.533 -14.478  0.00  0.00    -0.179 N 
ATOM      2  N   UNL     1      33.263 -24.629 -12.769  0.00  0.00    -0.393 NA
ATOM      3  N   UNL     1      34.339 -22.962 -15.697  0.00  0.00    -0.160 NA
ATOM      4  N   UNL     1      33.359 -22.530 -17.761  0.00  0.00    -0.281 N 
ATOM      5  N   UNL     1      35.597 -21.584 -17.731  0.00  0.00    -0.166 NA
ATOM      6  N   UNL     1      36.275 -20.906 -18.673  0.00  0.00    -0.239 N 
ATOM      7  C   UNL     1      31.946 -24.331 -14.867  0.00  0.00    +0.005 C 
ATOM      8  C   UNL     1      33.070 -24.204 -14.003  0.00  0.00    +0.196 C 
ATOM      9  C   UNL     1      35.116 -23.543 -13.478  0.00  0.00    +0.151 C 
ATOM     10  C   UNL     1      32.047 -23.783 -16.090  0.00  0.00    +0.034 C 
ATOM     11  C   UNL     1      34.529 -24.222 -12.438  0.00  0.00    +0.109 C 
ATOM     12  C   UNL     1      33.307 -23.074 -16.497  0.00  0.00    +0.151 C 
ATOM     13  C   UNL     1      35.088 -24.529 -11.112  0.00  0.00    +0.063 C 
ATOM     14  C   UNL     1      34.428 -21.840 -18.324  0.00  0.00    +0.152 C 
ATOM     15  C   UNL     1      34.359 -21.328 -19.634  0.00  0.00    +0.048 C 
ATOM     16  C   UNL     1      35.578 -20.725 -19.831  0.00  0.00    +0.046 C 
ATOM     17  C   UNL     1      36.144 -20.006 -20.984  0.00  0.00    +0.049 C 
ATOM     18  H   UNL     1      32.560 -22.642 -18.323  0.00  0.00    +0.155 HD
ATOM     19  H   UNL     1      37.190 -20.570 -18.540  0.00  0.00    +0.174 HD
ENDROOT
BRANCH   7  20
ATOM     20  C   UNL     1      30.678 -25.040 -14.468  0.00  0.00    -0.046 C 
BRANCH  20  22
ATOM     21  O   UNL     1      28.152 -22.153 -16.169  0.00  0.00    -0.358 OA
ATOM     22  N   UNL     1      29.494 -24.241 -14.777  0.00  0.00    +0.393 N 
ATOM     23  C   UNL     1      29.716 -22.827 -14.443  0.00  0.00    -0.044 C 
ATOM     24  C   UNL     1      29.132 -24.372 -16.195  0.00  0.00    -0.044 C 
ATOM     25  C   UNL     1      28.472 -22.014 -14.785  0.00  0.00    +0.119 C 
ATOM     26  C   UNL     1      27.903 -23.521 -16.497  0.00  0.00    +0.119 C 
ATOM     27  H   UNL     1      28.723 -24.594 -14.210  0.00  0.00    -0.079 HD
ENDBRANCH  20  22
ENDBRANCH   7  20
BRANCH   9  28
ATOM     28  C   UNL     1      36.445 -22.917 -13.611  0.00  0.00    +0.057 C 
BRANCH  28  31
ATOM     29 CL   UNL     1      41.029 -26.828 -13.905  0.00  0.00    -0.082 Cl
ATOM     30  F   UNL     1      38.238 -23.056 -15.813  0.00  0.00    -0.204 F 
ATOM     31  C   UNL     1      37.602 -23.903 -13.688  0.00  0.00    +0.007 C 
ATOM     32  C   UNL     1      38.442 -23.912 -14.802  0.00  0.00    +0.137 C 
ATOM     33  C   UNL     1      37.823 -24.798 -12.641  0.00  0.00    -0.001 C 
ATOM     34  C   UNL     1      39.502 -24.817 -14.869  0.00  0.00    +0.041 C 
ATOM     35  C   UNL     1      38.882 -25.703 -12.708  0.00  0.00    +0.011 C 
ATOM     36  C   UNL     1      39.722 -25.712 -13.822  0.00  0.00    +0.060 C 
ENDBRANCH  28  31
ENDBRANCH   9  28
TORSDOF 4
ENDMDL
MODEL 2
REMARK VINA RESULT:     -10.8      2.858      6.182
REMARK  Name = 46213929
REMARK  4 active torsions:
REMARK  status: ('A' for Active; 'I' for Inactive)
REMARK    1  A    between atoms: C_7  and  C_20
REMARK    2  A    between atoms: C_9  and  C_28
REMARK    3  A    between atoms: C_20  and  N_22
REMARK    4  A    between atoms: C_28  and  C_31
REMARK                            x       y       z     vdW  Elec       q    Type
REMARK                         _______ _______ _______ _____ _____    ______ ____
ROOT
ATOM      1  N   UNL     1      34.151 -23.120 -16.404  0.00  0.00    -0.179 N 
ATOM      2  N   UNL     1      32.113 -22.385 -16.919  0.00  0.00    -0.393 NA
ATOM      3  N   UNL     1      35.175 -23.690 -15.721  0.00  0.00    -0.160 NA
ATOM      4  N   UNL     1      35.813 -24.774 -13.765  0.00  0.00    -0.281 N 
ATOM      5  N   UNL     1      37.749 -24.550 -15.216  0.00  0.00    -0.166 NA
ATOM      6  N   UNL     1      39.024 -24.938 -15.043  0.00  0.00    -0.239 N 
ATOM      7  C   UNL     1      32.479 -23.514 -14.723  0.00  0.00    +0.005 C 
ATOM      8  C   UNL     1      32.837 -22.995 -15.999  0.00  0.00    +0.196 C 
ATOM      9  C   UNL     1      34.248 -22.552 -17.647  0.00  0.00    +0.151 C 
ATOM     10  C   UNL     1      33.454 -24.093 -14.001  0.00  0.00    +0.034 C 
ATOM     11  C   UNL     1      32.981 -22.108 -17.941  0.00  0.00    +0.109 C 
ATOM     12  C   UNL     1      34.852 -24.171 -14.546  0.00  0.00    +0.151 C 
ATOM     13  C   UNL     1      32.510 -21.419 -19.153  0.00  0.00    +0.063 C 
ATOM     14  C   UNL     1      37.155 -24.945 -14.087  0.00  0.00    +0.152 C 
ATOM     15  C   UNL     1      38.044 -25.582 -13.200  0.00  0.00    +0.048 C 
ATOM     16  C   UNL     1      39.253 -25.562 -13.852  0.00  0.00    +0.046 C 
ATOM     17  C   UNL     1      40.584 -26.064 -13.472  0.00  0.00    +0.049 C 
ATOM     18  H   UNL     1      35.520 -25.119 -12.891  0.00  0.00    +0.155 HD
ATOM     19  H   UNL     1      39.727 -24.787 -15.714  0.00  0.00    +0.174 HD
ENDROOT
BRANCH   7  20
ATOM     20  C   UNL     1      31.081 -23.440 -14.169  0.00  0.00    -0.046 C 
BRANCH  20  22
ATOM     21  O   UNL     1      27.414 -23.661 -16.199  0.00  0.00    -0.358 OA
ATOM     22  N   UNL     1      30.080 -23.416 -15.235  0.00  0.00    +0.393 N 
ATOM     23  C   UNL     1      29.428 -24.726 -15.369  0.00  0.00    -0.044 C 
ATOM     24  C   UNL     1      29.073 -22.376 -14.981  0.00  0.00    -0.044 C 
ATOM     25  C   UNL     1      28.383 -24.672 -16.478  0.00  0.00    +0.119 C 
ATOM     26  C   UNL     1      28.034 -22.378 -16.098  0.00  0.00    +0.119 C 
ATOM     27  H   UNL     1      30.560 -23.198 -16.108  0.00  0.00    -0.079 HD
ENDBRANCH  20  22
ENDBRANCH   7  20
BRANCH   9  28
ATOM     28  C   UNL     1      35.507 -22.493 -18.412  0.00  0.00    +0.057 C 
BRANCH  28  31
ATOM     29 CL   UNL     1      35.990 -17.718 -22.068  0.00  0.00    -0.082 Cl
ATOM     30  F   UNL     1      37.367 -20.385 -17.988  0.00  0.00    -0.204 F 
ATOM     31  C   UNL     1      35.630 -21.287 -19.333  0.00  0.00    +0.007 C 
ATOM     32  C   UNL     1      36.569 -20.290 -19.060  0.00  0.00    +0.137 C 
ATOM     33  C   UNL     1      34.804 -21.179 -20.452  0.00  0.00    -0.001 C 
ATOM     34  C   UNL     1      36.679 -19.187 -19.907  0.00  0.00    +0.041 C 
ATOM     35  C   UNL     1      34.915 -20.076 -21.298  0.00  0.00    +0.011 C 
ATOM     36  C   UNL     1      35.853 -19.079 -21.025  0.00  0.00    +0.060 C 
ENDBRANCH  28  31
ENDBRANCH   9  28
TORSDOF 4
ENDMDL
MODEL 3
REMARK VINA RESULT:     -10.4      3.912      7.309
REMARK  Name = 46213929
REMARK  4 active torsions:
REMARK  status: ('A' for Active; 'I' for Inactive)
REMARK    1  A    between atoms: C_7  and  C_20
REMARK    2  A    between atoms: C_9  and  C_28
REMARK    3  A    between atoms: C_20  and  N_22
REMARK    4  A    between atoms: C_28  and  C_31
REMARK                            x       y       z     vdW  Elec       q    Type
REMARK                         _______ _______ _______ _____ _____    ______ ____
ROOT
ATOM      1  N   UNL     1      33.828 -23.473 -15.349  0.00  0.00    -0.179 N 
ATOM      2  N   UNL     1      33.572 -24.517 -13.399  0.00  0.00    -0.393 NA
ATOM      3  N   UNL     1      34.391 -22.776 -16.367  0.00  0.00    -0.160 NA
ATOM      4  N   UNL     1      36.312 -21.717 -17.140  0.00  0.00    -0.281 N 
ATOM      5  N   UNL     1      34.565 -21.516 -18.817  0.00  0.00    -0.166 NA
ATOM      6  N   UNL     1      34.572 -20.923 -20.023  0.00  0.00    -0.239 N 
ATOM      7  C   UNL     1      35.773 -23.471 -13.938  0.00  0.00    +0.005 C 
ATOM      8  C   UNL     1      34.417 -23.845 -14.158  0.00  0.00    +0.196 C 
ATOM      9  C   UNL     1      32.540 -23.941 -15.327  0.00  0.00    +0.151 C 
ATOM     10  C   UNL     1      36.384 -22.777 -14.914  0.00  0.00    +0.034 C 
ATOM     11  C   UNL     1      32.408 -24.579 -14.118  0.00  0.00    +0.109 C 
ATOM     12  C   UNL     1      35.639 -22.428 -16.171  0.00  0.00    +0.151 C 
ATOM     13  C   UNL     1      31.229 -25.267 -13.568  0.00  0.00    +0.063 C 
ATOM     14  C   UNL     1      35.803 -21.299 -18.365  0.00  0.00    +0.152 C 
ATOM     15  C   UNL     1      36.595 -20.574 -19.277  0.00  0.00    +0.048 C 
ATOM     16  C   UNL     1      35.764 -20.345 -20.346  0.00  0.00    +0.046 C 
ATOM     17  C   UNL     1      35.976 -19.646 -21.624  0.00  0.00    +0.049 C 
ATOM     18  H   UNL     1      37.247 -21.480 -16.945  0.00  0.00    +0.155 HD
ATOM     19  H   UNL     1      33.789 -20.909 -20.619  0.00  0.00    +0.174 HD
ENDROOT
BRANCH   7  20
ATOM     20  C   UNL     1      36.527 -23.816 -12.681  0.00  0.00    -0.046 C 
BRANCH  20  22
ATOM     21  O   UNL     1      38.941 -26.792 -14.394  0.00  0.00    -0.358 OA
ATOM     22  N   UNL     1      37.328 -25.027 -12.849  0.00  0.00    +0.393 N 
ATOM     23  C   UNL     1      36.745 -25.900 -13.877  0.00  0.00    -0.044 C 
ATOM     24  C   UNL     1      38.714 -24.691 -13.201  0.00  0.00    -0.044 C 
ATOM     25  C   UNL     1      37.604 -27.150 -14.042  0.00  0.00    +0.119 C 
ATOM     26  C   UNL     1      39.527 -25.969 -13.384  0.00  0.00    +0.119 C 
ATOM     27  H   UNL     1      37.330 -25.526 -11.960  0.00  0.00    -0.079 HD
ENDBRANCH  20  22
ENDBRANCH   7  20
BRANCH   9  28
ATOM     28  C   UNL     1      31.588 -23.738 -16.436  0.00  0.00    +0.057 C 
BRANCH  28  31
ATOM     29 CL   UNL     1      26.034 -22.136 -14.711  0.00  0.00    -0.082 Cl
ATOM     30  F   UNL     1      31.078 -21.898 -14.329  0.00  0.00    -0.204 F 
ATOM     31  C   UNL     1      30.188 -23.333 -15.998  0.00  0.00    +0.007 C 
ATOM     32  C   UNL     1      30.016 -22.422 -14.955  0.00  0.00    +0.137 C 
ATOM     33  C   UNL     1      29.074 -23.872 -16.644  0.00  0.00    -0.001 C 
ATOM     34  C   UNL     1      28.730 -22.052 -14.557  0.00  0.00    +0.041 C 
ATOM     35  C   UNL     1      27.790 -23.503 -16.246  0.00  0.00    +0.011 C 
ATOM     36  C   UNL     1      27.618 -22.592 -15.202  0.00  0.00    +0.060 C 
ENDBRANCH  28  31
ENDBRANCH   9  28
TORSDOF 4
ENDMDL
MODEL 4
REMARK VINA RESULT:     -10.1      3.804      7.819
REMARK  Name = 46213929
REMARK  4 active torsions:
REMARK  status: ('A' for Active; 'I' for Inactive)
REMARK    1  A    between atoms: C_7  and  C_20
REMARK    2  A    between atoms: C_9  and  C_28
REMARK    3  A    between atoms: C_20  and  N_22
REMARK    4  A    between atoms: C_28  and  C_31
REMARK                            x       y       z     vdW  Elec       q    Type
REMARK                         _______ _______ _______ _____ _____    ______ ____
ROOT
ATOM      1  N   UNL     1      34.179 -22.632 -16.542  0.00  0.00    -0.179 N 
ATOM      2  N   UNL     1      36.398 -22.765 -16.414  0.00  0.00    -0.393 NA
ATOM      3  N   UNL     1      32.869 -22.674 -16.193  0.00  0.00    -0.160 NA
ATOM      4  N   UNL     1      31.347 -23.092 -14.485  0.00  0.00    -0.281 N 
ATOM      5  N   UNL     1      30.133 -22.469 -16.496  0.00  0.00    -0.166 NA
ATOM      6  N   UNL     1      28.814 -22.348 -16.721  0.00  0.00    -0.239 N 
ATOM      7  C   UNL     1      35.031 -23.283 -14.391  0.00  0.00    +0.005 C 
ATOM      8  C   UNL     1      35.271 -22.908 -15.743  0.00  0.00    +0.196 C 
ATOM      9  C   UNL     1      34.658 -22.301 -17.782  0.00  0.00    +0.151 C 
ATOM     10  C   UNL     1      33.750 -23.341 -13.988  0.00  0.00    +0.034 C 
ATOM     11  C   UNL     1      36.025 -22.390 -17.677  0.00  0.00    +0.109 C 
ATOM     12  C   UNL     1      32.641 -23.018 -14.949  0.00  0.00    +0.151 C 
ATOM     13  C   UNL     1      37.042 -22.141 -18.711  0.00  0.00    +0.063 C 
ATOM     14  C   UNL     1      30.189 -22.835 -15.212  0.00  0.00    +0.152 C 
ATOM     15  C   UNL     1      28.916 -22.945 -14.622  0.00  0.00    +0.048 C 
ATOM     16  C   UNL     1      28.041 -22.622 -15.631  0.00  0.00    +0.046 C 
ATOM     17  C   UNL     1      26.572 -22.545 -15.671  0.00  0.00    +0.049 C 
ATOM     18  H   UNL     1      31.229 -23.355 -13.544  0.00  0.00    +0.155 HD
ATOM     19  H   UNL     1      28.439 -22.085 -17.592  0.00  0.00    +0.174 HD
ENDROOT
BRANCH   7  20
ATOM     20  C   UNL     1      36.136 -23.608 -13.421  0.00  0.00    -0.046 C 
BRANCH  20  22
ATOM     21  O   UNL     1      38.498 -27.041 -13.923  0.00  0.00    -0.358 OA
ATOM     22  N   UNL     1      37.077 -24.575 -13.982  0.00  0.00    +0.393 N 
ATOM     23  C   UNL     1      38.213 -24.787 -13.074  0.00  0.00    -0.044 C 
ATOM     24  C   UNL     1      36.408 -25.854 -14.259  0.00  0.00    -0.044 C 
ATOM     25  C   UNL     1      39.173 -25.807 -13.675  0.00  0.00    +0.119 C 
ATOM     26  C   UNL     1      37.411 -26.850 -14.831  0.00  0.00    +0.119 C 
ATOM     27  H   UNL     1      37.429 -24.195 -14.861  0.00  0.00    -0.079 HD
ENDBRANCH  20  22
ENDBRANCH   7  20
BRANCH   9  28
ATOM     28  C   UNL     1      33.785 -21.940 -18.915  0.00  0.00    +0.057 C 
BRANCH  28  31
ATOM     29 CL   UNL     1      35.889 -17.448 -22.349  0.00  0.00    -0.082 Cl
ATOM     30  F   UNL     1      32.145 -20.414 -20.665  0.00  0.00    -0.204 F 
ATOM     31  C   UNL     1      34.314 -20.806 -19.783  0.00  0.00    +0.007 C 
ATOM     32  C   UNL     1      33.447 -20.101 -20.619  0.00  0.00    +0.137 C 
ATOM     33  C   UNL     1      35.668 -20.472 -19.741  0.00  0.00    -0.001 C 
ATOM     34  C   UNL     1      33.935 -19.062 -21.412  0.00  0.00    +0.041 C 
ATOM     35  C   UNL     1      36.155 -19.434 -20.534  0.00  0.00    +0.011 C 
ATOM     36  C   UNL     1      35.288 -18.729 -21.370  0.00  0.00    +0.060 C 
ENDBRANCH  28  31
ENDBRANCH   9  28
TORSDOF 4
ENDMDL
MODEL 5
REMARK VINA RESULT:      -8.8     13.386     17.219
REMARK  Name = 46213929
REMARK  4 active torsions:
REMARK  status: ('A' for Active; 'I' for Inactive)
REMARK    1  A    between atoms: C_7  and  C_20
REMARK    2  A    between atoms: C_9  and  C_28
REMARK    3  A    between atoms: C_20  and  N_22
REMARK    4  A    between atoms: C_28  and  C_31
REMARK                            x       y       z     vdW  Elec       q    Type
REMARK                         _______ _______ _______ _____ _____    ______ ____
ROOT
ATOM      1  N   UNL     1      32.486  -9.423 -21.543  0.00  0.00    -0.179 N 
ATOM      2  N   UNL     1      31.614 -11.152 -20.444  0.00  0.00    -0.393 NA
ATOM      3  N   UNL     1      33.112  -8.696 -22.501  0.00  0.00    -0.160 NA
ATOM      4  N   UNL     1      34.180  -8.751 -24.567  0.00  0.00    -0.281 N 
ATOM      5  N   UNL     1      34.150  -6.463 -23.750  0.00  0.00    -0.166 NA
ATOM      6  N   UNL     1      34.630  -5.332 -24.294  0.00  0.00    -0.239 N 
ATOM      7  C   UNL     1      32.703 -11.542 -22.656  0.00  0.00    +0.005 C 
ATOM      8  C   UNL     1      32.250 -10.783 -21.540  0.00  0.00    +0.196 C 
ATOM      9  C   UNL     1      31.966  -8.919 -20.380  0.00  0.00    +0.151 C 
ATOM     10  C   UNL     1      33.330 -10.873 -23.638  0.00  0.00    +0.034 C 
ATOM     11  C   UNL     1      31.435 -10.002 -19.722  0.00  0.00    +0.109 C 
ATOM     12  C   UNL     1      33.531  -9.388 -23.532  0.00  0.00    +0.151 C 
ATOM     13  C   UNL     1      30.750 -10.039 -18.421  0.00  0.00    +0.063 C 
ATOM     14  C   UNL     1      34.462  -7.392 -24.658  0.00  0.00    +0.152 C 
ATOM     15  C   UNL     1      35.135  -6.858 -25.773  0.00  0.00    +0.048 C 
ATOM     16  C   UNL     1      35.229  -5.514 -25.506  0.00  0.00    +0.046 C 
ATOM     17  C   UNL     1      35.817  -4.399 -26.266  0.00  0.00    +0.049 C 
ATOM     18  H   UNL     1      34.475  -9.316 -25.317  0.00  0.00    +0.155 HD
ATOM     19  H   UNL     1      34.556  -4.453 -23.859  0.00  0.00    +0.174 HD
ENDROOT
BRANCH   7  20
ATOM     20  C   UNL     1      32.506 -13.031 -22.771  0.00  0.00    -0.046 C 
BRANCH  20  22
ATOM     21  O   UNL     1      34.911 -16.117 -21.250  0.00  0.00    -0.358 OA
ATOM     22  N   UNL     1      33.660 -13.767 -22.257  0.00  0.00    +0.393 N 
ATOM     23  C   UNL     1      33.409 -14.246 -20.892  0.00  0.00    -0.044 C 
ATOM     24  C   UNL     1      33.990 -14.898 -23.135  0.00  0.00    -0.044 C 
ATOM     25  C   UNL     1      34.622 -15.019 -20.383  0.00  0.00    +0.119 C 
ATOM     26  C   UNL     1      35.188 -15.657 -22.574  0.00  0.00    +0.119 C 
ATOM     27  H   UNL     1      34.455 -13.127 -22.239  0.00  0.00    -0.079 HD
ENDBRANCH  20  22
ENDBRANCH   7  20
BRANCH   9  28
ATOM     28  C   UNL     1      32.025  -7.490 -20.022  0.00  0.00    +0.057 C 
BRANCH  28  31
ATOM     29 CL   UNL     1      30.504  -3.736 -24.493  0.00  0.00    -0.082 Cl
ATOM     30  F   UNL     1      32.887  -4.783 -20.148  0.00  0.00    -0.204 F 
ATOM     31  C   UNL     1      31.642  -6.540 -21.149  0.00  0.00    +0.007 C 
ATOM     32  C   UNL     1      32.104  -5.223 -21.143  0.00  0.00    +0.137 C 
ATOM     33  C   UNL     1      30.829  -6.989 -22.189  0.00  0.00    -0.001 C 
ATOM     34  C   UNL     1      31.752  -4.357 -22.178  0.00  0.00    +0.041 C 
ATOM     35  C   UNL     1      30.476  -6.122 -23.223  0.00  0.00    +0.011 C 
ATOM     36  C   UNL     1      30.939  -4.805 -23.218  0.00  0.00    +0.060 C 
ENDBRANCH  28  31
ENDBRANCH   9  28
TORSDOF 4
ENDMDL
MODEL 6
REMARK VINA RESULT:      -8.5     14.599     18.719
REMARK  Name = 46213929
REMARK  4 active torsions:
REMARK  status: ('A' for Active; 'I' for Inactive)
REMARK    1  A    between atoms: C_7  and  C_20
REMARK    2  A    between atoms: C_9  and  C_28
REMARK    3  A    between atoms: C_20  and  N_22
REMARK    4  A    between atoms: C_28  and  C_31
REMARK                            x       y       z     vdW  Elec       q    Type
REMARK                         _______ _______ _______ _____ _____    ______ ____
ROOT
ATOM      1  N   UNL     1      33.512  -8.226 -23.211  0.00  0.00    -0.179 N 
ATOM      2  N   UNL     1      34.282 -10.283 -23.579  0.00  0.00    -0.393 NA
ATOM      3  N   UNL     1      32.699  -7.210 -22.829  0.00  0.00    -0.160 NA
ATOM      4  N   UNL     1      30.655  -6.636 -21.879  0.00  0.00    -0.281 N 
ATOM      5  N   UNL     1      31.872  -4.607 -22.431  0.00  0.00    -0.166 NA
ATOM      6  N   UNL     1      31.540  -3.314 -22.270  0.00  0.00    -0.239 N 
ATOM      7  C   UNL     1      32.032  -9.996 -22.539  0.00  0.00    +0.005 C 
ATOM      8  C   UNL     1      33.269  -9.581 -23.108  0.00  0.00    +0.196 C 
ATOM      9  C   UNL     1      34.749  -8.079 -23.782  0.00  0.00    +0.151 C 
ATOM     10  C   UNL     1      31.185  -9.031 -22.141  0.00  0.00    +0.034 C 
ATOM     11  C   UNL     1      35.201  -9.358 -23.999  0.00  0.00    +0.109 C 
ATOM     12  C   UNL     1      31.558  -7.585 -22.304  0.00  0.00    +0.151 C 
ATOM     13  C   UNL     1      36.476  -9.791 -24.591  0.00  0.00    +0.063 C 
ATOM     14  C   UNL     1      30.811  -5.255 -21.943  0.00  0.00    +0.152 C 
ATOM     15  C   UNL     1      29.810  -4.384 -21.473  0.00  0.00    +0.048 C 
ATOM     16  C   UNL     1      30.315  -3.127 -21.700  0.00  0.00    +0.046 C 
ATOM     17  C   UNL     1      29.769  -1.786 -21.438  0.00  0.00    +0.049 C 
ATOM     18  H   UNL     1      29.814  -6.969 -21.493  0.00  0.00    +0.155 HD
ATOM     19  H   UNL     1      32.127  -2.572 -22.538  0.00  0.00    +0.174 HD
ENDROOT
BRANCH   7  20
ATOM     20  C   UNL     1      31.649 -11.443 -22.372  0.00  0.00    -0.046 C 
BRANCH  20  22
ATOM     21  O   UNL     1      34.068 -14.802 -21.677  0.00  0.00    -0.358 OA
ATOM     22  N   UNL     1      32.818 -12.285 -22.126  0.00  0.00    +0.393 N 
ATOM     23  C   UNL     1      32.698 -12.984 -20.840  0.00  0.00    -0.044 C 
ATOM     24  C   UNL     1      33.000 -13.257 -23.213  0.00  0.00    -0.044 C 
ATOM     25  C   UNL     1      33.924 -13.862 -20.612  0.00  0.00    +0.119 C 
ATOM     26  C   UNL     1      34.217 -14.131 -22.929  0.00  0.00    +0.119 C 
ATOM     27  H   UNL     1      33.638 -11.678 -22.093  0.00  0.00    -0.079 HD
ENDBRANCH  20  22
ENDBRANCH   7  20
BRANCH   9  28
ATOM     28  C   UNL     1      35.360  -6.766 -24.056  0.00  0.00    +0.057 C 
BRANCH  28  31
ATOM     29 CL   UNL     1      33.387  -4.100 -29.095  0.00  0.00    -0.082 Cl
ATOM     30  F   UNL     1      36.916  -4.919 -25.556  0.00  0.00    -0.204 F 
ATOM     31  C   UNL     1      34.864  -6.091 -25.327  0.00  0.00    +0.007 C 
ATOM     32  C   UNL     1      35.686  -5.194 -26.011  0.00  0.00    +0.137 C 
ATOM     33  C   UNL     1      33.586  -6.372 -25.810  0.00  0.00    -0.001 C 
ATOM     34  C   UNL     1      35.228  -4.579 -27.177  0.00  0.00    +0.041 C 
ATOM     35  C   UNL     1      33.128  -5.756 -26.974  0.00  0.00    +0.011 C 
ATOM     36  C   UNL     1      33.950  -4.860 -27.658  0.00  0.00    +0.060 C 
ENDBRANCH  28  31
ENDBRANCH   9  28
TORSDOF 4
ENDMDL
