MODEL 1
REMARK VINA RESULT:     -10.9      0.000      0.000
REMARK  Name = 53354764
REMARK  8 active torsions:
REMARK  status: ('A' for Active; 'I' for Inactive)
REMARK    1  A    between atoms: C_1  and  C_3
REMARK    2  A    between atoms: C_1  and  O_18
REMARK    3  A    between atoms: N_2  and  C_9
REMARK    4  A    between atoms: C_9  and  C_11
REMARK    5  A    between atoms: C_11  and  O_16
REMARK    6  A    between atoms: O_18  and  C_21
REMARK    7  A    between atoms: C_23  and  O_28
REMARK    8  A    between atoms: O_28  and  C_30
REMARK                            x       y       z     vdW  Elec       q    Type
REMARK                         _______ _______ _______ _____ _____    ______ ____
ROOT
ATOM      1  C   UNL     1      35.830 -21.266 -18.538  0.00  0.00    +0.207 C 
ENDROOT
BRANCH   1   3
ATOM      2  N   UNL     1      35.245 -18.468 -21.776  0.00  0.00    +0.388 N 
ATOM      3  C   UNL     1      35.769 -20.705 -19.956  0.00  0.00    +0.040 C 
ATOM      4  C   UNL     1      34.303 -19.593 -21.690  0.00  0.00    -0.077 C 
ATOM      5  C   UNL     1      36.622 -18.908 -21.518  0.00  0.00    -0.077 C 
ATOM      6  C   UNL     1      36.748 -19.539 -20.129  0.00  0.00    -0.019 C 
ATOM      7  C   UNL     1      34.351 -20.247 -20.308  0.00  0.00    -0.019 C 
ATOM      8  H   UNL     1      34.991 -17.791 -21.058  0.00  0.00    -0.080 HD
BRANCH   2   9
ATOM      9  C   UNL     1      35.151 -17.822 -23.085  0.00  0.00    -0.050 C 
BRANCH   9  11
ATOM     10  O   UNL     1      33.214 -14.118 -22.228  0.00  0.00    -0.354 OA
ATOM     11  C   UNL     1      34.960 -16.311 -22.942  0.00  0.00    +0.074 C 
ATOM     12  C   UNL     1      33.840 -15.804 -23.862  0.00  0.00    +0.057 C 
ATOM     13  C   UNL     1      34.651 -15.935 -21.487  0.00  0.00    +0.057 C 
ATOM     14  C   UNL     1      33.536 -14.331 -23.601  0.00  0.00    +0.144 C 
ATOM     15  C   UNL     1      34.297 -14.454 -21.362  0.00  0.00    +0.144 C 
BRANCH  11  16
ATOM     16  O   UNL     1      36.189 -15.677 -23.310  0.00  0.00    -0.389 OA
ATOM     17  H   UNL     1      36.670 -15.417 -22.510  0.00  0.00    +0.210 HD
ENDBRANCH  11  16
ENDBRANCH   9  11
ENDBRANCH   2   9
ENDBRANCH   1   3
BRANCH   1  18
ATOM     18  O   UNL     1      35.199 -22.534 -18.529  0.00  0.00    -0.458 OA
BRANCH  18  21
ATOM     19  O   UNL     1      31.870 -22.445 -17.545  0.00  0.00    -0.350 OA
ATOM     20  N   UNL     1      32.890 -22.223 -18.463  0.00  0.00    -0.039 NA
ATOM     21  C   UNL     1      34.007 -22.632 -17.854  0.00  0.00    +0.267 A 
ATOM     22  C   UNL     1      33.762 -23.122 -16.557  0.00  0.00    +0.127 A 
ATOM     23  C   UNL     1      34.510 -23.660 -15.500  0.00  0.00    +0.146 C 
ATOM     24  C   UNL     1      32.393 -22.982 -16.409  0.00  0.00    +0.183 A 
ATOM     25  C   UNL     1      33.831 -24.035 -14.332  0.00  0.00    +0.037 C 
ATOM     26  C   UNL     1      31.687 -23.342 -15.265  0.00  0.00    +0.041 C 
ATOM     27  C   UNL     1      32.446 -23.877 -14.219  0.00  0.00    +0.006 C 
BRANCH  23  28
ATOM     28  O   UNL     1      35.865 -23.825 -15.583  0.00  0.00    -0.476 OA
BRANCH  28  30
ATOM     29  O   UNL     1      38.276 -24.098 -13.751  0.00  0.00    -0.350 OA
ATOM     30  C   UNL     1      36.673 -22.836 -14.955  0.00  0.00    +0.198 C 
ATOM     31  C   UNL     1      37.995 -22.747 -15.677  0.00  0.00    +0.078 C 
ATOM     32  C   UNL     1      37.089 -23.307 -13.577  0.00  0.00    +0.185 C 
ATOM     33  C   UNL     1      38.758 -23.918 -15.089  0.00  0.00    +0.146 C 
ENDBRANCH  28  30
ENDBRANCH  23  28
ENDBRANCH  18  21
ENDBRANCH   1  18
TORSDOF 8
ENDMDL
MODEL 2
REMARK VINA RESULT:     -10.6      1.469      1.894
REMARK  Name = 53354764
REMARK  8 active torsions:
REMARK  status: ('A' for Active; 'I' for Inactive)
REMARK    1  A    between atoms: C_1  and  C_3
REMARK    2  A    between atoms: C_1  and  O_18
REMARK    3  A    between atoms: N_2  and  C_9
REMARK    4  A    between atoms: C_9  and  C_11
REMARK    5  A    between atoms: C_11  and  O_16
REMARK    6  A    between atoms: O_18  and  C_21
REMARK    7  A    between atoms: C_23  and  O_28
REMARK    8  A    between atoms: O_28  and  C_30
REMARK                            x       y       z     vdW  Elec       q    Type
REMARK                         _______ _______ _______ _____ _____    ______ ____
ROOT
ATOM      1  C   UNL     1      34.793 -22.364 -17.377  0.00  0.00    +0.207 C 
ENDROOT
BRANCH   1   3
ATOM      2  N   UNL     1      35.036 -19.737 -20.798  0.00  0.00    +0.388 N 
ATOM      3  C   UNL     1      34.875 -21.905 -18.830  0.00  0.00    +0.040 C 
ATOM      4  C   UNL     1      33.790 -20.498 -20.630  0.00  0.00    -0.077 C 
ATOM      5  C   UNL     1      36.210 -20.574 -20.517  0.00  0.00    -0.077 C 
ATOM      6  C   UNL     1      36.167 -21.123 -19.089  0.00  0.00    -0.019 C 
ATOM      7  C   UNL     1      33.665 -21.043 -19.206  0.00  0.00    -0.019 C 
ATOM      8  H   UNL     1      35.029 -18.970 -20.126  0.00  0.00    -0.080 HD
BRANCH   2   9
ATOM      9  C   UNL     1      35.116 -19.179 -22.148  0.00  0.00    -0.050 C 
BRANCH   9  11
ATOM     10  O   UNL     1      34.347 -14.983 -22.122  0.00  0.00    -0.354 OA
ATOM     11  C   UNL     1      35.400 -17.678 -22.108  0.00  0.00    +0.074 C 
ATOM     12  C   UNL     1      34.901 -16.984 -23.384  0.00  0.00    +0.057 C 
ATOM     13  C   UNL     1      34.753 -17.031 -20.875  0.00  0.00    +0.057 C 
ATOM     14  C   UNL     1      35.032 -15.468 -23.276  0.00  0.00    +0.144 C 
ATOM     15  C   UNL     1      34.890 -15.510 -20.913  0.00  0.00    +0.144 C 
BRANCH  11  16
ATOM     16  O   UNL     1      36.816 -17.501 -22.006  0.00  0.00    -0.389 OA
ATOM     17  H   UNL     1      37.200 -18.248 -21.521  0.00  0.00    +0.210 HD
ENDBRANCH  11  16
ENDBRANCH   9  11
ENDBRANCH   2   9
ENDBRANCH   1   3
BRANCH   1  18
ATOM     18  O   UNL     1      33.908 -23.467 -17.304  0.00  0.00    -0.458 OA
BRANCH  18  21
ATOM     19  O   UNL     1      30.675 -22.586 -16.394  0.00  0.00    -0.350 OA
ATOM     20  N   UNL     1      31.731 -22.633 -17.296  0.00  0.00    -0.039 NA
ATOM     21  C   UNL     1      32.716 -23.267 -16.653  0.00  0.00    +0.267 A 
ATOM     22  C   UNL     1      32.347 -23.646 -15.347  0.00  0.00    +0.127 A 
ATOM     23  C   UNL     1      32.936 -24.307 -14.260  0.00  0.00    +0.146 C 
ATOM     24  C   UNL     1      31.044 -23.191 -15.233  0.00  0.00    +0.183 A 
ATOM     25  C   UNL     1      32.173 -24.477 -13.096  0.00  0.00    +0.037 C 
ATOM     26  C   UNL     1      30.259 -23.343 -14.094  0.00  0.00    +0.041 C 
ATOM     27  C   UNL     1      30.859 -24.003 -13.017  0.00  0.00    +0.006 C 
BRANCH  23  28
ATOM     28  O   UNL     1      34.218 -24.780 -14.310  0.00  0.00    -0.476 OA
BRANCH  28  30
ATOM     29  O   UNL     1      36.820 -25.557 -12.941  0.00  0.00    -0.350 OA
ATOM     30  C   UNL     1      35.224 -23.979 -13.700  0.00  0.00    +0.198 C 
ATOM     31  C   UNL     1      36.427 -23.920 -14.609  0.00  0.00    +0.078 C 
ATOM     32  C   UNL     1      35.777 -24.684 -12.479  0.00  0.00    +0.185 C 
ATOM     33  C   UNL     1      37.119 -25.234 -14.306  0.00  0.00    +0.146 C 
ENDBRANCH  28  30
ENDBRANCH  23  28
ENDBRANCH  18  21
ENDBRANCH   1  18
TORSDOF 8
ENDMDL
MODEL 3
REMARK VINA RESULT:     -10.4      1.837      4.039
REMARK  Name = 53354764
REMARK  8 active torsions:
REMARK  status: ('A' for Active; 'I' for Inactive)
REMARK    1  A    between atoms: C_1  and  C_3
REMARK    2  A    between atoms: C_1  and  O_18
REMARK    3  A    between atoms: N_2  and  C_9
REMARK    4  A    between atoms: C_9  and  C_11
REMARK    5  A    between atoms: C_11  and  O_16
REMARK    6  A    between atoms: O_18  and  C_21
REMARK    7  A    between atoms: C_23  and  O_28
REMARK    8  A    between atoms: O_28  and  C_30
REMARK                            x       y       z     vdW  Elec       q    Type
REMARK                         _______ _______ _______ _____ _____    ______ ____
ROOT
ATOM      1  C   UNL     1      33.794 -22.414 -17.214  0.00  0.00    +0.207 C 
ENDROOT
BRANCH   1   3
ATOM      2  N   UNL     1      34.677 -20.042 -20.714  0.00  0.00    +0.388 N 
ATOM      3  C   UNL     1      34.034 -22.049 -18.675  0.00  0.00    +0.040 C 
ATOM      4  C   UNL     1      33.310 -20.568 -20.593  0.00  0.00    -0.077 C 
ATOM      5  C   UNL     1      35.669 -21.053 -20.328  0.00  0.00    -0.077 C 
ATOM      6  C   UNL     1      35.455 -21.515 -18.884  0.00  0.00    -0.019 C 
ATOM      7  C   UNL     1      33.015 -21.012 -19.159  0.00  0.00    -0.019 C 
ATOM      8  H   UNL     1      34.767 -19.253 -20.075  0.00  0.00    -0.080 HD
BRANCH   2   9
ATOM      9  C   UNL     1      34.926 -19.575 -22.078  0.00  0.00    -0.050 C 
BRANCH   9  11
ATOM     10  O   UNL     1      34.551 -15.326 -22.178  0.00  0.00    -0.354 OA
ATOM     11  C   UNL     1      35.348 -18.105 -22.088  0.00  0.00    +0.074 C 
ATOM     12  C   UNL     1      34.900 -17.408 -23.381  0.00  0.00    +0.057 C 
ATOM     13  C   UNL     1      34.779 -17.364 -20.871  0.00  0.00    +0.057 C 
ATOM     14  C   UNL     1      35.173 -15.908 -23.322  0.00  0.00    +0.144 C 
ATOM     15  C   UNL     1      35.057 -15.864 -20.957  0.00  0.00    +0.144 C 
BRANCH  11  16
ATOM     16  O   UNL     1      36.776 -18.059 -22.004  0.00  0.00    -0.389 OA
ATOM     17  H   UNL     1      37.037 -17.704 -21.141  0.00  0.00    +0.210 HD
ENDBRANCH  11  16
ENDBRANCH   9  11
ENDBRANCH   2   9
ENDBRANCH   1   3
BRANCH   1  18
ATOM     18  O   UNL     1      34.641 -23.498 -16.877  0.00  0.00    -0.458 OA
BRANCH  18  21
ATOM     19  O   UNL     1      37.326 -22.748 -14.807  0.00  0.00    -0.350 OA
ATOM     20  N   UNL     1      36.711 -22.814 -16.052  0.00  0.00    -0.039 NA
ATOM     21  C   UNL     1      35.495 -23.316 -15.817  0.00  0.00    +0.267 A 
ATOM     22  C   UNL     1      35.280 -23.586 -14.451  0.00  0.00    +0.127 A 
ATOM     23  C   UNL     1      34.247 -24.094 -13.650  0.00  0.00    +0.146 C 
ATOM     24  C   UNL     1      36.471 -23.209 -13.855  0.00  0.00    +0.183 A 
ATOM     25  C   UNL     1      34.470 -24.198 -12.270  0.00  0.00    +0.037 C 
ATOM     26  C   UNL     1      36.726 -23.298 -12.489  0.00  0.00    +0.041 C 
ATOM     27  C   UNL     1      35.687 -23.807 -11.703  0.00  0.00    +0.006 C 
BRANCH  23  28
ATOM     28  O   UNL     1      33.047 -24.484 -14.179  0.00  0.00    -0.476 OA
BRANCH  28  30
ATOM     29  O   UNL     1      30.237 -24.221 -15.309  0.00  0.00    -0.350 OA
ATOM     30  C   UNL     1      31.879 -23.881 -13.635  0.00  0.00    +0.198 C 
ATOM     31  C   UNL     1      30.936 -24.964 -13.170  0.00  0.00    +0.078 C 
ATOM     32  C   UNL     1      31.083 -23.211 -14.735  0.00  0.00    +0.185 C 
ATOM     33  C   UNL     1      30.266 -25.379 -14.466  0.00  0.00    +0.146 C 
ENDBRANCH  28  30
ENDBRANCH  23  28
ENDBRANCH  18  21
ENDBRANCH   1  18
TORSDOF 8
ENDMDL
MODEL 4
REMARK VINA RESULT:     -10.1      2.272      4.794
REMARK  Name = 53354764
REMARK  8 active torsions:
REMARK  status: ('A' for Active; 'I' for Inactive)
REMARK    1  A    between atoms: C_1  and  C_3
REMARK    2  A    between atoms: C_1  and  O_18
REMARK    3  A    between atoms: N_2  and  C_9
REMARK    4  A    between atoms: C_9  and  C_11
REMARK    5  A    between atoms: C_11  and  O_16
REMARK    6  A    between atoms: O_18  and  C_21
REMARK    7  A    between atoms: C_23  and  O_28
REMARK    8  A    between atoms: O_28  and  C_30
REMARK                            x       y       z     vdW  Elec       q    Type
REMARK                         _______ _______ _______ _____ _____    ______ ____
ROOT
ATOM      1  C   UNL     1      34.020 -23.397 -18.684  0.00  0.00    +0.207 C 
ENDROOT
BRANCH   1   3
ATOM      2  N   UNL     1      34.913 -19.650 -20.640  0.00  0.00    +0.388 N 
ATOM      3  C   UNL     1      34.337 -21.916 -18.871  0.00  0.00    +0.040 C 
ATOM      4  C   UNL     1      35.979 -20.245 -19.822  0.00  0.00    -0.077 C 
ATOM      5  C   UNL     1      33.610 -19.758 -19.972  0.00  0.00    -0.077 C 
ATOM      6  C   UNL     1      33.250 -21.220 -19.697  0.00  0.00    -0.019 C 
ATOM      7  C   UNL     1      35.700 -21.723 -19.542  0.00  0.00    -0.019 C 
ATOM      8  H   UNL     1      34.862 -20.171 -21.515  0.00  0.00    -0.080 HD
BRANCH   2   9
ATOM      9  C   UNL     1      35.220 -18.252 -20.942  0.00  0.00    -0.050 C 
BRANCH   9  11
ATOM     10  O   UNL     1      33.962 -17.169 -24.872  0.00  0.00    -0.354 OA
ATOM     11  C   UNL     1      35.298 -18.018 -22.451  0.00  0.00    +0.074 C 
ATOM     12  C   UNL     1      34.293 -18.903 -23.202  0.00  0.00    +0.057 C 
ATOM     13  C   UNL     1      35.050 -16.542 -22.789  0.00  0.00    +0.057 C 
ATOM     14  C   UNL     1      34.252 -18.553 -24.687  0.00  0.00    +0.144 C 
ATOM     15  C   UNL     1      34.963 -16.328 -24.299  0.00  0.00    +0.144 C 
BRANCH  11  16
ATOM     16  O   UNL     1      36.622 -18.352 -22.878  0.00  0.00    -0.389 OA
ATOM     17  H   UNL     1      37.109 -17.540 -23.087  0.00  0.00    +0.210 HD
ENDBRANCH  11  16
ENDBRANCH   9  11
ENDBRANCH   2   9
ENDBRANCH   1   3
BRANCH   1  18
ATOM     18  O   UNL     1      33.070 -23.526 -17.642  0.00  0.00    -0.458 OA
BRANCH  18  21
ATOM     19  O   UNL     1      35.058 -23.908 -14.821  0.00  0.00    -0.350 OA
ATOM     20  N   UNL     1      34.875 -23.813 -16.195  0.00  0.00    -0.039 NA
ATOM     21  C   UNL     1      33.559 -23.652 -16.366  0.00  0.00    +0.267 A 
ATOM     22  C   UNL     1      32.858 -23.637 -15.144  0.00  0.00    +0.127 A 
ATOM     23  C   UNL     1      31.529 -23.505 -14.719  0.00  0.00    +0.146 C 
ATOM     24  C   UNL     1      33.854 -23.803 -14.196  0.00  0.00    +0.183 A 
ATOM     25  C   UNL     1      31.265 -23.548 -13.343  0.00  0.00    +0.037 C 
ATOM     26  C   UNL     1      33.629 -23.851 -12.824  0.00  0.00    +0.041 C 
ATOM     27  C   UNL     1      32.298 -23.719 -12.415  0.00  0.00    +0.006 C 
BRANCH  23  28
ATOM     28  O   UNL     1      30.500 -23.338 -15.606  0.00  0.00    -0.476 OA
BRANCH  28  30
ATOM     29  O   UNL     1      27.841 -22.018 -16.263  0.00  0.00    -0.350 OA
ATOM     30  C   UNL     1      29.187 -23.601 -15.124  0.00  0.00    +0.198 C 
ATOM     31  C   UNL     1      28.403 -24.319 -16.194  0.00  0.00    +0.078 C 
ATOM     32  C   UNL     1      28.421 -22.302 -14.979  0.00  0.00    +0.185 C 
ATOM     33  C   UNL     1      27.976 -23.177 -17.096  0.00  0.00    +0.146 C 
ENDBRANCH  28  30
ENDBRANCH  23  28
ENDBRANCH  18  21
ENDBRANCH   1  18
TORSDOF 8
ENDMDL
MODEL 5
REMARK VINA RESULT:      -9.6      2.090      4.215
REMARK  Name = 53354764
REMARK  8 active torsions:
REMARK  status: ('A' for Active; 'I' for Inactive)
REMARK    1  A    between atoms: C_1  and  C_3
REMARK    2  A    between atoms: C_1  and  O_18
REMARK    3  A    between atoms: N_2  and  C_9
REMARK    4  A    between atoms: C_9  and  C_11
REMARK    5  A    between atoms: C_11  and  O_16
REMARK    6  A    between atoms: O_18  and  C_21
REMARK    7  A    between atoms: C_23  and  O_28
REMARK    8  A    between atoms: O_28  and  C_30
REMARK                            x       y       z     vdW  Elec       q    Type
REMARK                         _______ _______ _______ _____ _____    ______ ____
ROOT
ATOM      1  C   UNL     1      36.395 -21.833 -16.369  0.00  0.00    +0.207 C 
ENDROOT
BRANCH   1   3
ATOM      2  N   UNL     1      35.361 -20.171 -20.220  0.00  0.00    +0.388 N 
ATOM      3  C   UNL     1      36.243 -21.705 -17.881  0.00  0.00    +0.040 C 
ATOM      4  C   UNL     1      34.614 -21.360 -19.785  0.00  0.00    -0.077 C 
ATOM      5  C   UNL     1      36.792 -20.303 -19.914  0.00  0.00    -0.077 C 
ATOM      6  C   UNL     1      37.020 -20.496 -18.413  0.00  0.00    -0.019 C 
ATOM      7  C   UNL     1      34.768 -21.587 -18.280  0.00  0.00    -0.019 C 
ATOM      8  H   UNL     1      35.002 -19.368 -19.703  0.00  0.00    -0.080 HD
BRANCH   2   9
ATOM      9  C   UNL     1      35.163 -19.937 -21.650  0.00  0.00    -0.050 C 
BRANCH   9  11
ATOM     10  O   UNL     1      34.460 -15.828 -22.556  0.00  0.00    -0.354 OA
ATOM     11  C   UNL     1      35.469 -18.485 -22.019  0.00  0.00    +0.074 C 
ATOM     12  C   UNL     1      34.805 -18.098 -23.349  0.00  0.00    +0.057 C 
ATOM     13  C   UNL     1      35.009 -17.530 -20.909  0.00  0.00    +0.057 C 
ATOM     14  C   UNL     1      34.970 -16.608 -23.635  0.00  0.00    +0.144 C 
ATOM     15  C   UNL     1      35.159 -16.072 -21.337  0.00  0.00    +0.144 C 
BRANCH  11  16
ATOM     16  O   UNL     1      36.888 -18.356 -22.151  0.00  0.00    -0.389 OA
ATOM     17  H   UNL     1      37.090 -17.612 -22.739  0.00  0.00    +0.210 HD
ENDBRANCH  11  16
ENDBRANCH   9  11
ENDBRANCH   2   9
ENDBRANCH   1   3
BRANCH   1  18
ATOM     18  O   UNL     1      36.348 -23.206 -16.027  0.00  0.00    -0.458 OA
BRANCH  18  21
ATOM     19  O   UNL     1      38.814 -24.219 -13.802  0.00  0.00    -0.350 OA
ATOM     20  N   UNL     1      38.371 -23.853 -15.068  0.00  0.00    -0.039 NA
ATOM     21  C   UNL     1      37.067 -23.599 -14.925  0.00  0.00    +0.267 A 
ATOM     22  C   UNL     1      36.626 -23.783 -13.600  0.00  0.00    +0.127 A 
ATOM     23  C   UNL     1      35.424 -23.670 -12.888  0.00  0.00    +0.146 C 
ATOM     24  C   UNL     1      37.771 -24.176 -12.929  0.00  0.00    +0.183 A 
ATOM     25  C   UNL     1      35.435 -23.963 -11.517  0.00  0.00    +0.037 C 
ATOM     26  C   UNL     1      37.819 -24.475 -11.570  0.00  0.00    +0.041 C 
ATOM     27  C   UNL     1      36.612 -24.359 -10.873  0.00  0.00    +0.006 C 
BRANCH  23  28
ATOM     28  O   UNL     1      34.259 -23.286 -13.494  0.00  0.00    -0.476 OA
BRANCH  28  30
ATOM     29  O   UNL     1      31.286 -23.887 -13.704  0.00  0.00    -0.350 OA
ATOM     30  C   UNL     1      33.561 -24.280 -14.235  0.00  0.00    +0.198 C 
ATOM     31  C   UNL     1      32.895 -23.632 -15.424  0.00  0.00    +0.078 C 
ATOM     32  C   UNL     1      32.376 -24.783 -13.437  0.00  0.00    +0.185 C 
ATOM     33  C   UNL     1      31.644 -23.042 -14.806  0.00  0.00    +0.146 C 
ENDBRANCH  28  30
ENDBRANCH  23  28
ENDBRANCH  18  21
ENDBRANCH   1  18
TORSDOF 8
ENDMDL
MODEL 6
REMARK VINA RESULT:      -9.5      4.646     11.780
REMARK  Name = 53354764
REMARK  8 active torsions:
REMARK  status: ('A' for Active; 'I' for Inactive)
REMARK    1  A    between atoms: C_1  and  C_3
REMARK    2  A    between atoms: C_1  and  O_18
REMARK    3  A    between atoms: N_2  and  C_9
REMARK    4  A    between atoms: C_9  and  C_11
REMARK    5  A    between atoms: C_11  and  O_16
REMARK    6  A    between atoms: O_18  and  C_21
REMARK    7  A    between atoms: C_23  and  O_28
REMARK    8  A    between atoms: O_28  and  C_30
REMARK                            x       y       z     vdW  Elec       q    Type
REMARK                         _______ _______ _______ _____ _____    ______ ____
ROOT
ATOM      1  C   UNL     1      33.200 -12.191 -23.553  0.00  0.00    +0.207 C 
ENDROOT
BRANCH   1   3
ATOM      2  N   UNL     1      34.473 -16.298 -23.134  0.00  0.00    +0.388 N 
ATOM      3  C   UNL     1      34.028 -13.460 -23.726  0.00  0.00    +0.040 C 
ATOM      4  C   UNL     1      35.336 -15.268 -22.536  0.00  0.00    -0.077 C 
ATOM      5  C   UNL     1      33.993 -15.881 -24.458  0.00  0.00    -0.077 C 
ATOM      6  C   UNL     1      33.199 -14.576 -24.372  0.00  0.00    -0.019 C 
ATOM      7  C   UNL     1      34.587 -13.943 -22.384  0.00  0.00    -0.019 C 
ATOM      8  H   UNL     1      33.662 -16.418 -22.529  0.00  0.00    -0.080 HD
BRANCH   2   9
ATOM      9  C   UNL     1      35.186 -17.572 -23.226  0.00  0.00    -0.050 C 
BRANCH   9  11
ATOM     10  O   UNL     1      36.135 -20.526 -20.298  0.00  0.00    -0.354 OA
ATOM     11  C   UNL     1      35.340 -18.217 -21.848  0.00  0.00    +0.074 C 
ATOM     12  C   UNL     1      34.472 -19.478 -21.726  0.00  0.00    +0.057 C 
ATOM     13  C   UNL     1      36.808 -18.565 -21.567  0.00  0.00    +0.057 C 
ATOM     14  C   UNL     1      34.748 -20.214 -20.418  0.00  0.00    +0.144 C 
ATOM     15  C   UNL     1      36.950 -19.356 -20.269  0.00  0.00    +0.144 C 
BRANCH  11  16
ATOM     16  O   UNL     1      34.917 -17.264 -20.868  0.00  0.00    -0.389 OA
ATOM     17  H   UNL     1      35.621 -17.141 -20.212  0.00  0.00    +0.210 HD
ENDBRANCH  11  16
ENDBRANCH   9  11
ENDBRANCH   2   9
ENDBRANCH   1   3
BRANCH   1  18
ATOM     18  O   UNL     1      32.002 -12.525 -22.876  0.00  0.00    -0.458 OA
BRANCH  18  21
ATOM     19  O   UNL     1      31.969 -12.853 -19.419  0.00  0.00    -0.350 OA
ATOM     20  N   UNL     1      32.007 -13.376 -20.706  0.00  0.00    -0.039 NA
ATOM     21  C   UNL     1      31.974 -12.316 -21.519  0.00  0.00    +0.267 A 
ATOM     22  C   UNL     1      31.917 -11.099 -20.812  0.00  0.00    +0.127 A 
ATOM     23  C   UNL     1      31.867  -9.731 -21.115  0.00  0.00    +0.146 C 
ATOM     24  C   UNL     1      31.915 -11.494 -19.485  0.00  0.00    +0.183 A 
ATOM     25  C   UNL     1      31.816  -8.818 -20.053  0.00  0.00    +0.037 C 
ATOM     26  C   UNL     1      31.865 -10.617 -18.406  0.00  0.00    +0.041 C 
ATOM     27  C   UNL     1      31.815  -9.256 -18.724  0.00  0.00    +0.006 C 
BRANCH  23  28
ATOM     28  O   UNL     1      31.866  -9.277 -22.406  0.00  0.00    -0.476 OA
BRANCH  28  30
ATOM     29  O   UNL     1      32.157  -7.654 -24.960  0.00  0.00    -0.350 OA
ATOM     30  C   UNL     1      32.182  -7.904 -22.604  0.00  0.00    +0.198 C 
ATOM     31  C   UNL     1      30.929  -7.160 -22.995  0.00  0.00    +0.078 C 
ATOM     32  C   UNL     1      33.048  -7.746 -23.837  0.00  0.00    +0.185 C 
ATOM     33  C   UNL     1      30.820  -7.475 -24.474  0.00  0.00    +0.146 C 
ENDBRANCH  28  30
ENDBRANCH  23  28
ENDBRANCH  18  21
ENDBRANCH   1  18
TORSDOF 8
ENDMDL
MODEL 7
REMARK VINA RESULT:      -9.2      7.402     11.426
REMARK  Name = 53354764
REMARK  8 active torsions:
REMARK  status: ('A' for Active; 'I' for Inactive)
REMARK    1  A    between atoms: C_1  and  C_3
REMARK    2  A    between atoms: C_1  and  O_18
REMARK    3  A    between atoms: N_2  and  C_9
REMARK    4  A    between atoms: C_9  and  C_11
REMARK    5  A    between atoms: C_11  and  O_16
REMARK    6  A    between atoms: O_18  and  C_21
REMARK    7  A    between atoms: C_23  and  O_28
REMARK    8  A    between atoms: O_28  and  C_30
REMARK                            x       y       z     vdW  Elec       q    Type
REMARK                         _______ _______ _______ _____ _____    ______ ____
ROOT
ATOM      1  C   UNL     1      33.910 -11.752 -24.413  0.00  0.00    +0.207 C 
ENDROOT
BRANCH   1   3
ATOM      2  N   UNL     1      32.592  -7.904 -22.959  0.00  0.00    +0.388 N 
ATOM      3  C   UNL     1      33.457 -10.663 -23.446  0.00  0.00    +0.040 C 
ATOM      4  C   UNL     1      33.934  -8.346 -22.553  0.00  0.00    -0.077 C 
ATOM      5  C   UNL     1      31.627  -9.009 -22.887  0.00  0.00    -0.077 C 
ATOM      6  C   UNL     1      32.048 -10.170 -23.791  0.00  0.00    -0.019 C 
ATOM      7  C   UNL     1      34.434  -9.483 -23.447  0.00  0.00    -0.019 C 
ATOM      8  H   UNL     1      32.643  -7.594 -23.929  0.00  0.00    -0.080 HD
BRANCH   2   9
ATOM      9  C   UNL     1      32.150  -6.784 -22.129  0.00  0.00    -0.050 C 
BRANCH   9  11
ATOM     10  O   UNL     1      30.389  -3.230 -23.701  0.00  0.00    -0.354 OA
ATOM     11  C   UNL     1      32.013  -5.506 -22.957  0.00  0.00    +0.074 C 
ATOM     12  C   UNL     1      30.838  -5.606 -23.941  0.00  0.00    +0.057 C 
ATOM     13  C   UNL     1      31.829  -4.282 -22.049  0.00  0.00    +0.057 C 
ATOM     14  C   UNL     1      30.595  -4.276 -24.649  0.00  0.00    +0.144 C 
ATOM     15  C   UNL     1      31.528  -3.028 -22.866  0.00  0.00    +0.144 C 
BRANCH  11  16
ATOM     16  O   UNL     1      33.225  -5.329 -23.696  0.00  0.00    -0.389 OA
ATOM     17  H   UNL     1      33.857  -6.022 -23.450  0.00  0.00    +0.210 HD
ENDBRANCH  11  16
ENDBRANCH   9  11
ENDBRANCH   2   9
ENDBRANCH   1   3
BRANCH   1  18
ATOM     18  O   UNL     1      33.058 -12.873 -24.259  0.00  0.00    -0.458 OA
BRANCH  18  21
ATOM     19  O   UNL     1      34.433 -15.922 -25.192  0.00  0.00    -0.350 OA
ATOM     20  N   UNL     1      33.825 -14.706 -25.478  0.00  0.00    -0.039 NA
ATOM     21  C   UNL     1      33.648 -14.113 -24.294  0.00  0.00    +0.267 A 
ATOM     22  C   UNL     1      34.121 -14.898 -23.224  0.00  0.00    +0.127 A 
ATOM     23  C   UNL     1      34.201 -14.798 -21.828  0.00  0.00    +0.146 C 
ATOM     24  C   UNL     1      34.609 -16.034 -23.847  0.00  0.00    +0.183 A 
ATOM     25  C   UNL     1      34.775 -15.862 -21.120  0.00  0.00    +0.037 C 
ATOM     26  C   UNL     1      35.184 -17.109 -23.176  0.00  0.00    +0.041 C 
ATOM     27  C   UNL     1      35.257 -16.996 -21.783  0.00  0.00    +0.006 C 
BRANCH  23  28
ATOM     28  O   UNL     1      33.737 -13.701 -21.154  0.00  0.00    -0.476 OA
BRANCH  28  30
ATOM     29  O   UNL     1      32.325 -12.087 -18.999  0.00  0.00    -0.350 OA
ATOM     30  C   UNL     1      32.397 -13.758 -20.677  0.00  0.00    +0.198 C 
ATOM     31  C   UNL     1      31.632 -12.574 -21.213  0.00  0.00    +0.078 C 
ATOM     32  C   UNL     1      32.371 -13.512 -19.183  0.00  0.00    +0.185 C 
ATOM     33  C   UNL     1      32.052 -11.469 -20.263  0.00  0.00    +0.146 C 
ENDBRANCH  28  30
ENDBRANCH  23  28
ENDBRANCH  18  21
ENDBRANCH   1  18
TORSDOF 8
ENDMDL
MODEL 8
REMARK VINA RESULT:      -9.2      4.669     12.031
REMARK  Name = 53354764
REMARK  8 active torsions:
REMARK  status: ('A' for Active; 'I' for Inactive)
REMARK    1  A    between atoms: C_1  and  C_3
REMARK    2  A    between atoms: C_1  and  O_18
REMARK    3  A    between atoms: N_2  and  C_9
REMARK    4  A    between atoms: C_9  and  C_11
REMARK    5  A    between atoms: C_11  and  O_16
REMARK    6  A    between atoms: O_18  and  C_21
REMARK    7  A    between atoms: C_23  and  O_28
REMARK    8  A    between atoms: O_28  and  C_30
REMARK                            x       y       z     vdW  Elec       q    Type
REMARK                         _______ _______ _______ _____ _____    ______ ____
ROOT
ATOM      1  C   UNL     1      32.565 -12.322 -23.383  0.00  0.00    +0.207 C 
ENDROOT
BRANCH   1   3
ATOM      2  N   UNL     1      34.578 -16.122 -22.967  0.00  0.00    +0.388 N 
ATOM      3  C   UNL     1      33.668 -13.374 -23.441  0.00  0.00    +0.040 C 
ATOM      4  C   UNL     1      35.036 -15.026 -22.101  0.00  0.00    -0.077 C 
ATOM      5  C   UNL     1      34.329 -15.647 -24.334  0.00  0.00    -0.077 C 
ATOM      6  C   UNL     1      33.270 -14.541 -24.351  0.00  0.00    -0.019 C 
ATOM      7  C   UNL     1      34.002 -13.901 -22.041  0.00  0.00    -0.019 C 
ATOM      8  H   UNL     1      33.697 -16.472 -22.591  0.00  0.00    -0.080 HD
BRANCH   2   9
ATOM      9  C   UNL     1      35.553 -17.211 -22.973  0.00  0.00    -0.050 C 
BRANCH   9  11
ATOM     10  O   UNL     1      35.817 -20.568 -20.353  0.00  0.00    -0.354 OA
ATOM     11  C   UNL     1      35.490 -18.015 -21.674  0.00  0.00    +0.074 C 
ATOM     12  C   UNL     1      34.451 -19.142 -21.769  0.00  0.00    +0.057 C 
ATOM     13  C   UNL     1      36.865 -18.601 -21.325  0.00  0.00    +0.057 C 
ATOM     14  C   UNL     1      34.503 -20.046 -20.541  0.00  0.00    +0.144 C 
ATOM     15  C   UNL     1      36.777 -19.538 -20.123  0.00  0.00    +0.144 C 
BRANCH  11  16
ATOM     16  O   UNL     1      35.112 -17.121 -20.623  0.00  0.00    -0.389 OA
ATOM     17  H   UNL     1      35.111 -16.211 -20.958  0.00  0.00    +0.210 HD
ENDBRANCH  11  16
ENDBRANCH   9  11
ENDBRANCH   2   9
ENDBRANCH   1   3
BRANCH   1  18
ATOM     18  O   UNL     1      33.110 -11.128 -22.851  0.00  0.00    -0.458 OA
BRANCH  18  21
ATOM     19  O   UNL     1      31.994  -8.521 -24.854  0.00  0.00    -0.350 OA
ATOM     20  N   UNL     1      32.512  -9.797 -24.668  0.00  0.00    -0.039 NA
ATOM     21  C   UNL     1      32.619  -9.945 -23.345  0.00  0.00    +0.267 A 
ATOM     22  C   UNL     1      32.186  -8.804 -22.641  0.00  0.00    +0.127 A 
ATOM     23  C   UNL     1      32.070  -8.400 -21.303  0.00  0.00    +0.146 C 
ATOM     24  C   UNL     1      31.800  -7.931 -23.643  0.00  0.00    +0.183 A 
ATOM     25  C   UNL     1      31.565  -7.119 -21.040  0.00  0.00    +0.037 C 
ATOM     26  C   UNL     1      31.296  -6.653 -23.419  0.00  0.00    +0.041 C 
ATOM     27  C   UNL     1      31.187  -6.264 -22.080  0.00  0.00    +0.006 C 
BRANCH  23  28
ATOM     28  O   UNL     1      32.433  -9.216 -20.267  0.00  0.00    -0.476 OA
BRANCH  28  30
ATOM     29  O   UNL     1      31.258 -12.018 -20.368  0.00  0.00    -0.350 OA
ATOM     30  C   UNL     1      31.380  -9.810 -19.517  0.00  0.00    +0.198 C 
ATOM     31  C   UNL     1      31.972 -10.751 -18.496  0.00  0.00    +0.078 C 
ATOM     32  C   UNL     1      30.584 -10.749 -20.399  0.00  0.00    +0.185 C 
ATOM     33  C   UNL     1      32.243 -11.990 -19.326  0.00  0.00    +0.146 C 
ENDBRANCH  28  30
ENDBRANCH  23  28
ENDBRANCH  18  21
ENDBRANCH   1  18
TORSDOF 8
ENDMDL
MODEL 9
REMARK VINA RESULT:      -8.7      5.252      8.465
REMARK  Name = 53354764
REMARK  8 active torsions:
REMARK  status: ('A' for Active; 'I' for Inactive)
REMARK    1  A    between atoms: C_1  and  C_3
REMARK    2  A    between atoms: C_1  and  O_18
REMARK    3  A    between atoms: N_2  and  C_9
REMARK    4  A    between atoms: C_9  and  C_11
REMARK    5  A    between atoms: C_11  and  O_16
REMARK    6  A    between atoms: O_18  and  C_21
REMARK    7  A    between atoms: C_23  and  O_28
REMARK    8  A    between atoms: O_28  and  C_30
REMARK                            x       y       z     vdW  Elec       q    Type
REMARK                         _______ _______ _______ _____ _____    ______ ____
ROOT
ATOM      1  C   UNL     1      33.644 -24.415 -12.346  0.00  0.00    +0.207 C 
ENDROOT
BRANCH   1   3
ATOM      2  N   UNL     1      30.263 -24.091 -15.015  0.00  0.00    +0.388 N 
ATOM      3  C   UNL     1      32.709 -24.701 -13.516  0.00  0.00    +0.040 C 
ATOM      4  C   UNL     1      30.347 -25.305 -14.190  0.00  0.00    -0.077 C 
ATOM      5  C   UNL     1      31.578 -23.729 -15.560  0.00  0.00    -0.077 C 
ATOM      6  C   UNL     1      32.591 -23.483 -14.439  0.00  0.00    -0.019 C 
ATOM      7  C   UNL     1      31.318 -25.112 -13.023  0.00  0.00    -0.019 C 
ATOM      8  H   UNL     1      29.949 -23.327 -14.418  0.00  0.00    -0.080 HD
BRANCH   2   9
ATOM      9  C   UNL     1      29.294 -24.274 -16.095  0.00  0.00    -0.050 C 
BRANCH   9  11
ATOM     10  O   UNL     1      25.645 -22.071 -16.280  0.00  0.00    -0.354 OA
ATOM     11  C   UNL     1      28.359 -23.069 -16.206  0.00  0.00    +0.074 C 
ATOM     12  C   UNL     1      27.467 -23.171 -17.451  0.00  0.00    +0.057 C 
ATOM     13  C   UNL     1      27.488 -22.935 -14.949  0.00  0.00    +0.057 C 
ATOM     14  C   UNL     1      26.422 -22.059 -17.475  0.00  0.00    +0.144 C 
ATOM     15  C   UNL     1      26.439 -21.838 -15.118  0.00  0.00    +0.144 C 
BRANCH  11  16
ATOM     16  O   UNL     1      29.169 -21.893 -16.308  0.00  0.00    -0.389 OA
ATOM     17  H   UNL     1      30.037 -22.064 -15.912  0.00  0.00    +0.210 HD
ENDBRANCH  11  16
ENDBRANCH   9  11
ENDBRANCH   2   9
ENDBRANCH   1   3
BRANCH   1  18
ATOM     18  O   UNL     1      34.837 -23.843 -12.853  0.00  0.00    -0.458 OA
BRANCH  18  21
ATOM     19  O   UNL     1      37.425 -25.273 -11.033  0.00  0.00    -0.350 OA
ATOM     20  N   UNL     1      36.141 -24.755 -11.150  0.00  0.00    -0.039 NA
ATOM     21  C   UNL     1      36.021 -24.396 -12.432  0.00  0.00    +0.267 A 
ATOM     22  C   UNL     1      37.188 -24.662 -13.175  0.00  0.00    +0.127 A 
ATOM     23  C   UNL     1      37.625 -24.508 -14.498  0.00  0.00    +0.146 C 
ATOM     24  C   UNL     1      38.047 -25.217 -12.242  0.00  0.00    +0.183 A 
ATOM     25  C   UNL     1      38.924 -24.926 -14.819  0.00  0.00    +0.037 C 
ATOM     26  C   UNL     1      39.342 -25.641 -12.526  0.00  0.00    +0.041 C 
ATOM     27  C   UNL     1      39.765 -25.482 -13.849  0.00  0.00    +0.006 C 
BRANCH  23  28
ATOM     28  O   UNL     1      36.823 -23.967 -15.466  0.00  0.00    -0.476 OA
BRANCH  28  30
ATOM     29  O   UNL     1      37.088 -21.667 -17.437  0.00  0.00    -0.350 OA
ATOM     30  C   UNL     1      36.498 -22.588 -15.335  0.00  0.00    +0.198 C 
ATOM     31  C   UNL     1      35.233 -22.304 -16.107  0.00  0.00    +0.078 C 
ATOM     32  C   UNL     1      37.520 -21.744 -16.068  0.00  0.00    +0.185 C 
ATOM     33  C   UNL     1      35.749 -22.173 -17.526  0.00  0.00    +0.146 C 
ENDBRANCH  28  30
ENDBRANCH  23  28
ENDBRANCH  18  21
ENDBRANCH   1  18
TORSDOF 8
ENDMDL
