MODEL 1
REMARK VINA RESULT:     -12.3      0.000      0.000
REMARK  Name = 54576693
REMARK  3 active torsions:
REMARK  status: ('A' for Active; 'I' for Inactive)
REMARK    1  A    between atoms: N_2  and  C_19
REMARK    2  A    between atoms: N_4  and  C_14
REMARK    3  A    between atoms: C_19  and  C_24
REMARK                            x       y       z     vdW  Elec       q    Type
REMARK                         _______ _______ _______ _____ _____    ______ ____
ROOT
ATOM      1  O   UNL     1      37.219 -21.472 -17.058  0.00  0.00    -0.252 OA
ATOM      2  N   UNL     1      33.588 -23.771 -14.529  0.00  0.00    +0.392 N 
ATOM      3  N   UNL     1      35.343 -22.728 -16.553  0.00  0.00    -0.268 N 
ATOM      4  N   UNL     1      35.593 -21.757 -18.690  0.00  0.00    -0.266 N 
ATOM      5  C   UNL     1      34.715 -22.905 -14.160  0.00  0.00    -0.055 C 
ATOM      6  C   UNL     1      33.051 -23.370 -15.835  0.00  0.00    -0.055 C 
ATOM      7  C   UNL     1      34.120 -23.449 -16.929  0.00  0.00    +0.072 C 
ATOM      8  C   UNL     1      35.828 -23.007 -15.200  0.00  0.00    +0.072 C 
ATOM      9  C   UNL     1      36.133 -21.935 -17.416  0.00  0.00    +0.308 C 
ATOM     10  H   UNL     1      33.923 -24.733 -14.595  0.00  0.00    -0.079 HD
ATOM     11  H   UNL     1      35.032 -22.489 -19.033  0.00  0.00    +0.156 HD
ENDROOT
BRANCH   4  14
ATOM     12 CL   UNL     1      33.112 -20.736 -20.176  0.00  0.00    -0.081 Cl
ATOM     13  N   UNL     1      37.274 -18.995 -20.469  0.00  0.00    -0.241 NA
ATOM     14  C   UNL     1      35.762 -20.639 -19.545  0.00  0.00    +0.082 C 
ATOM     15  C   UNL     1      34.709 -20.090 -20.270  0.00  0.00    +0.074 C 
ATOM     16  C   UNL     1      37.013 -20.060 -19.679  0.00  0.00    +0.114 C 
ATOM     17  C   UNL     1      34.939 -18.993 -21.094  0.00  0.00    +0.033 C 
ATOM     18  C   UNL     1      36.227 -18.487 -21.158  0.00  0.00    +0.100 C 
ENDBRANCH   4  14
BRANCH   2  19
ATOM     19  C   UNL     1      32.545 -23.720 -13.506  0.00  0.00    -0.050 C 
BRANCH  19  24
ATOM     20  F   UNL     1      26.343 -22.037 -15.626  0.00  0.00    -0.125 F 
ATOM     21  F   UNL     1      27.223 -22.620 -17.544  0.00  0.00    -0.125 F 
ATOM     22  O   UNL     1      28.593 -21.916 -15.879  0.00  0.00    -0.395 OA
ATOM     23  O   UNL     1      27.422 -24.025 -15.776  0.00  0.00    -0.395 OA
ATOM     24  C   UNL     1      31.168 -23.837 -14.105  0.00  0.00    -0.040 C 
ATOM     25  C   UNL     1      30.581 -22.726 -14.715  0.00  0.00    +0.034 C 
ATOM     26  C   UNL     1      30.486 -25.065 -14.045  0.00  0.00    -0.003 C 
ATOM     27  C   UNL     1      29.319 -22.882 -15.250  0.00  0.00    +0.181 C 
ATOM     28  C   UNL     1      28.650 -24.086 -15.191  0.00  0.00    +0.182 C 
ATOM     29  C   UNL     1      29.209 -25.197 -14.594  0.00  0.00    +0.040 C 
ATOM     30  C   UNL     1      27.405 -22.655 -16.200  0.00  0.00    +0.589 C 
ENDBRANCH  19  24
ENDBRANCH   2  19
TORSDOF 3
ENDMDL
MODEL 2
REMARK VINA RESULT:     -12.1      5.098      9.520
REMARK  Name = 54576693
REMARK  3 active torsions:
REMARK  status: ('A' for Active; 'I' for Inactive)
REMARK    1  A    between atoms: N_2  and  C_19
REMARK    2  A    between atoms: N_4  and  C_14
REMARK    3  A    between atoms: C_19  and  C_24
REMARK                            x       y       z     vdW  Elec       q    Type
REMARK                         _______ _______ _______ _____ _____    ______ ____
ROOT
ATOM      1  O   UNL     1      32.292 -21.934 -18.263  0.00  0.00    -0.252 OA
ATOM      2  N   UNL     1      35.660 -19.506 -21.024  0.00  0.00    +0.392 N 
ATOM      3  N   UNL     1      34.243 -21.392 -19.381  0.00  0.00    -0.268 N 
ATOM      4  N   UNL     1      34.282 -22.907 -17.571  0.00  0.00    -0.266 N 
ATOM      5  C   UNL     1      34.297 -19.212 -20.564  0.00  0.00    -0.055 C 
ATOM      6  C   UNL     1      36.379 -20.283 -20.006  0.00  0.00    -0.055 C 
ATOM      7  C   UNL     1      35.663 -21.601 -19.698  0.00  0.00    +0.072 C 
ATOM      8  C   UNL     1      33.532 -20.508 -20.306  0.00  0.00    +0.072 C 
ATOM      9  C   UNL     1      33.512 -22.068 -18.379  0.00  0.00    +0.308 C 
ATOM     10  H   UNL     1      35.605 -20.060 -21.879  0.00  0.00    -0.079 HD
ATOM     11  H   UNL     1      35.075 -23.311 -17.992  0.00  0.00    +0.156 HD
ENDROOT
BRANCH   4  14
ATOM     12 CL   UNL     1      36.691 -22.842 -15.674  0.00  0.00    -0.081 Cl
ATOM     13  N   UNL     1      32.451 -23.917 -14.530  0.00  0.00    -0.241 NA
ATOM     14  C   UNL     1      34.049 -23.243 -16.214  0.00  0.00    +0.082 C 
ATOM     15  C   UNL     1      35.064 -23.248 -15.263  0.00  0.00    +0.074 C 
ATOM     16  C   UNL     1      32.771 -23.582 -15.799  0.00  0.00    +0.114 C 
ATOM     17  C   UNL     1      34.774 -23.588 -13.946  0.00  0.00    +0.033 C 
ATOM     18  C   UNL     1      33.463 -23.911 -13.634  0.00  0.00    +0.100 C 
ENDBRANCH   4  14
BRANCH   2  19
ATOM     19  C   UNL     1      36.378 -18.268 -21.327  0.00  0.00    -0.050 C 
BRANCH  19  24
ATOM     20  F   UNL     1      32.196 -13.385 -23.438  0.00  0.00    -0.125 F 
ATOM     21  F   UNL     1      34.055 -12.672 -24.345  0.00  0.00    -0.125 F 
ATOM     22  O   UNL     1      34.172 -13.998 -22.510  0.00  0.00    -0.395 OA
ATOM     23  O   UNL     1      33.444 -14.833 -24.656  0.00  0.00    -0.395 OA
ATOM     24  C   UNL     1      35.588 -17.374 -22.245  0.00  0.00    -0.040 C 
ATOM     25  C   UNL     1      35.284 -16.069 -21.848  0.00  0.00    +0.034 C 
ATOM     26  C   UNL     1      35.165 -17.860 -23.495  0.00  0.00    -0.003 C 
ATOM     27  C   UNL     1      34.559 -15.286 -22.723  0.00  0.00    +0.181 C 
ATOM     28  C   UNL     1      34.144 -15.763 -23.948  0.00  0.00    +0.182 C 
ATOM     29  C   UNL     1      34.432 -17.047 -24.363  0.00  0.00    +0.040 C 
ATOM     30  C   UNL     1      33.472 -13.734 -23.735  0.00  0.00    +0.589 C 
ENDBRANCH  19  24
ENDBRANCH   2  19
TORSDOF 3
ENDMDL
MODEL 3
REMARK VINA RESULT:     -11.6      8.103     12.249
REMARK  Name = 54576693
REMARK  3 active torsions:
REMARK  status: ('A' for Active; 'I' for Inactive)
REMARK    1  A    between atoms: N_2  and  C_19
REMARK    2  A    between atoms: N_4  and  C_14
REMARK    3  A    between atoms: C_19  and  C_24
REMARK                            x       y       z     vdW  Elec       q    Type
REMARK                         _______ _______ _______ _____ _____    ______ ____
ROOT
ATOM      1  O   UNL     1      35.412 -18.988 -23.251  0.00  0.00    -0.252 OA
ATOM      2  N   UNL     1      33.885 -14.255 -23.623  0.00  0.00    +0.392 N 
ATOM      3  N   UNL     1      34.927 -16.784 -22.739  0.00  0.00    -0.268 N 
ATOM      4  N   UNL     1      35.092 -18.403 -21.028  0.00  0.00    -0.266 N 
ATOM      5  C   UNL     1      33.883 -15.415 -24.524  0.00  0.00    -0.055 C 
ATOM      6  C   UNL     1      33.678 -14.694 -22.237  0.00  0.00    -0.055 C 
ATOM      7  C   UNL     1      34.768 -15.673 -21.791  0.00  0.00    +0.072 C 
ATOM      8  C   UNL     1      35.000 -16.385 -24.145  0.00  0.00    +0.072 C 
ATOM      9  C   UNL     1      35.155 -18.136 -22.397  0.00  0.00    +0.308 C 
ATOM     10  H   UNL     1      34.792 -13.792 -23.687  0.00  0.00    -0.079 HD
ATOM     11  H   UNL     1      35.354 -17.668 -20.428  0.00  0.00    +0.156 HD
ENDROOT
BRANCH   4  14
ATOM     12 CL   UNL     1      37.290 -20.120 -19.754  0.00  0.00    -0.081 Cl
ATOM     13  N   UNL     1      32.877 -21.101 -19.832  0.00  0.00    -0.241 NA
ATOM     14  C   UNL     1      34.693 -19.612 -20.407  0.00  0.00    +0.082 C 
ATOM     15  C   UNL     1      35.601 -20.472 -19.797  0.00  0.00    +0.074 C 
ATOM     16  C   UNL     1      33.355 -19.970 -20.396  0.00  0.00    +0.114 C 
ATOM     17  C   UNL     1      35.148 -21.646 -19.205  0.00  0.00    +0.033 C 
ATOM     18  C   UNL     1      33.789 -21.912 -19.248  0.00  0.00    +0.100 C 
ENDBRANCH   4  14
BRANCH   2  19
ATOM     19  C   UNL     1      32.854 -13.296 -24.018  0.00  0.00    -0.050 C 
BRANCH  19  24
ATOM     20  F   UNL     1      32.224  -6.809 -22.200  0.00  0.00    -0.125 F 
ATOM     21  F   UNL     1      33.277  -7.567 -20.438  0.00  0.00    -0.125 F 
ATOM     22  O   UNL     1      32.045  -9.009 -21.681  0.00  0.00    -0.395 OA
ATOM     23  O   UNL     1      34.103  -8.043 -22.494  0.00  0.00    -0.395 OA
ATOM     24  C   UNL     1      33.220 -11.889 -23.629  0.00  0.00    -0.040 C 
ATOM     25  C   UNL     1      32.367 -11.155 -22.801  0.00  0.00    +0.034 C 
ATOM     26  C   UNL     1      34.418 -11.326 -24.103  0.00  0.00    -0.003 C 
ATOM     27  C   UNL     1      32.745  -9.869 -22.471  0.00  0.00    +0.181 C 
ATOM     28  C   UNL     1      33.920  -9.318 -22.936  0.00  0.00    +0.182 C 
ATOM     29  C   UNL     1      34.779 -10.022 -23.754  0.00  0.00    +0.040 C 
ATOM     30  C   UNL     1      32.915  -7.867 -21.710  0.00  0.00    +0.589 C 
ENDBRANCH  19  24
ENDBRANCH   2  19
TORSDOF 3
ENDMDL
MODEL 4
REMARK VINA RESULT:     -11.5      4.659      5.729
REMARK  Name = 54576693
REMARK  3 active torsions:
REMARK  status: ('A' for Active; 'I' for Inactive)
REMARK    1  A    between atoms: N_2  and  C_19
REMARK    2  A    between atoms: N_4  and  C_14
REMARK    3  A    between atoms: C_19  and  C_24
REMARK                            x       y       z     vdW  Elec       q    Type
REMARK                         _______ _______ _______ _____ _____    ______ ____
ROOT
ATOM      1  O   UNL     1      37.245 -19.567 -19.543  0.00  0.00    -0.252 OA
ATOM      2  N   UNL     1      34.583 -23.029 -17.136  0.00  0.00    +0.392 N 
ATOM      3  N   UNL     1      35.759 -21.283 -19.093  0.00  0.00    -0.268 N 
ATOM      4  N   UNL     1      35.477 -19.924 -21.003  0.00  0.00    -0.266 N 
ATOM      5  C   UNL     1      35.557 -22.008 -16.730  0.00  0.00    -0.055 C 
ATOM      6  C   UNL     1      33.780 -22.539 -18.265  0.00  0.00    -0.055 C 
ATOM      7  C   UNL     1      34.661 -22.185 -19.466  0.00  0.00    +0.072 C 
ATOM      8  C   UNL     1      36.493 -21.675 -17.889  0.00  0.00    +0.072 C 
ATOM      9  C   UNL     1      36.232 -20.194 -19.861  0.00  0.00    +0.308 C 
ATOM     10  H   UNL     1      35.088 -23.864 -17.434  0.00  0.00    -0.079 HD
ATOM     11  H   UNL     1      35.027 -20.694 -21.421  0.00  0.00    +0.156 HD
ENDROOT
BRANCH   4  14
ATOM     12 CL   UNL     1      34.899 -19.924 -24.015  0.00  0.00    -0.081 Cl
ATOM     13  N   UNL     1      35.196 -16.264 -21.377  0.00  0.00    -0.241 NA
ATOM     14  C   UNL     1      35.285 -18.667 -21.627  0.00  0.00    +0.082 C 
ATOM     15  C   UNL     1      35.017 -18.542 -22.987  0.00  0.00    +0.074 C 
ATOM     16  C   UNL     1      35.363 -17.506 -20.874  0.00  0.00    +0.114 C 
ATOM     17  C   UNL     1      34.840 -17.280 -23.542  0.00  0.00    +0.033 C 
ATOM     18  C   UNL     1      34.938 -16.182 -22.702  0.00  0.00    +0.100 C 
ENDBRANCH   4  14
BRANCH   2  19
ATOM     19  C   UNL     1      33.721 -23.393 -16.013  0.00  0.00    -0.050 C 
BRANCH  19  24
ATOM     20  F   UNL     1      36.738 -23.688  -9.963  0.00  0.00    -0.125 F 
ATOM     21  F   UNL     1      35.302 -25.321  -9.720  0.00  0.00    -0.125 F 
ATOM     22  O   UNL     1      34.837 -23.666 -11.199  0.00  0.00    -0.395 OA
ATOM     23  O   UNL     1      36.599 -25.273 -11.578  0.00  0.00    -0.395 OA
ATOM     24  C   UNL     1      34.514 -23.918 -14.846  0.00  0.00    -0.040 C 
ATOM     25  C   UNL     1      34.222 -23.473 -13.554  0.00  0.00    +0.034 C 
ATOM     26  C   UNL     1      35.540 -24.853 -15.067  0.00  0.00    -0.003 C 
ATOM     27  C   UNL     1      34.975 -23.982 -12.516  0.00  0.00    +0.181 C 
ATOM     28  C   UNL     1      35.981 -24.899 -12.733  0.00  0.00    +0.182 C 
ATOM     29  C   UNL     1      36.288 -25.355 -13.999  0.00  0.00    +0.040 C 
ATOM     30  C   UNL     1      35.867 -24.487 -10.628  0.00  0.00    +0.589 C 
ENDBRANCH  19  24
ENDBRANCH   2  19
TORSDOF 3
ENDMDL
MODEL 5
REMARK VINA RESULT:     -11.4      8.596     12.664
REMARK  Name = 54576693
REMARK  3 active torsions:
REMARK  status: ('A' for Active; 'I' for Inactive)
REMARK    1  A    between atoms: N_2  and  C_19
REMARK    2  A    between atoms: N_4  and  C_14
REMARK    3  A    between atoms: C_19  and  C_24
REMARK                            x       y       z     vdW  Elec       q    Type
REMARK                         _______ _______ _______ _____ _____    ______ ____
ROOT
ATOM      1  O   UNL     1      35.667 -18.288 -23.029  0.00  0.00    -0.252 OA
ATOM      2  N   UNL     1      33.621 -13.741 -22.969  0.00  0.00    +0.392 N 
ATOM      3  N   UNL     1      34.883 -16.236 -22.302  0.00  0.00    -0.268 N 
ATOM      4  N   UNL     1      35.101 -18.038 -20.792  0.00  0.00    -0.266 N 
ATOM      5  C   UNL     1      33.831 -14.766 -24.000  0.00  0.00    -0.055 C 
ATOM      6  C   UNL     1      33.357 -14.377 -21.672  0.00  0.00    -0.055 C 
ATOM      7  C   UNL     1      34.516 -15.283 -21.246  0.00  0.00    +0.072 C 
ATOM      8  C   UNL     1      35.021 -15.650 -23.637  0.00  0.00    +0.072 C 
ATOM      9  C   UNL     1      35.242 -17.589 -22.106  0.00  0.00    +0.308 C 
ATOM     10  H   UNL     1      34.469 -13.178 -22.890  0.00  0.00    -0.079 HD
ATOM     11  H   UNL     1      35.224 -17.364 -20.085  0.00  0.00    +0.156 HD
ENDROOT
BRANCH   4  14
ATOM     12 CL   UNL     1      37.453 -19.805 -19.924  0.00  0.00    -0.081 Cl
ATOM     13  N   UNL     1      33.099 -21.024 -19.959  0.00  0.00    -0.241 NA
ATOM     14  C   UNL     1      34.800 -19.354 -20.362  0.00  0.00    +0.082 C 
ATOM     15  C   UNL     1      35.784 -20.245 -19.947  0.00  0.00    +0.074 C 
ATOM     16  C   UNL     1      33.485 -19.789 -20.350  0.00  0.00    +0.114 C 
ATOM     17  C   UNL     1      35.426 -21.526 -19.537  0.00  0.00    +0.033 C 
ATOM     18  C   UNL     1      34.082 -21.862 -19.562  0.00  0.00    +0.100 C 
ENDBRANCH   4  14
BRANCH   2  19
ATOM     19  C   UNL     1      32.518 -12.856 -23.342  0.00  0.00    -0.050 C 
BRANCH  19  24
ATOM     20  F   UNL     1      36.079  -7.168 -22.475  0.00  0.00    -0.125 F 
ATOM     21  F   UNL     1      34.874  -6.568 -24.201  0.00  0.00    -0.125 F 
ATOM     22  O   UNL     1      35.270  -8.774 -23.856  0.00  0.00    -0.395 OA
ATOM     23  O   UNL     1      33.835  -7.483 -22.405  0.00  0.00    -0.395 OA
ATOM     24  C   UNL     1      32.843 -11.412 -23.068  0.00  0.00    -0.040 C 
ATOM     25  C   UNL     1      33.969 -10.831 -23.656  0.00  0.00    +0.034 C 
ATOM     26  C   UNL     1      32.007 -10.660 -22.223  0.00  0.00    -0.003 C 
ATOM     27  C   UNL     1      34.225  -9.504 -23.377  0.00  0.00    +0.181 C 
ATOM     28  C   UNL     1      33.406  -8.767 -22.549  0.00  0.00    +0.182 C 
ATOM     29  C   UNL     1      32.288  -9.317 -21.956  0.00  0.00    +0.040 C 
ATOM     30  C   UNL     1      35.007  -7.508 -23.232  0.00  0.00    +0.589 C 
ENDBRANCH  19  24
ENDBRANCH   2  19
TORSDOF 3
ENDMDL
MODEL 6
REMARK VINA RESULT:     -11.3     10.476     14.142
REMARK  Name = 54576693
REMARK  3 active torsions:
REMARK  status: ('A' for Active; 'I' for Inactive)
REMARK    1  A    between atoms: N_2  and  C_19
REMARK    2  A    between atoms: N_4  and  C_14
REMARK    3  A    between atoms: C_19  and  C_24
REMARK                            x       y       z     vdW  Elec       q    Type
REMARK                         _______ _______ _______ _____ _____    ______ ____
ROOT
ATOM      1  O   UNL     1      31.196  -7.728 -22.239  0.00  0.00    -0.252 OA
ATOM      2  N   UNL     1      33.558 -12.043 -23.055  0.00  0.00    +0.392 N 
ATOM      3  N   UNL     1      32.851  -9.281 -22.687  0.00  0.00    -0.268 N 
ATOM      4  N   UNL     1      33.101  -7.034 -23.369  0.00  0.00    -0.266 N 
ATOM      5  C   UNL     1      32.163 -11.661 -22.800  0.00  0.00    -0.055 C 
ATOM      6  C   UNL     1      34.231 -10.999 -23.838  0.00  0.00    -0.055 C 
ATOM      7  C   UNL     1      34.208  -9.651 -23.112  0.00  0.00    +0.072 C 
ATOM      8  C   UNL     1      32.104 -10.349 -22.021  0.00  0.00    +0.072 C 
ATOM      9  C   UNL     1      32.294  -7.983 -22.739  0.00  0.00    +0.308 C 
ATOM     10  H   UNL     1      34.039 -12.141 -22.160  0.00  0.00    -0.079 HD
ATOM     11  H   UNL     1      34.073  -7.176 -23.304  0.00  0.00    +0.156 HD
ENDROOT
BRANCH   4  14
ATOM     12 CL   UNL     1      32.140  -4.619 -21.740  0.00  0.00    -0.081 Cl
ATOM     13  N   UNL     1      32.327  -4.864 -26.251  0.00  0.00    -0.241 NA
ATOM     14  C   UNL     1      32.678  -5.891 -24.091  0.00  0.00    +0.082 C 
ATOM     15  C   UNL     1      32.222  -4.738 -23.460  0.00  0.00    +0.074 C 
ATOM     16  C   UNL     1      32.710  -5.902 -25.476  0.00  0.00    +0.114 C 
ATOM     17  C   UNL     1      31.818  -3.648 -24.224  0.00  0.00    +0.033 C 
ATOM     18  C   UNL     1      31.890  -3.761 -25.603  0.00  0.00    +0.100 C 
ENDBRANCH   4  14
BRANCH   2  19
ATOM     19  C   UNL     1      33.620 -13.328 -23.750  0.00  0.00    -0.050 C 
BRANCH  19  24
ATOM     20  F   UNL     1      35.263 -19.496 -21.506  0.00  0.00    -0.125 F 
ATOM     21  F   UNL     1      37.266 -18.620 -21.624  0.00  0.00    -0.125 F 
ATOM     22  O   UNL     1      35.624 -17.781 -22.944  0.00  0.00    -0.395 OA
ATOM     23  O   UNL     1      35.631 -17.474 -20.549  0.00  0.00    -0.395 OA
ATOM     24  C   UNL     1      34.152 -14.420 -22.861  0.00  0.00    -0.040 C 
ATOM     25  C   UNL     1      34.638 -15.600 -23.429  0.00  0.00    +0.034 C 
ATOM     26  C   UNL     1      34.156 -14.241 -21.467  0.00  0.00    -0.003 C 
ATOM     27  C   UNL     1      35.115 -16.573 -22.575  0.00  0.00    +0.181 C 
ATOM     28  C   UNL     1      35.119 -16.398 -21.208  0.00  0.00    +0.182 C 
ATOM     29  C   UNL     1      34.646 -15.241 -20.623  0.00  0.00    +0.040 C 
ATOM     30  C   UNL     1      35.941 -18.331 -21.657  0.00  0.00    +0.589 C 
ENDBRANCH  19  24
ENDBRANCH   2  19
TORSDOF 3
ENDMDL
MODEL 7
REMARK VINA RESULT:     -11.3      6.982     11.028
REMARK  Name = 54576693
REMARK  3 active torsions:
REMARK  status: ('A' for Active; 'I' for Inactive)
REMARK    1  A    between atoms: N_2  and  C_19
REMARK    2  A    between atoms: N_4  and  C_14
REMARK    3  A    between atoms: C_19  and  C_24
REMARK                            x       y       z     vdW  Elec       q    Type
REMARK                         _______ _______ _______ _____ _____    ______ ____
ROOT
ATOM      1  O   UNL     1      35.264 -19.353 -23.291  0.00  0.00    -0.252 OA
ATOM      2  N   UNL     1      34.019 -14.575 -23.982  0.00  0.00    +0.392 N 
ATOM      3  N   UNL     1      34.924 -17.093 -22.932  0.00  0.00    -0.268 N 
ATOM      4  N   UNL     1      35.023 -18.592 -21.111  0.00  0.00    -0.266 N 
ATOM      5  C   UNL     1      33.929 -15.793 -24.796  0.00  0.00    -0.055 C 
ATOM      6  C   UNL     1      33.813 -14.899 -22.565  0.00  0.00    -0.055 C 
ATOM      7  C   UNL     1      34.850 -15.909 -22.065  0.00  0.00    +0.072 C 
ATOM      8  C   UNL     1      34.993 -16.801 -24.365  0.00  0.00    +0.072 C 
ATOM      9  C   UNL     1      35.076 -18.429 -22.497  0.00  0.00    +0.308 C 
ATOM     10  H   UNL     1      34.951 -14.174 -24.093  0.00  0.00    -0.079 HD
ATOM     11  H   UNL     1      35.341 -17.834 -20.570  0.00  0.00    +0.156 HD
ENDROOT
BRANCH   4  14
ATOM     12 CL   UNL     1      37.136 -20.329 -19.722  0.00  0.00    -0.081 Cl
ATOM     13  N   UNL     1      32.675 -21.064 -19.701  0.00  0.00    -0.241 NA
ATOM     14  C   UNL     1      34.564 -19.727 -20.398  0.00  0.00    +0.082 C 
ATOM     15  C   UNL     1      35.429 -20.587 -19.729  0.00  0.00    +0.074 C 
ATOM     16  C   UNL     1      33.208 -20.008 -20.353  0.00  0.00    +0.114 C 
ATOM     17  C   UNL     1      34.918 -21.686 -19.047  0.00  0.00    +0.033 C 
ATOM     18  C   UNL     1      33.546 -21.878 -19.063  0.00  0.00    +0.100 C 
ENDBRANCH   4  14
BRANCH   2  19
ATOM     19  C   UNL     1      33.040 -13.585 -24.430  0.00  0.00    -0.050 C 
BRANCH  19  24
ATOM     20  F   UNL     1      30.253 -10.264 -19.235  0.00  0.00    -0.125 F 
ATOM     21  F   UNL     1      32.236 -10.640 -18.388  0.00  0.00    -0.125 F 
ATOM     22  O   UNL     1      31.457 -12.023 -20.009  0.00  0.00    -0.395 OA
ATOM     23  O   UNL     1      32.085  -9.735 -20.461  0.00  0.00    -0.395 OA
ATOM     24  C   UNL     1      32.798 -12.526 -23.388  0.00  0.00    -0.040 C 
ATOM     25  C   UNL     1      32.213 -12.876 -22.168  0.00  0.00    +0.034 C 
ATOM     26  C   UNL     1      33.163 -11.194 -23.651  0.00  0.00    -0.003 C 
ATOM     27  C   UNL     1      32.011 -11.872 -21.243  0.00  0.00    +0.181 C 
ATOM     28  C   UNL     1      32.369 -10.566 -21.502  0.00  0.00    +0.182 C 
ATOM     29  C   UNL     1      32.948 -10.195 -22.698  0.00  0.00    +0.040 C 
ATOM     30  C   UNL     1      31.512 -10.668 -19.535  0.00  0.00    +0.589 C 
ENDBRANCH  19  24
ENDBRANCH   2  19
TORSDOF 3
ENDMDL
MODEL 8
REMARK VINA RESULT:     -11.3     10.212     13.701
REMARK  Name = 54576693
REMARK  3 active torsions:
REMARK  status: ('A' for Active; 'I' for Inactive)
REMARK    1  A    between atoms: N_2  and  C_19
REMARK    2  A    between atoms: N_4  and  C_14
REMARK    3  A    between atoms: C_19  and  C_24
REMARK                            x       y       z     vdW  Elec       q    Type
REMARK                         _______ _______ _______ _____ _____    ______ ____
ROOT
ATOM      1  O   UNL     1      32.747  -8.250 -24.434  0.00  0.00    -0.252 OA
ATOM      2  N   UNL     1      32.676 -12.468 -21.775  0.00  0.00    +0.392 N 
ATOM      3  N   UNL     1      32.033  -9.997 -23.096  0.00  0.00    -0.268 N 
ATOM      4  N   UNL     1      30.932  -7.909 -23.029  0.00  0.00    -0.266 N 
ATOM      5  C   UNL     1      33.704 -11.741 -22.532  0.00  0.00    -0.055 C 
ATOM      6  C   UNL     1      31.744 -11.520 -21.152  0.00  0.00    -0.055 C 
ATOM      7  C   UNL     1      31.060 -10.636 -22.199  0.00  0.00    +0.072 C 
ATOM      8  C   UNL     1      33.060 -10.895 -23.627  0.00  0.00    +0.072 C 
ATOM      9  C   UNL     1      31.965  -8.671 -23.579  0.00  0.00    +0.308 C 
ATOM     10  H   UNL     1      32.154 -13.063 -22.420  0.00  0.00    -0.079 HD
ATOM     11  H   UNL     1      30.124  -8.402 -22.758  0.00  0.00    +0.156 HD
ENDROOT
BRANCH   4  14
ATOM     12 CL   UNL     1      31.889  -6.891 -20.299  0.00  0.00    -0.081 Cl
ATOM     13  N   UNL     1      30.428  -4.320 -23.719  0.00  0.00    -0.241 NA
ATOM     14  C   UNL     1      30.917  -6.509 -22.817  0.00  0.00    +0.082 C 
ATOM     15  C   UNL     1      31.328  -5.932 -21.619  0.00  0.00    +0.074 C 
ATOM     16  C   UNL     1      30.480  -5.666 -23.826  0.00  0.00    +0.114 C 
ATOM     17  C   UNL     1      31.288  -4.549 -21.471  0.00  0.00    +0.033 C 
ATOM     18  C   UNL     1      30.835  -3.795 -22.541  0.00  0.00    +0.100 C 
ENDBRANCH   4  14
BRANCH   2  19
ATOM     19  C   UNL     1      33.293 -13.324 -20.763  0.00  0.00    -0.050 C 
BRANCH  19  24
ATOM     20  F   UNL     1      37.492 -18.566 -21.578  0.00  0.00    -0.125 F 
ATOM     21  F   UNL     1      35.587 -19.642 -21.560  0.00  0.00    -0.125 F 
ATOM     22  O   UNL     1      35.718 -17.631 -20.520  0.00  0.00    -0.395 OA
ATOM     23  O   UNL     1      35.816 -17.846 -22.923  0.00  0.00    -0.395 OA
ATOM     24  C   UNL     1      33.963 -14.524 -21.376  0.00  0.00    -0.040 C 
ATOM     25  C   UNL     1      34.521 -15.503 -20.551  0.00  0.00    +0.034 C 
ATOM     26  C   UNL     1      34.020 -14.649 -22.775  0.00  0.00    -0.003 C 
ATOM     27  C   UNL     1      35.124 -16.585 -21.158  0.00  0.00    +0.181 C 
ATOM     28  C   UNL     1      35.180 -16.708 -22.530  0.00  0.00    +0.182 C 
ATOM     29  C   UNL     1      34.636 -15.755 -23.367  0.00  0.00    +0.040 C 
ATOM     30  C   UNL     1      36.147 -18.410 -21.647  0.00  0.00    +0.589 C 
ENDBRANCH  19  24
ENDBRANCH   2  19
TORSDOF 3
ENDMDL
MODEL 9
REMARK VINA RESULT:     -11.3      4.953      9.446
REMARK  Name = 54576693
REMARK  3 active torsions:
REMARK  status: ('A' for Active; 'I' for Inactive)
REMARK    1  A    between atoms: N_2  and  C_19
REMARK    2  A    between atoms: N_4  and  C_14
REMARK    3  A    between atoms: C_19  and  C_24
REMARK                            x       y       z     vdW  Elec       q    Type
REMARK                         _______ _______ _______ _____ _____    ______ ____
ROOT
ATOM      1  O   UNL     1      32.028 -21.916 -18.124  0.00  0.00    -0.252 OA
ATOM      2  N   UNL     1      35.683 -19.827 -20.795  0.00  0.00    +0.392 N 
ATOM      3  N   UNL     1      34.050 -21.566 -19.192  0.00  0.00    -0.268 N 
ATOM      4  N   UNL     1      33.897 -23.077 -17.384  0.00  0.00    -0.266 N 
ATOM      5  C   UNL     1      34.343 -19.402 -20.369  0.00  0.00    -0.055 C 
ATOM      6  C   UNL     1      36.298 -20.669 -19.762  0.00  0.00    -0.055 C 
ATOM      7  C   UNL     1      35.450 -21.911 -19.474  0.00  0.00    +0.072 C 
ATOM      8  C   UNL     1      33.450 -20.618 -20.132  0.00  0.00    +0.072 C 
ATOM      9  C   UNL     1      33.232 -22.168 -18.209  0.00  0.00    +0.308 C 
ATOM     10  H   UNL     1      35.596 -20.373 -21.653  0.00  0.00    -0.079 HD
ATOM     11  H   UNL     1      34.658 -23.556 -17.786  0.00  0.00    +0.156 HD
ENDROOT
BRANCH   4  14
ATOM     12 CL   UNL     1      36.230 -23.071 -15.393  0.00  0.00    -0.081 Cl
ATOM     13  N   UNL     1      31.913 -23.987 -14.409  0.00  0.00    -0.241 NA
ATOM     14  C   UNL     1      33.599 -23.388 -16.034  0.00  0.00    +0.082 C 
ATOM     15  C   UNL     1      34.575 -23.416 -15.044  0.00  0.00    +0.074 C 
ATOM     16  C   UNL     1      32.295 -23.678 -15.668  0.00  0.00    +0.114 C 
ATOM     17  C   UNL     1      34.221 -23.730 -13.736  0.00  0.00    +0.033 C 
ATOM     18  C   UNL     1      32.888 -24.004 -13.473  0.00  0.00    +0.100 C 
ENDBRANCH   4  14
BRANCH   2  19
ATOM     19  C   UNL     1      36.524 -18.664 -21.078  0.00  0.00    -0.050 C 
BRANCH  19  24
ATOM     20  F   UNL     1      34.301 -14.382 -25.823  0.00  0.00    -0.125 F 
ATOM     21  F   UNL     1      32.432 -15.441 -25.401  0.00  0.00    -0.125 F 
ATOM     22  O   UNL     1      34.401 -16.486 -24.983  0.00  0.00    -0.395 OA
ATOM     23  O   UNL     1      33.635 -14.611 -23.668  0.00  0.00    -0.395 OA
ATOM     24  C   UNL     1      35.747 -17.558 -21.741  0.00  0.00    -0.040 C 
ATOM     25  C   UNL     1      35.474 -17.627 -23.109  0.00  0.00    +0.034 C 
ATOM     26  C   UNL     1      35.301 -16.467 -20.975  0.00  0.00    -0.003 C 
ATOM     27  C   UNL     1      34.758 -16.591 -23.672  0.00  0.00    +0.181 C 
ATOM     28  C   UNL     1      34.320 -15.521 -22.922  0.00  0.00    +0.182 C 
ATOM     29  C   UNL     1      34.577 -15.430 -21.569  0.00  0.00    +0.040 C 
ATOM     30  C   UNL     1      33.697 -15.235 -24.958  0.00  0.00    +0.589 C 
ENDBRANCH  19  24
ENDBRANCH   2  19
TORSDOF 3
ENDMDL
