MODEL 1
REMARK VINA RESULT:     -10.3      0.000      0.000
REMARK  Name = 11313622
REMARK  3 active torsions:
REMARK  status: ('A' for Active; 'I' for Inactive)
REMARK    1  A    between atoms: N_4  and  C_8
REMARK    2  A    between atoms: N_5  and  C_18
REMARK    3  A    between atoms: C_18  and  C_19
REMARK                            x       y       z     vdW  Elec       q    Type
REMARK                         _______ _______ _______ _____ _____    ______ ____
ROOT
ATOM      1  S   UNL     1      32.214  -8.377 -19.579  0.00  0.00    +0.060 S 
ATOM      2  O   UNL     1      31.027  -9.915 -22.831  0.00  0.00    -0.245 OA
ATOM      3  O   UNL     1      31.933 -10.661 -18.322  0.00  0.00    -0.258 OA
ATOM      4  N   UNL     1      31.810  -8.379 -21.241  0.00  0.00    -0.226 N 
ATOM      5  N   UNL     1      31.408 -10.553 -20.606  0.00  0.00    -0.237 N 
ATOM      6  C   UNL     1      31.378  -9.644 -21.684  0.00  0.00    +0.344 A 
ATOM      7  C   UNL     1      31.826 -10.072 -19.387  0.00  0.00    +0.312 A 
ENDROOT
BRANCH   4   8
ATOM      8  C   UNL     1      31.898  -7.251 -22.067  0.00  0.00    +0.075 C 
ATOM      9  C   UNL     1      33.065  -6.954 -22.790  0.00  0.00    +0.017 C 
ATOM     10  C   UNL     1      33.096  -5.801 -23.609  0.00  0.00    +0.001 C 
ATOM     11  C   UNL     1      30.779  -6.423 -22.147  0.00  0.00    +0.018 C 
ATOM     12  C   UNL     1      34.201  -7.778 -22.720  0.00  0.00    +0.001 C 
ATOM     13  C   UNL     1      31.961  -4.977 -23.678  0.00  0.00    +0.000 C 
ATOM     14  C   UNL     1      30.810  -5.288 -22.952  0.00  0.00    +0.002 C 
ATOM     15  C   UNL     1      34.263  -5.502 -24.331  0.00  0.00    +0.000 C 
ATOM     16  C   UNL     1      35.350  -7.467 -23.447  0.00  0.00    +0.000 C 
ATOM     17  C   UNL     1      35.382  -6.332 -24.251  0.00  0.00    +0.000 C 
ENDBRANCH   4   8
BRANCH   5  18
ATOM     18  C   UNL     1      31.007 -11.935 -20.796  0.00  0.00    +0.141 C 
BRANCH  18  19
ATOM     19  C   UNL     1      32.205 -12.830 -20.951  0.00  0.00    +0.001 C 
ATOM     20  C   UNL     1      32.509 -13.747 -19.955  0.00  0.00    -0.002 C 
ATOM     21  C   UNL     1      32.991 -12.729 -22.092  0.00  0.00    -0.002 C 
ATOM     22  C   UNL     1      33.621 -14.577 -20.098  0.00  0.00    -0.000 C 
ATOM     23  C   UNL     1      34.102 -13.560 -22.237  0.00  0.00    -0.000 C 
ATOM     24  C   UNL     1      34.417 -14.484 -21.239  0.00  0.00    -0.000 C 
ENDBRANCH  18  19
ENDBRANCH   5  18
TORSDOF 3
ENDMDL
MODEL 2
REMARK VINA RESULT:     -10.1      1.157      2.576
REMARK  Name = 11313622
REMARK  3 active torsions:
REMARK  status: ('A' for Active; 'I' for Inactive)
REMARK    1  A    between atoms: N_4  and  C_8
REMARK    2  A    between atoms: N_5  and  C_18
REMARK    3  A    between atoms: C_18  and  C_19
REMARK                            x       y       z     vdW  Elec       q    Type
REMARK                         _______ _______ _______ _____ _____    ______ ____
ROOT
ATOM      1  S   UNL     1      32.279  -8.384 -20.634  0.00  0.00    +0.060 S 
ATOM      2  O   UNL     1      32.732 -10.293 -23.875  0.00  0.00    -0.245 OA
ATOM      3  O   UNL     1      31.056 -10.424 -19.529  0.00  0.00    -0.258 OA
ATOM      4  N   UNL     1      32.797  -8.603 -22.249  0.00  0.00    -0.226 N 
ATOM      5  N   UNL     1      31.809 -10.617 -21.743  0.00  0.00    -0.237 N 
ATOM      6  C   UNL     1      32.475  -9.882 -22.745  0.00  0.00    +0.344 A 
ATOM      7  C   UNL     1      31.603  -9.995 -20.534  0.00  0.00    +0.312 A 
ENDROOT
BRANCH   4   8
ATOM      8  C   UNL     1      33.465  -7.623 -22.995  0.00  0.00    +0.075 C 
ATOM      9  C   UNL     1      32.768  -6.624 -23.694  0.00  0.00    +0.017 C 
ATOM     10  C   UNL     1      33.496  -5.660 -24.431  0.00  0.00    +0.001 C 
ATOM     11  C   UNL     1      34.858  -7.673 -23.022  0.00  0.00    +0.018 C 
ATOM     12  C   UNL     1      31.365  -6.560 -23.678  0.00  0.00    +0.001 C 
ATOM     13  C   UNL     1      34.899  -5.725 -24.448  0.00  0.00    +0.000 C 
ATOM     14  C   UNL     1      35.575  -6.725 -23.747  0.00  0.00    +0.002 C 
ATOM     15  C   UNL     1      32.800  -4.662 -25.132  0.00  0.00    +0.000 C 
ATOM     16  C   UNL     1      30.690  -5.560 -24.379  0.00  0.00    +0.000 C 
ATOM     17  C   UNL     1      31.406  -4.613 -25.104  0.00  0.00    +0.000 C 
ENDBRANCH   4   8
BRANCH   5  18
ATOM     18  C   UNL     1      31.365 -11.975 -21.998  0.00  0.00    +0.141 C 
BRANCH  18  19
ATOM     19  C   UNL     1      32.354 -12.978 -21.469  0.00  0.00    +0.001 C 
ATOM     20  C   UNL     1      33.515 -13.238 -22.185  0.00  0.00    -0.002 C 
ATOM     21  C   UNL     1      32.094 -13.629 -20.271  0.00  0.00    -0.002 C 
ATOM     22  C   UNL     1      34.432 -14.167 -21.695  0.00  0.00    -0.000 C 
ATOM     23  C   UNL     1      33.011 -14.558 -19.780  0.00  0.00    -0.000 C 
ATOM     24  C   UNL     1      34.181 -14.827 -20.493  0.00  0.00    -0.000 C 
ENDBRANCH  18  19
ENDBRANCH   5  18
TORSDOF 3
ENDMDL
MODEL 3
REMARK VINA RESULT:      -9.6      1.203      2.563
REMARK  Name = 11313622
REMARK  3 active torsions:
REMARK  status: ('A' for Active; 'I' for Inactive)
REMARK    1  A    between atoms: N_4  and  C_8
REMARK    2  A    between atoms: N_5  and  C_18
REMARK    3  A    between atoms: C_18  and  C_19
REMARK                            x       y       z     vdW  Elec       q    Type
REMARK                         _______ _______ _______ _____ _____    ______ ____
ROOT
ATOM      1  S   UNL     1      33.028  -7.555 -19.948  0.00  0.00    +0.060 S 
ATOM      2  O   UNL     1      31.070  -9.048 -22.827  0.00  0.00    -0.245 OA
ATOM      3  O   UNL     1      32.345  -9.537 -18.372  0.00  0.00    -0.258 OA
ATOM      4  N   UNL     1      32.421  -7.622 -21.545  0.00  0.00    -0.226 N 
ATOM      5  N   UNL     1      31.568  -9.530 -20.586  0.00  0.00    -0.237 N 
ATOM      6  C   UNL     1      31.627  -8.764 -21.769  0.00  0.00    +0.344 A 
ATOM      7  C   UNL     1      32.251  -9.055 -19.491  0.00  0.00    +0.312 A 
ENDROOT
BRANCH   4   8
ATOM      8  C   UNL     1      32.684  -6.652 -22.521  0.00  0.00    +0.075 C 
ATOM      9  C   UNL     1      32.026  -5.411 -22.525  0.00  0.00    +0.017 C 
ATOM     10  C   UNL     1      32.331  -4.469 -23.536  0.00  0.00    +0.001 C 
ATOM     11  C   UNL     1      33.628  -6.961 -23.500  0.00  0.00    +0.018 C 
ATOM     12  C   UNL     1      31.072  -5.083 -21.546  0.00  0.00    +0.001 C 
ATOM     13  C   UNL     1      33.284  -4.797 -24.514  0.00  0.00    +0.000 C 
ATOM     14  C   UNL     1      33.928  -6.035 -24.494  0.00  0.00    +0.002 C 
ATOM     15  C   UNL     1      31.673  -3.229 -23.541  0.00  0.00    +0.000 C 
ATOM     16  C   UNL     1      30.430  -3.845 -21.566  0.00  0.00    +0.000 C 
ATOM     17  C   UNL     1      30.729  -2.920 -22.561  0.00  0.00    +0.000 C 
ENDBRANCH   4   8
BRANCH   5  18
ATOM     18  C   UNL     1      30.806 -10.765 -20.546  0.00  0.00    +0.141 C 
BRANCH  18  19
ATOM     19  C   UNL     1      31.676 -11.948 -20.874  0.00  0.00    +0.001 C 
ATOM     20  C   UNL     1      32.188 -12.727 -19.845  0.00  0.00    -0.002 C 
ATOM     21  C   UNL     1      31.955 -12.246 -22.201  0.00  0.00    -0.002 C 
ATOM     22  C   UNL     1      32.995 -13.824 -20.148  0.00  0.00    -0.000 C 
ATOM     23  C   UNL     1      32.761 -13.343 -22.505  0.00  0.00    -0.000 C 
ATOM     24  C   UNL     1      33.281 -14.132 -21.478  0.00  0.00    -0.000 C 
ENDBRANCH  18  19
ENDBRANCH   5  18
TORSDOF 3
ENDMDL
MODEL 4
REMARK VINA RESULT:      -9.5      6.026     11.029
REMARK  Name = 11313622
REMARK  3 active torsions:
REMARK  status: ('A' for Active; 'I' for Inactive)
REMARK    1  A    between atoms: N_4  and  C_8
REMARK    2  A    between atoms: N_5  and  C_18
REMARK    3  A    between atoms: C_18  and  C_19
REMARK                            x       y       z     vdW  Elec       q    Type
REMARK                         _______ _______ _______ _____ _____    ______ ____
ROOT
ATOM      1  S   UNL     1      34.714 -18.617 -23.530  0.00  0.00    +0.060 S 
ATOM      2  O   UNL     1      35.765 -16.324 -20.704  0.00  0.00    -0.245 OA
ATOM      3  O   UNL     1      34.144 -16.569 -25.066  0.00  0.00    -0.258 OA
ATOM      4  N   UNL     1      35.297 -18.244 -21.966  0.00  0.00    -0.226 N 
ATOM      5  N   UNL     1      34.952 -16.171 -22.899  0.00  0.00    -0.237 N 
ATOM      6  C   UNL     1      35.381 -16.856 -21.743  0.00  0.00    +0.344 A 
ATOM      7  C   UNL     1      34.551 -16.932 -23.972  0.00  0.00    +0.312 A 
ENDROOT
BRANCH   4   8
ATOM      8  C   UNL     1      35.651 -19.210 -21.015  0.00  0.00    +0.075 C 
ATOM      9  C   UNL     1      34.685 -19.995 -20.364  0.00  0.00    +0.017 C 
ATOM     10  C   UNL     1      35.100 -20.954 -19.411  0.00  0.00    +0.001 C 
ATOM     11  C   UNL     1      37.007 -19.367 -20.730  0.00  0.00    +0.018 C 
ATOM     12  C   UNL     1      33.314 -19.849 -20.639  0.00  0.00    +0.001 C 
ATOM     13  C   UNL     1      36.470 -21.100 -19.136  0.00  0.00    +0.000 C 
ATOM     14  C   UNL     1      37.416 -20.311 -19.792  0.00  0.00    +0.002 C 
ATOM     15  C   UNL     1      34.135 -21.739 -18.759  0.00  0.00    +0.000 C 
ATOM     16  C   UNL     1      32.370 -20.638 -19.983  0.00  0.00    +0.000 C 
ATOM     17  C   UNL     1      32.779 -21.581 -19.045  0.00  0.00    +0.000 C 
ENDBRANCH   4   8
BRANCH   5  18
ATOM     18  C   UNL     1      34.940 -14.720 -22.933  0.00  0.00    +0.141 C 
BRANCH  18  19
ATOM     19  C   UNL     1      33.816 -14.169 -22.098  0.00  0.00    +0.001 C 
ATOM     20  C   UNL     1      33.740 -14.495 -20.751  0.00  0.00    -0.002 C 
ATOM     21  C   UNL     1      32.869 -13.341 -22.686  0.00  0.00    -0.002 C 
ATOM     22  C   UNL     1      32.698 -13.985 -19.976  0.00  0.00    -0.000 C 
ATOM     23  C   UNL     1      31.827 -12.830 -21.912  0.00  0.00    -0.000 C 
ATOM     24  C   UNL     1      31.742 -13.152 -20.556  0.00  0.00    -0.000 C 
ENDBRANCH  18  19
ENDBRANCH   5  18
TORSDOF 3
ENDMDL
MODEL 5
REMARK VINA RESULT:      -9.5      2.508      7.519
REMARK  Name = 11313622
REMARK  3 active torsions:
REMARK  status: ('A' for Active; 'I' for Inactive)
REMARK    1  A    between atoms: N_4  and  C_8
REMARK    2  A    between atoms: N_5  and  C_18
REMARK    3  A    between atoms: C_18  and  C_19
REMARK                            x       y       z     vdW  Elec       q    Type
REMARK                         _______ _______ _______ _____ _____    ______ ____
ROOT
ATOM      1  S   UNL     1      34.003 -11.747 -23.776  0.00  0.00    +0.060 S 
ATOM      2  O   UNL     1      31.724 -12.313 -20.803  0.00  0.00    -0.245 OA
ATOM      3  O   UNL     1      32.789  -9.497 -24.360  0.00  0.00    -0.258 OA
ATOM      4  N   UNL     1      33.410 -12.588 -22.410  0.00  0.00    -0.226 N 
ATOM      5  N   UNL     1      32.056 -10.732 -22.505  0.00  0.00    -0.237 N 
ATOM      6  C   UNL     1      32.332 -11.921 -21.797  0.00  0.00    +0.344 A 
ATOM      7  C   UNL     1      32.838 -10.453 -23.601  0.00  0.00    +0.312 A 
ENDROOT
BRANCH   4   8
ATOM      8  C   UNL     1      33.936 -13.804 -21.953  0.00  0.00    +0.075 C 
ATOM      9  C   UNL     1      34.134 -14.894 -22.815  0.00  0.00    +0.017 C 
ATOM     10  C   UNL     1      34.668 -16.098 -22.297  0.00  0.00    +0.001 C 
ATOM     11  C   UNL     1      34.259 -13.897 -20.599  0.00  0.00    +0.018 C 
ATOM     12  C   UNL     1      33.814 -14.817 -24.181  0.00  0.00    +0.001 C 
ATOM     13  C   UNL     1      34.988 -16.175 -20.931  0.00  0.00    +0.000 C 
ATOM     14  C   UNL     1      34.784 -15.080 -20.089  0.00  0.00    +0.002 C 
ATOM     15  C   UNL     1      34.865 -17.189 -23.158  0.00  0.00    +0.000 C 
ATOM     16  C   UNL     1      34.018 -15.911 -25.022  0.00  0.00    +0.000 C 
ATOM     17  C   UNL     1      34.542 -17.095 -24.512  0.00  0.00    +0.000 C 
ENDBRANCH   4   8
BRANCH   5  18
ATOM     18  C   UNL     1      30.982  -9.853 -22.078  0.00  0.00    +0.141 C 
BRANCH  18  19
ATOM     19  C   UNL     1      31.524  -8.554 -21.548  0.00  0.00    +0.001 C 
ATOM     20  C   UNL     1      31.199  -7.365 -22.187  0.00  0.00    -0.002 C 
ATOM     21  C   UNL     1      32.341  -8.561 -20.425  0.00  0.00    -0.002 C 
ATOM     22  C   UNL     1      31.702  -6.160 -21.696  0.00  0.00    -0.000 C 
ATOM     23  C   UNL     1      32.843  -7.356 -19.933  0.00  0.00    -0.000 C 
ATOM     24  C   UNL     1      32.523  -6.155 -20.569  0.00  0.00    -0.000 C 
ENDBRANCH  18  19
ENDBRANCH   5  18
TORSDOF 3
ENDMDL
MODEL 6
REMARK VINA RESULT:      -9.4      2.095      3.177
REMARK  Name = 11313622
REMARK  3 active torsions:
REMARK  status: ('A' for Active; 'I' for Inactive)
REMARK    1  A    between atoms: N_4  and  C_8
REMARK    2  A    between atoms: N_5  and  C_18
REMARK    3  A    between atoms: C_18  and  C_19
REMARK                            x       y       z     vdW  Elec       q    Type
REMARK                         _______ _______ _______ _____ _____    ______ ____
ROOT
ATOM      1  S   UNL     1      34.279  -9.365 -23.509  0.00  0.00    +0.060 S 
ATOM      2  O   UNL     1      31.151 -10.188 -21.538  0.00  0.00    -0.245 OA
ATOM      3  O   UNL     1      34.464 -11.835 -24.370  0.00  0.00    -0.258 OA
ATOM      4  N   UNL     1      32.959  -9.026 -22.477  0.00  0.00    -0.226 N 
ATOM      5  N   UNL     1      32.689 -11.260 -22.948  0.00  0.00    -0.237 N 
ATOM      6  C   UNL     1      32.157 -10.160 -22.244  0.00  0.00    +0.344 A 
ATOM      7  C   UNL     1      33.828 -11.046 -23.688  0.00  0.00    +0.312 A 
ENDROOT
BRANCH   4   8
ATOM      8  C   UNL     1      32.705  -7.764 -21.924  0.00  0.00    +0.075 C 
ATOM      9  C   UNL     1      32.036  -6.762 -22.645  0.00  0.00    +0.017 C 
ATOM     10  C   UNL     1      31.807  -5.506 -22.035  0.00  0.00    +0.001 C 
ATOM     11  C   UNL     1      33.143  -7.532 -20.620  0.00  0.00    +0.018 C 
ATOM     12  C   UNL     1      31.588  -6.979 -23.959  0.00  0.00    +0.001 C 
ATOM     13  C   UNL     1      32.256  -5.288 -20.722  0.00  0.00    +0.000 C 
ATOM     14  C   UNL     1      32.919  -6.297 -20.020  0.00  0.00    +0.002 C 
ATOM     15  C   UNL     1      31.140  -4.503 -22.756  0.00  0.00    +0.000 C 
ATOM     16  C   UNL     1      30.925  -5.972 -24.660  0.00  0.00    +0.000 C 
ATOM     17  C   UNL     1      30.701  -4.736 -24.060  0.00  0.00    +0.000 C 
ENDBRANCH   4   8
BRANCH   5  18
ATOM     18  C   UNL     1      32.047 -12.560 -22.876  0.00  0.00    +0.141 C 
BRANCH  18  19
ATOM     19  C   UNL     1      32.693 -13.427 -21.830  0.00  0.00    +0.001 C 
ATOM     20  C   UNL     1      33.889 -14.070 -22.117  0.00  0.00    -0.002 C 
ATOM     21  C   UNL     1      32.085 -13.570 -20.589  0.00  0.00    -0.002 C 
ATOM     22  C   UNL     1      34.489 -14.873 -21.147  0.00  0.00    -0.000 C 
ATOM     23  C   UNL     1      32.684 -14.373 -19.619  0.00  0.00    -0.000 C 
ATOM     24  C   UNL     1      33.887 -15.025 -19.898  0.00  0.00    -0.000 C 
ENDBRANCH  18  19
ENDBRANCH   5  18
TORSDOF 3
ENDMDL
MODEL 7
REMARK VINA RESULT:      -9.0      2.528      3.396
REMARK  Name = 11313622
REMARK  3 active torsions:
REMARK  status: ('A' for Active; 'I' for Inactive)
REMARK    1  A    between atoms: N_4  and  C_8
REMARK    2  A    between atoms: N_5  and  C_18
REMARK    3  A    between atoms: C_18  and  C_19
REMARK                            x       y       z     vdW  Elec       q    Type
REMARK                         _______ _______ _______ _____ _____    ______ ____
ROOT
ATOM      1  S   UNL     1      31.127 -11.306 -21.738  0.00  0.00    +0.060 S 
ATOM      2  O   UNL     1      34.517 -10.809 -23.353  0.00  0.00    -0.245 OA
ATOM      3  O   UNL     1      31.793 -13.710 -20.929  0.00  0.00    -0.258 OA
ATOM      4  N   UNL     1      32.321 -10.449 -22.611  0.00  0.00    -0.226 N 
ATOM      5  N   UNL     1      33.358 -12.446 -22.137  0.00  0.00    -0.237 N 
ATOM      6  C   UNL     1      33.509 -11.192 -22.764  0.00  0.00    +0.344 A 
ATOM      7  C   UNL     1      32.153 -12.707 -21.527  0.00  0.00    +0.312 A 
ENDROOT
BRANCH   4   8
ATOM      8  C   UNL     1      32.140  -9.156 -23.119  0.00  0.00    +0.075 C 
ATOM      9  C   UNL     1      32.270  -8.018 -22.306  0.00  0.00    +0.017 C 
ATOM     10  C   UNL     1      32.075  -6.736 -22.874  0.00  0.00    +0.001 C 
ATOM     11  C   UNL     1      31.820  -9.034 -24.471  0.00  0.00    +0.018 C 
ATOM     12  C   UNL     1      32.591  -8.123 -20.942  0.00  0.00    +0.001 C 
ATOM     13  C   UNL     1      31.753  -6.631 -24.237  0.00  0.00    +0.000 C 
ATOM     14  C   UNL     1      31.628  -7.773 -25.030  0.00  0.00    +0.002 C 
ATOM     15  C   UNL     1      32.204  -5.598 -22.062  0.00  0.00    +0.000 C 
ATOM     16  C   UNL     1      32.717  -6.981 -20.151  0.00  0.00    +0.000 C 
ATOM     17  C   UNL     1      32.524  -5.721 -20.709  0.00  0.00    +0.000 C 
ENDBRANCH   4   8
BRANCH   5  18
ATOM     18  C   UNL     1      34.443 -13.410 -22.149  0.00  0.00    +0.141 C 
BRANCH  18  19
ATOM     19  C   UNL     1      34.216 -14.467 -23.195  0.00  0.00    +0.001 C 
ATOM     20  C   UNL     1      34.805 -15.715 -23.047  0.00  0.00    -0.002 C 
ATOM     21  C   UNL     1      33.419 -14.181 -24.296  0.00  0.00    -0.002 C 
ATOM     22  C   UNL     1      34.595 -16.696 -24.016  0.00  0.00    -0.000 C 
ATOM     23  C   UNL     1      33.208 -15.160 -25.266  0.00  0.00    -0.000 C 
ATOM     24  C   UNL     1      33.796 -16.419 -25.126  0.00  0.00    -0.000 C 
ENDBRANCH  18  19
ENDBRANCH   5  18
TORSDOF 3
ENDMDL
MODEL 8
REMARK VINA RESULT:      -9.0      3.083      7.149
REMARK  Name = 11313622
REMARK  3 active torsions:
REMARK  status: ('A' for Active; 'I' for Inactive)
REMARK    1  A    between atoms: N_4  and  C_8
REMARK    2  A    between atoms: N_5  and  C_18
REMARK    3  A    between atoms: C_18  and  C_19
REMARK                            x       y       z     vdW  Elec       q    Type
REMARK                         _______ _______ _______ _____ _____    ______ ____
ROOT
ATOM      1  S   UNL     1      34.488 -11.246 -24.007  0.00  0.00    +0.060 S 
ATOM      2  O   UNL     1      31.394 -12.832 -22.503  0.00  0.00    -0.245 OA
ATOM      3  O   UNL     1      33.559  -8.839 -23.540  0.00  0.00    -0.258 OA
ATOM      4  N   UNL     1      33.487 -12.545 -23.522  0.00  0.00    -0.226 N 
ATOM      5  N   UNL     1      32.266 -10.694 -22.914  0.00  0.00    -0.237 N 
ATOM      6  C   UNL     1      32.286 -12.104 -22.933  0.00  0.00    +0.344 A 
ATOM      7  C   UNL     1      33.353 -10.039 -23.445  0.00  0.00    +0.312 A 
ENDROOT
BRANCH   4   8
ATOM      8  C   UNL     1      33.822 -13.895 -23.693  0.00  0.00    +0.075 C 
ATOM      9  C   UNL     1      34.256 -14.690 -22.620  0.00  0.00    +0.017 C 
ATOM     10  C   UNL     1      34.581 -16.047 -22.853  0.00  0.00    +0.001 C 
ATOM     11  C   UNL     1      33.710 -14.428 -24.977  0.00  0.00    +0.018 C 
ATOM     12  C   UNL     1      34.374 -14.168 -21.321  0.00  0.00    +0.001 C 
ATOM     13  C   UNL     1      34.464 -16.569 -24.151  0.00  0.00    +0.000 C 
ATOM     14  C   UNL     1      34.030 -15.763 -25.206  0.00  0.00    +0.002 C 
ATOM     15  C   UNL     1      35.017 -16.843 -21.781  0.00  0.00    +0.000 C 
ATOM     16  C   UNL     1      34.807 -14.974 -20.268  0.00  0.00    +0.000 C 
ATOM     17  C   UNL     1      35.128 -16.308 -20.496  0.00  0.00    +0.000 C 
ENDBRANCH   4   8
BRANCH   5  18
ATOM     18  C   UNL     1      31.131  -9.981 -22.357  0.00  0.00    +0.141 C 
BRANCH  18  19
ATOM     19  C   UNL     1      31.368  -9.630 -20.913  0.00  0.00    +0.001 C 
ATOM     20  C   UNL     1      31.114 -10.575 -19.928  0.00  0.00    -0.002 C 
ATOM     21  C   UNL     1      31.840  -8.366 -20.584  0.00  0.00    -0.002 C 
ATOM     22  C   UNL     1      31.333 -10.250 -18.590  0.00  0.00    -0.000 C 
ATOM     23  C   UNL     1      32.060  -8.041 -19.246  0.00  0.00    -0.000 C 
ATOM     24  C   UNL     1      31.807  -8.984 -18.248  0.00  0.00    -0.000 C 
ENDBRANCH  18  19
ENDBRANCH   5  18
TORSDOF 3
ENDMDL
MODEL 9
REMARK VINA RESULT:      -8.9      7.776     12.989
REMARK  Name = 11313622
REMARK  3 active torsions:
REMARK  status: ('A' for Active; 'I' for Inactive)
REMARK    1  A    between atoms: N_4  and  C_8
REMARK    2  A    between atoms: N_5  and  C_18
REMARK    3  A    between atoms: C_18  and  C_19
REMARK                            x       y       z     vdW  Elec       q    Type
REMARK                         _______ _______ _______ _____ _____    ______ ____
ROOT
ATOM      1  S   UNL     1      37.233 -20.209 -19.472  0.00  0.00    +0.060 S 
ATOM      2  O   UNL     1      33.738 -20.053 -20.926  0.00  0.00    -0.245 OA
ATOM      3  O   UNL     1      38.140 -18.576 -21.313  0.00  0.00    -0.258 OA
ATOM      4  N   UNL     1      35.567 -20.589 -19.559  0.00  0.00    -0.226 N 
ATOM      5  N   UNL     1      35.869 -19.164 -21.339  0.00  0.00    -0.237 N 
ATOM      6  C   UNL     1      34.928 -19.947 -20.638  0.00  0.00    +0.344 A 
ATOM      7  C   UNL     1      37.164 -19.167 -20.876  0.00  0.00    +0.312 A 
ENDROOT
BRANCH   4   8
ATOM      8  C   UNL     1      34.913 -21.442 -18.661  0.00  0.00    +0.075 C 
ATOM      9  C   UNL     1      35.553 -21.938 -17.513  0.00  0.00    +0.017 C 
ATOM     10  C   UNL     1      34.843 -22.797 -16.642  0.00  0.00    +0.001 C 
ATOM     11  C   UNL     1      33.593 -21.788 -18.947  0.00  0.00    +0.018 C 
ATOM     12  C   UNL     1      36.883 -21.599 -17.211  0.00  0.00    +0.001 C 
ATOM     13  C   UNL     1      33.514 -23.136 -16.945  0.00  0.00    +0.000 C 
ATOM     14  C   UNL     1      32.894 -22.634 -18.091  0.00  0.00    +0.002 C 
ATOM     15  C   UNL     1      35.482 -23.295 -15.495  0.00  0.00    +0.000 C 
ATOM     16  C   UNL     1      37.501 -22.102 -16.066  0.00  0.00    +0.000 C 
ATOM     17  C   UNL     1      36.803 -22.948 -15.210  0.00  0.00    +0.000 C 
ENDBRANCH   4   8
BRANCH   5  18
ATOM     18  C   UNL     1      35.466 -18.396 -22.503  0.00  0.00    +0.141 C 
BRANCH  18  19
ATOM     19  C   UNL     1      35.130 -16.978 -22.126  0.00  0.00    +0.001 C 
ATOM     20  C   UNL     1      35.000 -16.638 -20.787  0.00  0.00    -0.002 C 
ATOM     21  C   UNL     1      34.957 -16.028 -23.124  0.00  0.00    -0.002 C 
ATOM     22  C   UNL     1      34.688 -15.324 -20.438  0.00  0.00    -0.000 C 
ATOM     23  C   UNL     1      34.646 -14.714 -22.775  0.00  0.00    -0.000 C 
ATOM     24  C   UNL     1      34.512 -14.362 -21.431  0.00  0.00    -0.000 C 
ENDBRANCH  18  19
ENDBRANCH   5  18
TORSDOF 3
ENDMDL
