MODEL 1
REMARK VINA RESULT:     -12.0      0.000      0.000
REMARK  Name = 10138993
REMARK  4 active torsions:
REMARK  status: ('A' for Active; 'I' for Inactive)
REMARK    1  A    between atoms: C_5  and  N_18
REMARK    2  A    between atoms: C_12  and  C_22
REMARK    3  A    between atoms: C_22  and  C_26
REMARK    4  A    between atoms: C_23  and  N_29
REMARK                            x       y       z     vdW  Elec       q    Type
REMARK                         _______ _______ _______ _____ _____    ______ ____
ROOT
ATOM      1  O   UNL     1      33.111 -21.345 -19.996  0.00  0.00    -0.274 OA
ATOM      2  N   UNL     1      32.043 -23.224 -16.391  0.00  0.00    -0.275 N 
ATOM      3  N   UNL     1      34.609 -21.943 -18.288  0.00  0.00    -0.268 N 
ATOM      4  N   UNL     1      32.457 -22.624 -17.519  0.00  0.00    -0.157 NA
ATOM      5  C   UNL     1      35.444 -23.785 -14.174  0.00  0.00    +0.069 C 
ATOM      6  C   UNL     1      35.436 -23.182 -15.438  0.00  0.00    +0.020 C 
ATOM      7  C   UNL     1      34.259 -24.236 -13.587  0.00  0.00    +0.018 C 
ATOM      8  C   UNL     1      34.210 -23.041 -16.108  0.00  0.00    +0.052 A 
ATOM      9  C   UNL     1      33.046 -23.501 -15.502  0.00  0.00    +0.077 A 
ATOM     10  C   UNL     1      33.030 -24.105 -14.242  0.00  0.00    +0.020 C 
ATOM     11  C   UNL     1      33.765 -22.523 -17.332  0.00  0.00    +0.155 A 
ATOM     12  C   UNL     1      34.239 -21.409 -19.519  0.00  0.00    +0.232 C 
ATOM     13  H   UNL     1      31.100 -23.446 -16.218  0.00  0.00    +0.189 HD
ATOM     14  H   UNL     1      35.567 -21.910 -18.066  0.00  0.00    +0.156 HD
ENDROOT
BRANCH   5  18
ATOM     15  S   UNL     1      37.982 -24.826 -14.237  0.00  0.00    +0.057 S 
ATOM     16  O   UNL     1      37.454 -25.992 -14.918  0.00  0.00    -0.154 OA
ATOM     17  O   UNL     1      38.884 -23.897 -14.885  0.00  0.00    -0.154 OA
ATOM     18  N   UNL     1      36.701 -23.939 -13.463  0.00  0.00    -0.194 N 
ATOM     19  C   UNL     1      38.712 -25.370 -12.700  0.00  0.00    +0.174 C 
ATOM     20  C   UNL     1      38.184 -24.411 -11.646  0.00  0.00    +0.051 C 
ATOM     21  C   UNL     1      36.716 -24.172 -11.990  0.00  0.00    +0.117 C 
ENDBRANCH   5  18
BRANCH  12  22
ATOM     22  C   UNL     1      35.459 -20.874 -20.266  0.00  0.00    +0.112 C 
BRANCH  22  26
ATOM     23  C   UNL     1      34.700 -17.266 -22.494  0.00  0.00    +0.048 C 
ATOM     24  C   UNL     1      34.442 -18.531 -23.056  0.00  0.00    +0.014 C 
ATOM     25  C   UNL     1      35.212 -17.213 -21.183  0.00  0.00    +0.014 C 
ATOM     26  C   UNL     1      35.196 -19.624 -21.037  0.00  0.00    -0.013 C 
ATOM     27  C   UNL     1      34.688 -19.699 -22.335  0.00  0.00    -0.003 C 
ATOM     28  C   UNL     1      35.458 -18.381 -20.462  0.00  0.00    -0.003 C 
BRANCH  23  29
ATOM     29  N   UNL     1      34.452 -16.092 -23.218  0.00  0.00    -0.307 N 
ATOM     30  C   UNL     1      34.065 -13.701 -24.787  0.00  0.00    +0.004 C 
ATOM     31  C   UNL     1      34.044 -13.664 -23.265  0.00  0.00    +0.021 C 
ATOM     32  C   UNL     1      33.596 -15.063 -25.286  0.00  0.00    +0.021 C 
ATOM     33  C   UNL     1      34.868 -14.800 -22.661  0.00  0.00    +0.091 C 
ATOM     34  C   UNL     1      34.426 -16.194 -24.684  0.00  0.00    +0.091 C 
ENDBRANCH  23  29
ENDBRANCH  22  26
ENDBRANCH  12  22
TORSDOF 4
ENDMDL
MODEL 2
REMARK VINA RESULT:     -11.3      1.326      1.508
REMARK  Name = 10138993
REMARK  4 active torsions:
REMARK  status: ('A' for Active; 'I' for Inactive)
REMARK    1  A    between atoms: C_5  and  N_18
REMARK    2  A    between atoms: C_12  and  C_22
REMARK    3  A    between atoms: C_22  and  C_26
REMARK    4  A    between atoms: C_23  and  N_29
REMARK                            x       y       z     vdW  Elec       q    Type
REMARK                         _______ _______ _______ _____ _____    ______ ____
ROOT
ATOM      1  O   UNL     1      32.925 -21.391 -19.626  0.00  0.00    -0.274 OA
ATOM      2  N   UNL     1      31.778 -23.361 -16.094  0.00  0.00    -0.275 N 
ATOM      3  N   UNL     1      34.404 -22.283 -18.034  0.00  0.00    -0.268 N 
ATOM      4  N   UNL     1      32.218 -22.743 -17.202  0.00  0.00    -0.157 NA
ATOM      5  C   UNL     1      35.170 -24.485 -14.087  0.00  0.00    +0.069 C 
ATOM      6  C   UNL     1      35.187 -23.802 -15.310  0.00  0.00    +0.020 C 
ATOM      7  C   UNL     1      33.964 -24.825 -13.471  0.00  0.00    +0.018 C 
ATOM      8  C   UNL     1      33.961 -23.467 -15.909  0.00  0.00    +0.052 A 
ATOM      9  C   UNL     1      32.775 -23.820 -15.275  0.00  0.00    +0.077 A 
ATOM     10  C   UNL     1      32.735 -24.500 -14.055  0.00  0.00    +0.020 C 
ATOM     11  C   UNL     1      33.535 -22.816 -17.074  0.00  0.00    +0.155 A 
ATOM     12  C   UNL     1      34.054 -21.626 -19.211  0.00  0.00    +0.232 C 
ATOM     13  H   UNL     1      30.823 -23.476 -15.889  0.00  0.00    +0.189 HD
ATOM     14  H   UNL     1      35.367 -22.383 -17.858  0.00  0.00    +0.156 HD
ENDROOT
BRANCH   5  18
ATOM     15  S   UNL     1      36.624 -24.480 -11.759  0.00  0.00    +0.057 S 
ATOM     16  O   UNL     1      36.064 -23.180 -11.448  0.00  0.00    -0.154 OA
ATOM     17  O   UNL     1      36.315 -25.660 -10.979  0.00  0.00    -0.154 OA
ATOM     18  N   UNL     1      36.426 -24.840 -13.450  0.00  0.00    -0.194 N 
ATOM     19  C   UNL     1      38.399 -24.303 -11.870  0.00  0.00    +0.174 C 
ATOM     20  C   UNL     1      38.792 -25.024 -13.148  0.00  0.00    +0.051 C 
ATOM     21  C   UNL     1      37.718 -24.678 -14.176  0.00  0.00    +0.117 C 
ENDBRANCH   5  18
BRANCH  12  22
ATOM     22  C   UNL     1      35.299 -21.195 -19.983  0.00  0.00    +0.112 C 
BRANCH  22  26
ATOM     23  C   UNL     1      34.751 -17.632 -22.339  0.00  0.00    +0.048 C 
ATOM     24  C   UNL     1      34.312 -18.884 -22.809  0.00  0.00    +0.014 C 
ATOM     25  C   UNL     1      35.374 -17.576 -21.078  0.00  0.00    +0.014 C 
ATOM     26  C   UNL     1      35.110 -19.961 -20.798  0.00  0.00    -0.013 C 
ATOM     27  C   UNL     1      34.490 -20.039 -22.046  0.00  0.00    -0.003 C 
ATOM     28  C   UNL     1      35.551 -18.730 -20.315  0.00  0.00    -0.003 C 
BRANCH  23  29
ATOM     29  N   UNL     1      34.572 -16.472 -23.105  0.00  0.00    -0.307 N 
ATOM     30  C   UNL     1      34.322 -14.123 -24.763  0.00  0.00    +0.004 C 
ATOM     31  C   UNL     1      34.344 -14.024 -23.243  0.00  0.00    +0.021 C 
ATOM     32  C   UNL     1      33.741 -15.464 -25.194  0.00  0.00    +0.021 C 
ATOM     33  C   UNL     1      35.098 -15.194 -22.612  0.00  0.00    +0.091 C 
ATOM     34  C   UNL     1      34.501 -16.630 -24.565  0.00  0.00    +0.091 C 
ENDBRANCH  23  29
ENDBRANCH  22  26
ENDBRANCH  12  22
TORSDOF 4
ENDMDL
MODEL 3
REMARK VINA RESULT:     -11.0      1.432      2.344
REMARK  Name = 10138993
REMARK  4 active torsions:
REMARK  status: ('A' for Active; 'I' for Inactive)
REMARK    1  A    between atoms: C_5  and  N_18
REMARK    2  A    between atoms: C_12  and  C_22
REMARK    3  A    between atoms: C_22  and  C_26
REMARK    4  A    between atoms: C_23  and  N_29
REMARK                            x       y       z     vdW  Elec       q    Type
REMARK                         _______ _______ _______ _____ _____    ______ ____
ROOT
ATOM      1  O   UNL     1      33.925 -20.029 -21.331  0.00  0.00    -0.274 OA
ATOM      2  N   UNL     1      32.745 -22.991 -18.591  0.00  0.00    -0.275 N 
ATOM      3  N   UNL     1      35.087 -20.597 -19.371  0.00  0.00    -0.268 N 
ATOM      4  N   UNL     1      33.183 -22.031 -19.422  0.00  0.00    -0.157 NA
ATOM      5  C   UNL     1      35.505 -23.117 -15.564  0.00  0.00    +0.069 C 
ATOM      6  C   UNL     1      35.590 -22.238 -16.651  0.00  0.00    +0.020 C 
ATOM      7  C   UNL     1      34.444 -24.019 -15.452  0.00  0.00    +0.018 C 
ATOM      8  C   UNL     1      34.585 -22.282 -17.632  0.00  0.00    +0.052 A 
ATOM      9  C   UNL     1      33.542 -23.192 -17.497  0.00  0.00    +0.077 A 
ATOM     10  C   UNL     1      33.437 -24.077 -16.421  0.00  0.00    +0.020 C 
ATOM     11  C   UNL     1      34.293 -21.615 -18.829  0.00  0.00    +0.155 A 
ATOM     12  C   UNL     1      34.859 -19.892 -20.549  0.00  0.00    +0.232 C 
ATOM     13  H   UNL     1      31.923 -23.506 -18.756  0.00  0.00    +0.189 HD
ATOM     14  H   UNL     1      35.894 -20.353 -18.863  0.00  0.00    +0.156 HD
ENDROOT
BRANCH   5  18
ATOM     15  S   UNL     1      37.855 -24.210 -14.663  0.00  0.00    +0.057 S 
ATOM     16  O   UNL     1      37.379 -25.511 -15.091  0.00  0.00    -0.154 OA
ATOM     17  O   UNL     1      38.981 -23.556 -15.295  0.00  0.00    -0.154 OA
ATOM     18  N   UNL     1      36.532 -23.087 -14.538  0.00  0.00    -0.194 N 
ATOM     19  C   UNL     1      38.135 -24.280 -12.900  0.00  0.00    +0.174 C 
ATOM     20  C   UNL     1      37.481 -23.027 -12.343  0.00  0.00    +0.051 C 
ATOM     21  C   UNL     1      36.172 -22.857 -13.110  0.00  0.00    +0.117 C 
ENDBRANCH   5  18
BRANCH  12  22
ATOM     22  C   UNL     1      35.961 -18.861 -20.787  0.00  0.00    +0.112 C 
BRANCH  22  26
ATOM     23  C   UNL     1      34.509 -15.020 -22.088  0.00  0.00    +0.048 C 
ATOM     24  C   UNL     1      34.545 -15.355 -20.721  0.00  0.00    +0.014 C 
ATOM     25  C   UNL     1      34.961 -15.976 -23.018  0.00  0.00    +0.014 C 
ATOM     26  C   UNL     1      35.458 -17.531 -21.238  0.00  0.00    -0.013 C 
ATOM     27  C   UNL     1      35.015 -16.599 -20.299  0.00  0.00    -0.003 C 
ATOM     28  C   UNL     1      35.430 -17.220 -22.597  0.00  0.00    -0.003 C 
BRANCH  23  29
ATOM     29  N   UNL     1      34.037 -13.771 -22.512  0.00  0.00    -0.307 N 
ATOM     30  C   UNL     1      32.932 -11.258 -23.402  0.00  0.00    +0.004 C 
ATOM     31  C   UNL     1      34.197 -11.835 -24.026  0.00  0.00    +0.021 C 
ATOM     32  C   UNL     1      32.808 -11.710 -21.952  0.00  0.00    +0.021 C 
ATOM     33  C   UNL     1      34.240 -13.358 -23.905  0.00  0.00    +0.091 C 
ATOM     34  C   UNL     1      32.847 -13.232 -21.838  0.00  0.00    +0.091 C 
ENDBRANCH  23  29
ENDBRANCH  22  26
ENDBRANCH  12  22
TORSDOF 4
ENDMDL
MODEL 4
REMARK VINA RESULT:     -10.9      3.277      4.964
REMARK  Name = 10138993
REMARK  4 active torsions:
REMARK  status: ('A' for Active; 'I' for Inactive)
REMARK    1  A    between atoms: C_5  and  N_18
REMARK    2  A    between atoms: C_12  and  C_22
REMARK    3  A    between atoms: C_22  and  C_26
REMARK    4  A    between atoms: C_23  and  N_29
REMARK                            x       y       z     vdW  Elec       q    Type
REMARK                         _______ _______ _______ _____ _____    ______ ____
ROOT
ATOM      1  O   UNL     1      37.212 -22.049 -17.796  0.00  0.00    -0.274 OA
ATOM      2  N   UNL     1      35.336 -22.796 -14.109  0.00  0.00    -0.275 N 
ATOM      3  N   UNL     1      34.914 -22.432 -17.502  0.00  0.00    -0.268 N 
ATOM      4  N   UNL     1      35.867 -22.564 -15.321  0.00  0.00    -0.157 NA
ATOM      5  C   UNL     1      31.328 -23.317 -14.786  0.00  0.00    +0.069 C 
ATOM      6  C   UNL     1      32.255 -23.049 -15.801  0.00  0.00    +0.020 C 
ATOM      7  C   UNL     1      31.735 -23.425 -13.454  0.00  0.00    +0.018 C 
ATOM      8  C   UNL     1      33.606 -22.889 -15.453  0.00  0.00    +0.052 A 
ATOM      9  C   UNL     1      33.983 -23.000 -14.119  0.00  0.00    +0.077 A 
ATOM     10  C   UNL     1      33.076 -23.267 -13.090  0.00  0.00    +0.020 C 
ATOM     11  C   UNL     1      34.810 -22.623 -16.118  0.00  0.00    +0.155 A 
ATOM     12  C   UNL     1      36.071 -22.165 -18.228  0.00  0.00    +0.232 C 
ATOM     13  H   UNL     1      35.874 -22.818 -13.285  0.00  0.00    +0.189 HD
ATOM     14  H   UNL     1      34.077 -22.492 -18.017  0.00  0.00    +0.156 HD
ENDROOT
BRANCH   5  18
ATOM     15  S   UNL     1      29.259 -25.094 -15.091  0.00  0.00    +0.057 S 
ATOM     16  O   UNL     1      30.199 -26.046 -15.650  0.00  0.00    -0.154 OA
ATOM     17  O   UNL     1      28.603 -25.315 -13.820  0.00  0.00    -0.154 OA
ATOM     18  N   UNL     1      29.926 -23.487 -15.124  0.00  0.00    -0.194 N 
ATOM     19  C   UNL     1      28.023 -24.748 -16.334  0.00  0.00    +0.174 C 
ATOM     20  C   UNL     1      27.889 -23.235 -16.351  0.00  0.00    +0.051 C 
ATOM     21  C   UNL     1      29.306 -22.683 -16.215  0.00  0.00    +0.117 C 
ENDBRANCH   5  18
BRANCH  12  22
ATOM     22  C   UNL     1      35.757 -22.026 -19.716  0.00  0.00    +0.112 C 
BRANCH  22  26
ATOM     23  C   UNL     1      35.079 -17.966 -20.986  0.00  0.00    +0.048 C 
ATOM     24  C   UNL     1      36.382 -18.441 -20.746  0.00  0.00    +0.014 C 
ATOM     25  C   UNL     1      34.003 -18.856 -20.800  0.00  0.00    +0.014 C 
ATOM     26  C   UNL     1      35.522 -20.620 -20.156  0.00  0.00    -0.013 C 
ATOM     27  C   UNL     1      36.603 -19.755 -20.335  0.00  0.00    -0.003 C 
ATOM     28  C   UNL     1      34.223 -20.170 -20.388  0.00  0.00    -0.003 C 
BRANCH  23  29
ATOM     29  N   UNL     1      34.858 -16.646 -21.400  0.00  0.00    -0.307 N 
ATOM     30  C   UNL     1      34.548 -13.916 -22.284  0.00  0.00    +0.004 C 
ATOM     31  C   UNL     1      34.033 -14.374 -20.926  0.00  0.00    +0.021 C 
ATOM     32  C   UNL     1      34.531 -15.077 -23.272  0.00  0.00    +0.021 C 
ATOM     33  C   UNL     1      34.821 -15.573 -20.399  0.00  0.00    +0.091 C 
ATOM     34  C   UNL     1      35.323 -16.271 -22.743  0.00  0.00    +0.091 C 
ENDBRANCH  23  29
ENDBRANCH  22  26
ENDBRANCH  12  22
TORSDOF 4
ENDMDL
MODEL 5
REMARK VINA RESULT:     -10.4      7.997     14.900
REMARK  Name = 10138993
REMARK  4 active torsions:
REMARK  status: ('A' for Active; 'I' for Inactive)
REMARK    1  A    between atoms: C_5  and  N_18
REMARK    2  A    between atoms: C_12  and  C_22
REMARK    3  A    between atoms: C_22  and  C_26
REMARK    4  A    between atoms: C_23  and  N_29
REMARK                            x       y       z     vdW  Elec       q    Type
REMARK                         _______ _______ _______ _____ _____    ______ ____
ROOT
ATOM      1  O   UNL     1      32.342 -12.964 -21.506  0.00  0.00    -0.274 OA
ATOM      2  N   UNL     1      31.153  -9.006 -20.739  0.00  0.00    -0.275 N 
ATOM      3  N   UNL     1      33.153 -11.068 -22.630  0.00  0.00    -0.268 N 
ATOM      4  N   UNL     1      31.580 -10.244 -21.039  0.00  0.00    -0.157 NA
ATOM      5  C   UNL     1      33.204  -6.530 -23.281  0.00  0.00    +0.069 C 
ATOM      6  C   UNL     1      33.359  -7.922 -23.267  0.00  0.00    +0.020 C 
ATOM      7  C   UNL     1      32.317  -5.897 -22.407  0.00  0.00    +0.018 C 
ATOM      8  C   UNL     1      32.603  -8.673 -22.351  0.00  0.00    +0.052 A 
ATOM      9  C   UNL     1      31.729  -8.017 -21.491  0.00  0.00    +0.077 A 
ATOM     10  C   UNL     1      31.558  -6.630 -21.489  0.00  0.00    +0.020 C 
ATOM     11  C   UNL     1      32.453 -10.024 -22.011  0.00  0.00    +0.155 A 
ATOM     12  C   UNL     1      33.055 -12.427 -22.346  0.00  0.00    +0.232 C 
ATOM     13  H   UNL     1      30.486  -8.825 -20.039  0.00  0.00    +0.189 HD
ATOM     14  H   UNL     1      33.782 -10.813 -23.342  0.00  0.00    +0.156 HD
ENDROOT
BRANCH   5  18
ATOM     15  S   UNL     1      33.114  -4.736 -25.356  0.00  0.00    +0.057 S 
ATOM     16  O   UNL     1      31.953  -5.435 -25.871  0.00  0.00    -0.154 OA
ATOM     17  O   UNL     1      33.035  -3.385 -24.841  0.00  0.00    -0.154 OA
ATOM     18  N   UNL     1      33.975  -5.735 -24.221  0.00  0.00    -0.194 N 
ATOM     19  C   UNL     1      34.397  -4.812 -26.597  0.00  0.00    +0.174 C 
ATOM     20  C   UNL     1      35.653  -5.222 -25.847  0.00  0.00    +0.051 C 
ATOM     21  C   UNL     1      35.216  -6.283 -24.839  0.00  0.00    +0.117 C 
ENDBRANCH   5  18
BRANCH  12  22
ATOM     22  C   UNL     1      33.985 -13.237 -23.247  0.00  0.00    +0.112 C 
BRANCH  22  26
ATOM     23  C   UNL     1      35.099 -17.065 -21.616  0.00  0.00    +0.048 C 
ATOM     24  C   UNL     1      34.893 -15.953 -20.776  0.00  0.00    +0.014 C 
ATOM     25  C   UNL     1      34.931 -16.891 -23.003  0.00  0.00    +0.014 C 
ATOM     26  C   UNL     1      34.371 -14.563 -22.682  0.00  0.00    -0.013 C 
ATOM     27  C   UNL     1      34.533 -14.713 -21.304  0.00  0.00    -0.003 C 
ATOM     28  C   UNL     1      34.570 -15.651 -23.531  0.00  0.00    -0.003 C 
BRANCH  23  29
ATOM     29  N   UNL     1      35.461 -18.310 -21.085  0.00  0.00    -0.307 N 
ATOM     30  C   UNL     1      36.279 -20.904 -20.118  0.00  0.00    +0.004 C 
ATOM     31  C   UNL     1      34.818 -20.471 -20.093  0.00  0.00    +0.021 C 
ATOM     32  C   UNL     1      37.189 -19.687 -19.995  0.00  0.00    +0.021 C 
ATOM     33  C   UNL     1      34.519 -19.432 -21.173  0.00  0.00    +0.091 C 
ATOM     34  C   UNL     1      36.890 -18.655 -21.080  0.00  0.00    +0.091 C 
ENDBRANCH  23  29
ENDBRANCH  22  26
ENDBRANCH  12  22
TORSDOF 4
ENDMDL
MODEL 6
REMARK VINA RESULT:     -10.2      2.807      4.405
REMARK  Name = 10138993
REMARK  4 active torsions:
REMARK  status: ('A' for Active; 'I' for Inactive)
REMARK    1  A    between atoms: C_5  and  N_18
REMARK    2  A    between atoms: C_12  and  C_22
REMARK    3  A    between atoms: C_22  and  C_26
REMARK    4  A    between atoms: C_23  and  N_29
REMARK                            x       y       z     vdW  Elec       q    Type
REMARK                         _______ _______ _______ _____ _____    ______ ____
ROOT
ATOM      1  O   UNL     1      37.152 -20.970 -19.556  0.00  0.00    -0.274 OA
ATOM      2  N   UNL     1      36.413 -22.245 -15.620  0.00  0.00    -0.275 N 
ATOM      3  N   UNL     1      35.133 -21.895 -18.792  0.00  0.00    -0.268 N 
ATOM      4  N   UNL     1      36.577 -21.858 -16.895  0.00  0.00    -0.157 NA
ATOM      5  C   UNL     1      32.579 -23.682 -15.430  0.00  0.00    +0.069 C 
ATOM      6  C   UNL     1      33.157 -23.173 -16.600  0.00  0.00    +0.020 C 
ATOM      7  C   UNL     1      33.301 -23.728 -14.235  0.00  0.00    +0.018 C 
ATOM      8  C   UNL     1      34.481 -22.707 -16.549  0.00  0.00    +0.052 A 
ATOM      9  C   UNL     1      35.176 -22.763 -15.345  0.00  0.00    +0.077 A 
ATOM     10  C   UNL     1      34.620 -23.266 -14.167  0.00  0.00    +0.020 C 
ATOM     11  C   UNL     1      35.403 -22.144 -17.440  0.00  0.00    +0.155 A 
ATOM     12  C   UNL     1      35.997 -21.341 -19.733  0.00  0.00    +0.232 C 
ATOM     13  H   UNL     1      37.120 -22.161 -14.940  0.00  0.00    +0.189 HD
ATOM     14  H   UNL     1      34.234 -22.137 -19.111  0.00  0.00    +0.156 HD
ENDROOT
BRANCH   5  18
ATOM     15  S   UNL     1      29.919 -23.006 -15.404  0.00  0.00    +0.057 S 
ATOM     16  O   UNL     1      30.228 -21.949 -14.461  0.00  0.00    -0.154 OA
ATOM     17  O   UNL     1      29.465 -22.729 -16.750  0.00  0.00    -0.154 OA
ATOM     18  N   UNL     1      31.212 -24.170 -15.461  0.00  0.00    -0.194 N 
ATOM     19  C   UNL     1      28.770 -24.125 -14.619  0.00  0.00    +0.174 C 
ATOM     20  C   UNL     1      29.318 -25.516 -14.892  0.00  0.00    +0.051 C 
ATOM     21  C   UNL     1      30.833 -25.412 -14.729  0.00  0.00    +0.117 C 
ENDBRANCH   5  18
BRANCH  12  22
ATOM     22  C   UNL     1      35.319 -21.238 -21.097  0.00  0.00    +0.112 C 
BRANCH  22  26
ATOM     23  C   UNL     1      34.669 -17.192 -22.423  0.00  0.00    +0.048 C 
ATOM     24  C   UNL     1      34.918 -17.478 -21.067  0.00  0.00    +0.014 C 
ATOM     25  C   UNL     1      34.639 -18.265 -23.334  0.00  0.00    +0.014 C 
ATOM     26  C   UNL     1      35.094 -19.837 -21.557  0.00  0.00    -0.013 C 
ATOM     27  C   UNL     1      35.128 -18.788 -20.637  0.00  0.00    -0.003 C 
ATOM     28  C   UNL     1      34.850 -19.575 -22.904  0.00  0.00    -0.003 C 
BRANCH  23  29
ATOM     29  N   UNL     1      34.458 -15.875 -22.854  0.00  0.00    -0.307 N 
ATOM     30  C   UNL     1      34.143 -13.178 -23.831  0.00  0.00    +0.004 C 
ATOM     31  C   UNL     1      34.183 -13.483 -22.339  0.00  0.00    +0.021 C 
ATOM     32  C   UNL     1      33.581 -14.370 -24.596  0.00  0.00    +0.021 C 
ATOM     33  C   UNL     1      34.966 -14.762 -22.045  0.00  0.00    +0.091 C 
ATOM     34  C   UNL     1      34.370 -15.643 -24.303  0.00  0.00    +0.091 C 
ENDBRANCH  23  29
ENDBRANCH  22  26
ENDBRANCH  12  22
TORSDOF 4
ENDMDL
MODEL 7
REMARK VINA RESULT:     -10.0      8.998     16.139
REMARK  Name = 10138993
REMARK  4 active torsions:
REMARK  status: ('A' for Active; 'I' for Inactive)
REMARK    1  A    between atoms: C_5  and  N_18
REMARK    2  A    between atoms: C_12  and  C_22
REMARK    3  A    between atoms: C_22  and  C_26
REMARK    4  A    between atoms: C_23  and  N_29
REMARK                            x       y       z     vdW  Elec       q    Type
REMARK                         _______ _______ _______ _____ _____    ______ ____
ROOT
ATOM      1  O   UNL     1      32.355 -11.084 -21.886  0.00  0.00    -0.274 OA
ATOM      2  N   UNL     1      31.485  -7.164 -20.641  0.00  0.00    -0.275 N 
ATOM      3  N   UNL     1      32.591  -9.161 -23.213  0.00  0.00    -0.268 N 
ATOM      4  N   UNL     1      31.783  -8.388 -21.107  0.00  0.00    -0.157 NA
ATOM      5  C   UNL     1      32.261  -4.621 -23.760  0.00  0.00    +0.069 C 
ATOM      6  C   UNL     1      32.442  -6.008 -23.831  0.00  0.00    +0.020 C 
ATOM      7  C   UNL     1      31.791  -4.017 -22.591  0.00  0.00    +0.018 C 
ATOM      8  C   UNL     1      32.143  -6.783 -22.698  0.00  0.00    +0.052 A 
ATOM      9  C   UNL     1      31.679  -6.156 -21.547  0.00  0.00    +0.077 A 
ATOM     10  C   UNL     1      31.490  -4.775 -21.454  0.00  0.00    +0.020 C 
ATOM     11  C   UNL     1      32.178  -8.139 -22.347  0.00  0.00    +0.155 A 
ATOM     12  C   UNL     1      32.651 -10.523 -22.935  0.00  0.00    +0.232 C 
ATOM     13  H   UNL     1      31.156  -7.005 -19.727  0.00  0.00    +0.189 HD
ATOM     14  H   UNL     1      32.869  -8.885 -24.116  0.00  0.00    +0.156 HD
ENDROOT
BRANCH   5  18
ATOM     15  S   UNL     1      33.770  -4.365 -26.038  0.00  0.00    +0.057 S 
ATOM     16  O   UNL     1      34.889  -4.949 -25.325  0.00  0.00    -0.154 OA
ATOM     17  O   UNL     1      33.121  -5.043 -27.141  0.00  0.00    -0.154 OA
ATOM     18  N   UNL     1      32.563  -3.800 -24.919  0.00  0.00    -0.194 N 
ATOM     19  C   UNL     1      34.245  -2.724 -26.558  0.00  0.00    +0.174 C 
ATOM     20  C   UNL     1      33.077  -1.831 -26.177  0.00  0.00    +0.051 C 
ATOM     21  C   UNL     1      32.606  -2.314 -24.807  0.00  0.00    +0.117 C 
ENDBRANCH   5  18
BRANCH  12  22
ATOM     22  C   UNL     1      33.153 -11.303 -24.148  0.00  0.00    +0.112 C 
BRANCH  22  26
ATOM     23  C   UNL     1      34.243 -15.379 -23.280  0.00  0.00    +0.048 C 
ATOM     24  C   UNL     1      33.529 -15.054 -24.450  0.00  0.00    +0.014 C 
ATOM     25  C   UNL     1      34.590 -14.334 -22.402  0.00  0.00    +0.014 C 
ATOM     26  C   UNL     1      33.531 -12.714 -23.847  0.00  0.00    -0.013 C 
ATOM     27  C   UNL     1      33.176 -13.734 -24.731  0.00  0.00    -0.003 C 
ATOM     28  C   UNL     1      34.237 -13.014 -22.684  0.00  0.00    -0.003 C 
BRANCH  23  29
ATOM     29  N   UNL     1      34.598 -16.704 -22.998  0.00  0.00    -0.307 N 
ATOM     30  C   UNL     1      35.472 -19.394 -22.422  0.00  0.00    +0.004 C 
ATOM     31  C   UNL     1      34.489 -19.102 -23.549  0.00  0.00    +0.021 C 
ATOM     32  C   UNL     1      35.331 -18.352 -21.319  0.00  0.00    +0.021 C 
ATOM     33  C   UNL     1      34.656 -17.683 -24.090  0.00  0.00    +0.091 C 
ATOM     34  C   UNL     1      35.504 -16.936 -21.864  0.00  0.00    +0.091 C 
ENDBRANCH  23  29
ENDBRANCH  22  26
ENDBRANCH  12  22
TORSDOF 4
ENDMDL
MODEL 8
REMARK VINA RESULT:      -9.3      9.017     16.143
REMARK  Name = 10138993
REMARK  4 active torsions:
REMARK  status: ('A' for Active; 'I' for Inactive)
REMARK    1  A    between atoms: C_5  and  N_18
REMARK    2  A    between atoms: C_12  and  C_22
REMARK    3  A    between atoms: C_22  and  C_26
REMARK    4  A    between atoms: C_23  and  N_29
REMARK                            x       y       z     vdW  Elec       q    Type
REMARK                         _______ _______ _______ _____ _____    ______ ____
ROOT
ATOM      1  O   UNL     1      32.687 -11.516 -21.899  0.00  0.00    -0.274 OA
ATOM      2  N   UNL     1      31.913  -7.547 -20.752  0.00  0.00    -0.275 N 
ATOM      3  N   UNL     1      32.831  -9.647 -23.314  0.00  0.00    -0.268 N 
ATOM      4  N   UNL     1      32.176  -8.789 -21.189  0.00  0.00    -0.157 NA
ATOM      5  C   UNL     1      32.469  -5.131 -24.015  0.00  0.00    +0.069 C 
ATOM      6  C   UNL     1      32.643  -6.521 -24.044  0.00  0.00    +0.020 C 
ATOM      7  C   UNL     1      32.085  -4.480 -22.841  0.00  0.00    +0.018 C 
ATOM      8  C   UNL     1      32.424  -7.250 -22.863  0.00  0.00    +0.052 A 
ATOM      9  C   UNL     1      32.044  -6.576 -21.708  0.00  0.00    +0.077 A 
ATOM     10  C   UNL     1      31.864  -5.192 -21.657  0.00  0.00    +0.020 C 
ATOM     11  C   UNL     1      32.482  -8.591 -22.463  0.00  0.00    +0.155 A 
ATOM     12  C   UNL     1      32.908 -10.998 -22.988  0.00  0.00    +0.232 C 
ATOM     13  H   UNL     1      31.650  -7.351 -19.823  0.00  0.00    +0.189 HD
ATOM     14  H   UNL     1      33.044  -9.408 -24.245  0.00  0.00    +0.156 HD
ENDROOT
BRANCH   5  18
ATOM     15  S   UNL     1      31.585  -3.063 -25.588  0.00  0.00    +0.057 S 
ATOM     16  O   UNL     1      30.223  -3.457 -25.287  0.00  0.00    -0.154 OA
ATOM     17  O   UNL     1      32.145  -1.812 -25.123  0.00  0.00    -0.154 OA
ATOM     18  N   UNL     1      32.689  -4.358 -25.225  0.00  0.00    -0.194 N 
ATOM     19  C   UNL     1      31.816  -3.185 -27.355  0.00  0.00    +0.174 C 
ATOM     20  C   UNL     1      33.132  -3.922 -27.535  0.00  0.00    +0.051 C 
ATOM     21  C   UNL     1      33.147  -5.024 -26.478  0.00  0.00    +0.117 C 
ENDBRANCH   5  18
BRANCH  12  22
ATOM     22  C   UNL     1      33.322 -11.827 -24.202  0.00  0.00    +0.112 C 
BRANCH  22  26
ATOM     23  C   UNL     1      34.512 -15.855 -23.245  0.00  0.00    +0.048 C 
ATOM     24  C   UNL     1      34.827 -14.784 -22.386  0.00  0.00    +0.014 C 
ATOM     25  C   UNL     1      33.798 -15.573 -24.424  0.00  0.00    +0.014 C 
ATOM     26  C   UNL     1      33.734 -13.222 -23.871  0.00  0.00    -0.013 C 
ATOM     27  C   UNL     1      34.442 -13.479 -22.696  0.00  0.00    -0.003 C 
ATOM     28  C   UNL     1      33.413 -14.268 -24.734  0.00  0.00    -0.003 C 
BRANCH  23  29
ATOM     29  N   UNL     1      34.899 -17.165 -22.933  0.00  0.00    -0.307 N 
ATOM     30  C   UNL     1      35.553 -19.894 -22.259  0.00  0.00    +0.004 C 
ATOM     31  C   UNL     1      36.299 -18.721 -21.636  0.00  0.00    +0.021 C 
ATOM     32  C   UNL     1      35.048 -19.518 -23.648  0.00  0.00    +0.021 C 
ATOM     33  C   UNL     1      35.438 -17.459 -21.600  0.00  0.00    +0.091 C 
ATOM     34  C   UNL     1      34.185 -18.260 -23.605  0.00  0.00    +0.091 C 
ENDBRANCH  23  29
ENDBRANCH  22  26
ENDBRANCH  12  22
TORSDOF 4
ENDMDL
MODEL 9
REMARK VINA RESULT:      -9.0     12.748     18.575
REMARK  Name = 10138993
REMARK  4 active torsions:
REMARK  status: ('A' for Active; 'I' for Inactive)
REMARK    1  A    between atoms: C_5  and  N_18
REMARK    2  A    between atoms: C_12  and  C_22
REMARK    3  A    between atoms: C_22  and  C_26
REMARK    4  A    between atoms: C_23  and  N_29
REMARK                            x       y       z     vdW  Elec       q    Type
REMARK                         _______ _______ _______ _____ _____    ______ ____
ROOT
ATOM      1  O   UNL     1      30.611  -3.605 -21.498  0.00  0.00    -0.274 OA
ATOM      2  N   UNL     1      30.264  -2.621 -25.570  0.00  0.00    -0.275 N 
ATOM      3  N   UNL     1      31.965  -4.462 -23.216  0.00  0.00    -0.268 N 
ATOM      4  N   UNL     1      30.433  -2.982 -24.287  0.00  0.00    -0.157 NA
ATOM      5  C   UNL     1      33.124  -4.698 -27.645  0.00  0.00    +0.069 C 
ATOM      6  C   UNL     1      32.956  -4.791 -26.257  0.00  0.00    +0.020 C 
ATOM      7  C   UNL     1      32.301  -3.872 -28.414  0.00  0.00    +0.018 C 
ATOM      8  C   UNL     1      31.941  -4.032 -25.651  0.00  0.00    +0.052 A 
ATOM      9  C   UNL     1      31.138  -3.216 -26.440  0.00  0.00    +0.077 A 
ATOM     10  C   UNL     1      31.287  -3.109 -27.825  0.00  0.00    +0.020 C 
ATOM     11  C   UNL     1      31.448  -3.832 -24.355  0.00  0.00    +0.155 A 
ATOM     12  C   UNL     1      31.527  -4.313 -21.903  0.00  0.00    +0.232 C 
ATOM     13  H   UNL     1      29.573  -1.983 -25.859  0.00  0.00    +0.189 HD
ATOM     14  H   UNL     1      32.719  -5.077 -23.359  0.00  0.00    +0.156 HD
ENDROOT
BRANCH   5  18
ATOM     15  S   UNL     1      35.752  -4.772 -28.432  0.00  0.00    +0.057 S 
ATOM     16  O   UNL     1      35.656  -3.367 -28.777  0.00  0.00    -0.154 OA
ATOM     17  O   UNL     1      36.583  -5.244 -27.344  0.00  0.00    -0.154 OA
ATOM     18  N   UNL     1      34.166  -5.475 -28.292  0.00  0.00    -0.194 N 
ATOM     19  C   UNL     1      36.166  -5.676 -29.916  0.00  0.00    +0.174 C 
ATOM     20  C   UNL     1      35.209  -6.856 -29.944  0.00  0.00    +0.051 C 
ATOM     21  C   UNL     1      33.857  -6.315 -29.484  0.00  0.00    +0.117 C 
ENDBRANCH   5  18
BRANCH  12  22
ATOM     22  C   UNL     1      32.354  -5.177 -20.953  0.00  0.00    +0.112 C 
BRANCH  22  26
ATOM     23  C   UNL     1      32.670  -9.298 -22.166  0.00  0.00    +0.048 C 
ATOM     24  C   UNL     1      33.586  -8.335 -22.630  0.00  0.00    +0.014 C 
ATOM     25  C   UNL     1      31.648  -8.876 -21.294  0.00  0.00    +0.014 C 
ATOM     26  C   UNL     1      32.463  -6.604 -21.373  0.00  0.00    -0.013 C 
ATOM     27  C   UNL     1      33.484  -7.000 -22.238  0.00  0.00    -0.003 C 
ATOM     28  C   UNL     1      31.546  -7.542 -20.901  0.00  0.00    -0.003 C 
BRANCH  23  29
ATOM     29  N   UNL     1      32.773 -10.638 -22.560  0.00  0.00    -0.307 N 
ATOM     30  C   UNL     1      32.927 -13.362 -23.501  0.00  0.00    +0.004 C 
ATOM     31  C   UNL     1      32.272 -13.018 -22.169  0.00  0.00    +0.021 C 
ATOM     32  C   UNL     1      34.013 -12.346 -23.832  0.00  0.00    +0.021 C 
ATOM     33  C   UNL     1      31.729 -11.589 -22.160  0.00  0.00    +0.091 C 
ATOM     34  C   UNL     1      33.464 -10.921 -23.826  0.00  0.00    +0.091 C 
ENDBRANCH  23  29
ENDBRANCH  22  26
ENDBRANCH  12  22
TORSDOF 4
ENDMDL
