MODEL 1
REMARK VINA RESULT:     -11.9      0.000      0.000
REMARK  Name = 10297043
REMARK  6 active torsions:
REMARK  status: ('A' for Active; 'I' for Inactive)
REMARK    1  A    between atoms: N_2  and  C_30
REMARK    2  A    between atoms: C_5  and  C_16
REMARK    3  A    between atoms: C_13  and  C_19
REMARK    4  A    between atoms: C_19  and  N_20
REMARK    5  A    between atoms: N_21  and  C_28
REMARK    6  A    between atoms: C_30  and  C_32
REMARK                            x       y       z     vdW  Elec       q    Type
REMARK                         _______ _______ _______ _____ _____    ______ ____
ROOT
ATOM      1  N   UNL     1      32.424 -22.017 -18.096  0.00  0.00    -0.301 N 
ATOM      2  N   UNL     1      34.949 -24.120 -14.784  0.00  0.00    -0.319 N 
ATOM      3  N   UNL     1      31.159 -23.202 -16.420  0.00  0.00    -0.233 NA
ATOM      4  N   UNL     1      32.566 -24.262 -14.740  0.00  0.00    -0.233 NA
ATOM      5  C   UNL     1      33.748 -21.778 -18.360  0.00  0.00    +0.046 C 
ATOM      6  C   UNL     1      33.595 -23.037 -16.494  0.00  0.00    +0.131 C 
ATOM      7  C   UNL     1      34.498 -22.398 -17.382  0.00  0.00    +0.003 C 
ATOM      8  C   UNL     1      32.313 -22.782 -16.965  0.00  0.00    +0.117 C 
ATOM      9  C   UNL     1      33.694 -23.809 -15.337  0.00  0.00    +0.113 C 
ATOM     10  C   UNL     1      31.385 -23.936 -15.312  0.00  0.00    +0.252 C 
ATOM     11  H   UNL     1      31.670 -21.690 -18.637  0.00  0.00    +0.153 HD
ATOM     12  H   UNL     1      35.757 -23.781 -15.234  0.00  0.00    +0.148 HD
ENDROOT
BRANCH   5  16
ATOM     13  C   UNL     1      34.991 -19.495 -21.687  0.00  0.00    -0.043 C 
ATOM     14  C   UNL     1      35.943 -20.036 -20.830  0.00  0.00    -0.006 C 
ATOM     15  C   UNL     1      33.635 -19.697 -21.461  0.00  0.00    -0.006 C 
ATOM     16  C   UNL     1      34.172 -20.998 -19.497  0.00  0.00    +0.013 C 
ATOM     17  C   UNL     1      35.531 -20.791 -19.731  0.00  0.00    +0.001 C 
ATOM     18  C   UNL     1      33.224 -20.452 -20.362  0.00  0.00    +0.001 C 
BRANCH  13  19
ATOM     19  C   UNL     1      35.433 -18.683 -22.870  0.00  0.00    -0.050 C 
BRANCH  19  20
ATOM     20  N   UNL     1      34.729 -17.404 -22.949  0.00  0.00    +0.387 N 
ATOM     21  N   UNL     1      34.602 -14.562 -23.459  0.00  0.00    +0.384 N 
ATOM     22  C   UNL     1      35.304 -16.434 -22.007  0.00  0.00    -0.100 C 
ATOM     23  C   UNL     1      34.762 -16.873 -24.317  0.00  0.00    -0.100 C 
ATOM     24  C   UNL     1      34.570 -15.092 -22.090  0.00  0.00    -0.101 C 
ATOM     25  C   UNL     1      34.027 -15.531 -24.398  0.00  0.00    -0.101 C 
ATOM     26  H   UNL     1      33.755 -17.565 -22.689  0.00  0.00    -0.079 HD
ATOM     27  H   UNL     1      35.576 -14.402 -23.718  0.00  0.00    -0.080 HD
BRANCH  21  28
ATOM     28  C   UNL     1      33.900 -13.282 -23.537  0.00  0.00    -0.078 C 
ATOM     29  C   UNL     1      32.772 -13.212 -22.523  0.00  0.00    -0.025 C 
ENDBRANCH  21  28
ENDBRANCH  19  20
ENDBRANCH  13  19
ENDBRANCH   5  16
BRANCH   2  30
ATOM     30  C   UNL     1      35.107 -24.909 -13.600  0.00  0.00    +0.093 C 
ATOM     31  C   UNL     1      34.542 -24.141 -12.407  0.00  0.00    +0.026 C 
BRANCH  30  32
ATOM     32  C   UNL     1      36.558 -25.301 -13.420  0.00  0.00    -0.005 C 
ATOM     33  C   UNL     1      37.316 -25.613 -14.535  0.00  0.00    -0.003 C 
ATOM     34  C   UNL     1      37.095 -25.340 -12.145  0.00  0.00    -0.003 C 
ATOM     35  C   UNL     1      38.653 -25.975 -14.370  0.00  0.00    -0.000 C 
ATOM     36  C   UNL     1      38.432 -25.701 -11.980  0.00  0.00    -0.000 C 
ATOM     37  C   UNL     1      39.211 -26.019 -13.092  0.00  0.00    -0.000 C 
ENDBRANCH  30  32
ENDBRANCH   2  30
TORSDOF 6
ENDMDL
MODEL 2
REMARK VINA RESULT:     -11.7      2.481     11.993
REMARK  Name = 10297043
REMARK  6 active torsions:
REMARK  status: ('A' for Active; 'I' for Inactive)
REMARK    1  A    between atoms: N_2  and  C_30
REMARK    2  A    between atoms: C_5  and  C_16
REMARK    3  A    between atoms: C_13  and  C_19
REMARK    4  A    between atoms: C_19  and  N_20
REMARK    5  A    between atoms: N_21  and  C_28
REMARK    6  A    between atoms: C_30  and  C_32
REMARK                            x       y       z     vdW  Elec       q    Type
REMARK                         _______ _______ _______ _____ _____    ______ ____
ROOT
ATOM      1  N   UNL     1      34.586 -17.350 -23.720  0.00  0.00    -0.301 N 
ATOM      2  N   UNL     1      33.499 -12.954 -22.598  0.00  0.00    -0.319 N 
ATOM      3  N   UNL     1      33.792 -15.981 -25.538  0.00  0.00    -0.233 NA
ATOM      4  N   UNL     1      33.253 -13.708 -24.850  0.00  0.00    -0.233 NA
ATOM      5  C   UNL     1      34.818 -17.188 -22.379  0.00  0.00    +0.046 C 
ATOM      6  C   UNL     1      34.056 -15.240 -23.225  0.00  0.00    +0.131 C 
ATOM      7  C   UNL     1      34.499 -15.889 -22.044  0.00  0.00    +0.003 C 
ATOM      8  C   UNL     1      34.121 -16.176 -24.250  0.00  0.00    +0.117 C 
ATOM      9  C   UNL     1      33.600 -13.968 -23.568  0.00  0.00    +0.113 C 
ATOM     10  C   UNL     1      33.368 -14.716 -25.744  0.00  0.00    +0.252 C 
ATOM     11  H   UNL     1      34.730 -18.183 -24.225  0.00  0.00    +0.153 HD
ATOM     12  H   UNL     1      33.757 -13.164 -21.671  0.00  0.00    +0.148 HD
ENDROOT
BRANCH   5  16
ATOM     13  C   UNL     1      36.261 -20.334 -19.961  0.00  0.00    -0.043 C 
ATOM     14  C   UNL     1      34.907 -20.269 -20.268  0.00  0.00    -0.006 C 
ATOM     15  C   UNL     1      37.146 -19.375 -20.440  0.00  0.00    -0.006 C 
ATOM     16  C   UNL     1      35.312 -18.263 -21.553  0.00  0.00    +0.013 C 
ATOM     17  C   UNL     1      34.431 -19.229 -21.068  0.00  0.00    +0.001 C 
ATOM     18  C   UNL     1      36.669 -18.336 -21.239  0.00  0.00    +0.001 C 
BRANCH  13  19
ATOM     19  C   UNL     1      36.774 -21.452 -19.100  0.00  0.00    -0.050 C 
BRANCH  19  20
ATOM     20  N   UNL     1      35.941 -21.658 -17.917  0.00  0.00    +0.387 N 
ATOM     21  N   UNL     1      34.811 -23.290 -15.816  0.00  0.00    +0.384 N 
ATOM     22  C   UNL     1      34.872 -22.627 -18.195  0.00  0.00    -0.100 C 
ATOM     23  C   UNL     1      36.752 -22.102 -16.777  0.00  0.00    -0.100 C 
ATOM     24  C   UNL     1      33.999 -22.847 -16.956  0.00  0.00    -0.101 C 
ATOM     25  C   UNL     1      35.877 -22.321 -15.538  0.00  0.00    -0.101 C 
ATOM     26  H   UNL     1      35.510 -20.765 -17.677  0.00  0.00    -0.079 HD
ATOM     27  H   UNL     1      35.244 -24.183 -16.056  0.00  0.00    -0.080 HD
BRANCH  21  28
ATOM     28  C   UNL     1      33.978 -23.498 -14.633  0.00  0.00    -0.078 C 
ATOM     29  C   UNL     1      32.527 -23.148 -14.916  0.00  0.00    -0.025 C 
ENDBRANCH  21  28
ENDBRANCH  19  20
ENDBRANCH  13  19
ENDBRANCH   5  16
BRANCH   2  30
ATOM     30  C   UNL     1      33.038 -11.632 -22.896  0.00  0.00    +0.093 C 
ATOM     31  C   UNL     1      34.181 -10.830 -23.516  0.00  0.00    +0.026 C 
BRANCH  30  32
ATOM     32  C   UNL     1      32.464 -10.984 -21.655  0.00  0.00    -0.005 C 
ATOM     33  C   UNL     1      32.248  -9.617 -21.644  0.00  0.00    -0.003 C 
ATOM     34  C   UNL     1      32.167 -11.772 -20.556  0.00  0.00    -0.003 C 
ATOM     35  C   UNL     1      31.720  -9.020 -20.500  0.00  0.00    -0.000 C 
ATOM     36  C   UNL     1      31.638 -11.175 -19.413  0.00  0.00    -0.000 C 
ATOM     37  C   UNL     1      31.415  -9.799 -19.384  0.00  0.00    -0.000 C 
ENDBRANCH  30  32
ENDBRANCH   2  30
TORSDOF 6
ENDMDL
MODEL 3
REMARK VINA RESULT:     -11.1      4.348     13.992
REMARK  Name = 10297043
REMARK  6 active torsions:
REMARK  status: ('A' for Active; 'I' for Inactive)
REMARK    1  A    between atoms: N_2  and  C_30
REMARK    2  A    between atoms: C_5  and  C_16
REMARK    3  A    between atoms: C_13  and  C_19
REMARK    4  A    between atoms: C_19  and  N_20
REMARK    5  A    between atoms: N_21  and  C_28
REMARK    6  A    between atoms: C_30  and  C_32
REMARK                            x       y       z     vdW  Elec       q    Type
REMARK                         _______ _______ _______ _____ _____    ______ ____
ROOT
ATOM      1  N   UNL     1      32.658 -12.563 -20.256  0.00  0.00    -0.301 N 
ATOM      2  N   UNL     1      32.371  -9.002 -23.256  0.00  0.00    -0.319 N 
ATOM      3  N   UNL     1      31.461 -10.628 -19.459  0.00  0.00    -0.233 NA
ATOM      4  N   UNL     1      31.368  -8.828 -21.096  0.00  0.00    -0.233 NA
ATOM      5  C   UNL     1      33.312 -12.927 -21.405  0.00  0.00    +0.046 C 
ATOM      6  C   UNL     1      32.498 -10.838 -21.661  0.00  0.00    +0.131 C 
ATOM      7  C   UNL     1      33.229 -11.876 -22.294  0.00  0.00    +0.003 C 
ATOM      8  C   UNL     1      32.158 -11.296 -20.394  0.00  0.00    +0.117 C 
ATOM      9  C   UNL     1      32.074  -9.552 -21.996  0.00  0.00    +0.113 C 
ATOM     10  C   UNL     1      31.110  -9.402 -19.900  0.00  0.00    +0.252 C 
ATOM     11  H   UNL     1      32.563 -13.127 -19.454  0.00  0.00    +0.153 HD
ATOM     12  H   UNL     1      32.886  -9.545 -23.896  0.00  0.00    +0.148 HD
ENDROOT
BRANCH   5  16
ATOM     13  C   UNL     1      35.167 -16.696 -21.828  0.00  0.00    -0.043 C 
ATOM     14  C   UNL     1      34.838 -15.960 -22.961  0.00  0.00    -0.006 C 
ATOM     15  C   UNL     1      34.891 -16.205 -20.558  0.00  0.00    -0.006 C 
ATOM     16  C   UNL     1      33.946 -14.214 -21.549  0.00  0.00    +0.013 C 
ATOM     17  C   UNL     1      34.226 -14.714 -22.821  0.00  0.00    +0.001 C 
ATOM     18  C   UNL     1      34.278 -14.959 -20.418  0.00  0.00    +0.001 C 
BRANCH  13  19
ATOM     19  C   UNL     1      35.826 -18.036 -21.979  0.00  0.00    -0.050 C 
BRANCH  19  20
ATOM     20  N   UNL     1      35.557 -18.908 -20.838  0.00  0.00    +0.387 N 
ATOM     21  N   UNL     1      35.349 -21.498 -19.569  0.00  0.00    +0.384 N 
ATOM     22  C   UNL     1      34.433 -19.810 -21.125  0.00  0.00    -0.100 C 
ATOM     23  C   UNL     1      36.753 -19.679 -20.476  0.00  0.00    -0.100 C 
ATOM     24  C   UNL     1      34.152 -20.728 -19.931  0.00  0.00    -0.101 C 
ATOM     25  C   UNL     1      36.470 -20.596 -19.281  0.00  0.00    -0.101 C 
ATOM     26  H   UNL     1      35.302 -18.319 -20.045  0.00  0.00    -0.079 HD
ATOM     27  H   UNL     1      35.605 -22.086 -20.363  0.00  0.00    -0.080 HD
BRANCH  21  28
ATOM     28  C   UNL     1      35.080 -22.372 -18.429  0.00  0.00    -0.078 C 
ATOM     29  C   UNL     1      33.589 -22.478 -18.159  0.00  0.00    -0.025 C 
ENDBRANCH  21  28
ENDBRANCH  19  20
ENDBRANCH  13  19
ENDBRANCH   5  16
BRANCH   2  30
ATOM     30  C   UNL     1      31.961  -7.688 -23.650  0.00  0.00    +0.093 C 
ATOM     31  C   UNL     1      30.768  -7.799 -24.596  0.00  0.00    +0.026 C 
BRANCH  30  32
ATOM     32  C   UNL     1      33.127  -6.932 -24.250  0.00  0.00    -0.005 C 
ATOM     33  C   UNL     1      32.947  -6.245 -25.438  0.00  0.00    -0.003 C 
ATOM     34  C   UNL     1      34.349  -6.945 -23.600  0.00  0.00    -0.003 C 
ATOM     35  C   UNL     1      34.021  -5.549 -25.992  0.00  0.00    -0.000 C 
ATOM     36  C   UNL     1      35.423  -6.249 -24.154  0.00  0.00    -0.000 C 
ATOM     37  C   UNL     1      35.259  -5.552 -25.350  0.00  0.00    -0.000 C 
ENDBRANCH  30  32
ENDBRANCH   2  30
TORSDOF 6
ENDMDL
MODEL 4
REMARK VINA RESULT:     -10.9      4.146     13.788
REMARK  Name = 10297043
REMARK  6 active torsions:
REMARK  status: ('A' for Active; 'I' for Inactive)
REMARK    1  A    between atoms: N_2  and  C_30
REMARK    2  A    between atoms: C_5  and  C_16
REMARK    3  A    between atoms: C_13  and  C_19
REMARK    4  A    between atoms: C_19  and  N_20
REMARK    5  A    between atoms: N_21  and  C_28
REMARK    6  A    between atoms: C_30  and  C_32
REMARK                            x       y       z     vdW  Elec       q    Type
REMARK                         _______ _______ _______ _____ _____    ______ ____
ROOT
ATOM      1  N   UNL     1      32.139 -13.058 -22.015  0.00  0.00    -0.301 N 
ATOM      2  N   UNL     1      33.874  -8.988 -23.498  0.00  0.00    -0.319 N 
ATOM      3  N   UNL     1      30.578 -11.221 -22.069  0.00  0.00    -0.233 NA
ATOM      4  N   UNL     1      31.580  -9.146 -22.856  0.00  0.00    -0.233 NA
ATOM      5  C   UNL     1      33.463 -13.249 -22.315  0.00  0.00    +0.046 C 
ATOM      6  C   UNL     1      32.930 -11.094 -22.719  0.00  0.00    +0.131 C 
ATOM      7  C   UNL     1      33.979 -12.047 -22.754  0.00  0.00    +0.003 C 
ATOM      8  C   UNL     1      31.798 -11.753 -22.255  0.00  0.00    +0.117 C 
ATOM      9  C   UNL     1      32.784  -9.740 -23.022  0.00  0.00    +0.113 C 
ATOM     10  C   UNL     1      30.565  -9.912 -22.395  0.00  0.00    +0.252 C 
ATOM     11  H   UNL     1      31.527 -13.752 -21.680  0.00  0.00    +0.153 HD
ATOM     12  H   UNL     1      34.742  -9.440 -23.612  0.00  0.00    +0.148 HD
ENDROOT
BRANCH   5  16
ATOM     13  C   UNL     1      35.345 -16.999 -21.851  0.00  0.00    -0.043 C 
ATOM     14  C   UNL     1      35.010 -16.254 -20.726  0.00  0.00    -0.006 C 
ATOM     15  C   UNL     1      35.068 -16.523 -23.127  0.00  0.00    -0.006 C 
ATOM     16  C   UNL     1      34.106 -14.530 -22.157  0.00  0.00    +0.013 C 
ATOM     17  C   UNL     1      34.387 -15.015 -20.880  0.00  0.00    +0.001 C 
ATOM     18  C   UNL     1      34.446 -15.284 -23.280  0.00  0.00    +0.001 C 
BRANCH  13  19
ATOM     19  C   UNL     1      36.016 -18.333 -21.687  0.00  0.00    -0.050 C 
BRANCH  19  20
ATOM     20  N   UNL     1      35.393 -19.130 -20.632  0.00  0.00    +0.387 N 
ATOM     21  N   UNL     1      34.423 -21.614 -19.515  0.00  0.00    +0.384 N 
ATOM     22  C   UNL     1      34.150 -19.748 -21.112  0.00  0.00    -0.100 C 
ATOM     23  C   UNL     1      36.319 -20.157 -20.138  0.00  0.00    -0.100 C 
ATOM     24  C   UNL     1      33.497 -20.589 -20.009  0.00  0.00    -0.101 C 
ATOM     25  C   UNL     1      35.664 -20.995 -19.035  0.00  0.00    -0.101 C 
ATOM     26  H   UNL     1      35.163 -18.505 -19.859  0.00  0.00    -0.079 HD
ATOM     27  H   UNL     1      34.654 -22.239 -20.289  0.00  0.00    -0.080 HD
BRANCH  21  28
ATOM     28  C   UNL     1      33.800 -22.414 -18.462  0.00  0.00    -0.078 C 
ATOM     29  C   UNL     1      34.714 -22.540 -17.255  0.00  0.00    -0.025 C 
ENDBRANCH  21  28
ENDBRANCH  19  20
ENDBRANCH  13  19
ENDBRANCH   5  16
BRANCH   2  30
ATOM     30  C   UNL     1      33.780  -7.597 -23.824  0.00  0.00    +0.093 C 
ATOM     31  C   UNL     1      35.142  -7.102 -24.304  0.00  0.00    +0.026 C 
BRANCH  30  32
ATOM     32  C   UNL     1      33.246  -6.817 -22.643  0.00  0.00    -0.005 C 
ATOM     33  C   UNL     1      33.687  -7.133 -21.369  0.00  0.00    -0.003 C 
ATOM     34  C   UNL     1      32.328  -5.804 -22.860  0.00  0.00    -0.003 C 
ATOM     35  C   UNL     1      33.196  -6.414 -20.280  0.00  0.00    -0.000 C 
ATOM     36  C   UNL     1      31.837  -5.085 -21.771  0.00  0.00    -0.000 C 
ATOM     37  C   UNL     1      32.270  -5.390 -20.481  0.00  0.00    -0.000 C 
ENDBRANCH  30  32
ENDBRANCH   2  30
TORSDOF 6
ENDMDL
MODEL 5
REMARK VINA RESULT:     -10.8      1.384      2.333
REMARK  Name = 10297043
REMARK  6 active torsions:
REMARK  status: ('A' for Active; 'I' for Inactive)
REMARK    1  A    between atoms: N_2  and  C_30
REMARK    2  A    between atoms: C_5  and  C_16
REMARK    3  A    between atoms: C_13  and  C_19
REMARK    4  A    between atoms: C_19  and  N_20
REMARK    5  A    between atoms: N_21  and  C_28
REMARK    6  A    between atoms: C_30  and  C_32
REMARK                            x       y       z     vdW  Elec       q    Type
REMARK                         _______ _______ _______ _____ _____    ______ ____
ROOT
ATOM      1  N   UNL     1      34.041 -22.209 -17.537  0.00  0.00    -0.301 N 
ATOM      2  N   UNL     1      37.366 -24.190 -14.932  0.00  0.00    -0.319 N 
ATOM      3  N   UNL     1      33.255 -23.594 -15.727  0.00  0.00    -0.233 NA
ATOM      4  N   UNL     1      35.064 -24.579 -14.430  0.00  0.00    -0.233 NA
ATOM      5  C   UNL     1      35.256 -21.822 -18.040  0.00  0.00    +0.046 C 
ATOM      6  C   UNL     1      35.600 -23.175 -16.267  0.00  0.00    +0.131 C 
ATOM      7  C   UNL     1      36.242 -22.406 -17.272  0.00  0.00    +0.003 C 
ATOM      8  C   UNL     1      34.232 -23.032 -16.459  0.00  0.00    +0.117 C 
ATOM      9  C   UNL     1      36.001 -23.985 -15.205  0.00  0.00    +0.113 C 
ATOM     10  C   UNL     1      33.767 -24.351 -14.735  0.00  0.00    +0.252 C 
ATOM     11  H   UNL     1      33.165 -21.937 -17.896  0.00  0.00    +0.153 HD
ATOM     12  H   UNL     1      38.031 -23.749 -15.508  0.00  0.00    +0.148 HD
ENDROOT
BRANCH   5  16
ATOM     13  C   UNL     1      35.582 -19.275 -21.391  0.00  0.00    -0.043 C 
ATOM     14  C   UNL     1      34.345 -19.810 -21.052  0.00  0.00    -0.006 C 
ATOM     15  C   UNL     1      36.713 -19.570 -20.640  0.00  0.00    -0.006 C 
ATOM     16  C   UNL     1      35.368 -20.952 -19.185  0.00  0.00    +0.013 C 
ATOM     17  C   UNL     1      34.238 -20.651 -19.944  0.00  0.00    +0.001 C 
ATOM     18  C   UNL     1      36.606 -20.411 -19.532  0.00  0.00    +0.001 C 
BRANCH  13  19
ATOM     19  C   UNL     1      35.698 -18.370 -22.584  0.00  0.00    -0.050 C 
BRANCH  19  20
ATOM     20  N   UNL     1      34.887 -17.164 -22.435  0.00  0.00    +0.387 N 
ATOM     21  N   UNL     1      34.530 -14.297 -22.336  0.00  0.00    +0.384 N 
ATOM     22  C   UNL     1      35.327 -16.380 -21.273  0.00  0.00    -0.100 C 
ATOM     23  C   UNL     1      34.938 -16.347 -23.653  0.00  0.00    -0.100 C 
ATOM     24  C   UNL     1      34.480 -15.113 -21.117  0.00  0.00    -0.101 C 
ATOM     25  C   UNL     1      34.089 -15.080 -23.496  0.00  0.00    -0.101 C 
ATOM     26  H   UNL     1      33.920 -17.452 -22.280  0.00  0.00    -0.079 HD
ATOM     27  H   UNL     1      35.497 -14.010 -22.491  0.00  0.00    -0.080 HD
BRANCH  21  28
ATOM     28  C   UNL     1      33.720 -13.089 -22.186  0.00  0.00    -0.078 C 
ATOM     29  C   UNL     1      32.430 -13.382 -21.440  0.00  0.00    -0.025 C 
ENDBRANCH  21  28
ENDBRANCH  19  20
ENDBRANCH  13  19
ENDBRANCH   5  16
BRANCH   2  30
ATOM     30  C   UNL     1      37.832 -25.012 -13.856  0.00  0.00    +0.093 C 
ATOM     31  C   UNL     1      37.482 -26.469 -14.150  0.00  0.00    +0.026 C 
BRANCH  30  32
ATOM     32  C   UNL     1      37.271 -24.520 -12.540  0.00  0.00    -0.005 C 
ATOM     33  C   UNL     1      36.483 -25.370 -11.782  0.00  0.00    -0.003 C 
ATOM     34  C   UNL     1      37.558 -23.233 -12.120  0.00  0.00    -0.003 C 
ATOM     35  C   UNL     1      35.965 -24.917 -10.569  0.00  0.00    -0.000 C 
ATOM     36  C   UNL     1      37.041 -22.781 -10.907  0.00  0.00    -0.000 C 
ATOM     37  C   UNL     1      36.244 -23.622 -10.132  0.00  0.00    -0.000 C 
ENDBRANCH  30  32
ENDBRANCH   2  30
TORSDOF 6
ENDMDL
MODEL 6
REMARK VINA RESULT:     -10.7      5.046      9.800
REMARK  Name = 10297043
REMARK  6 active torsions:
REMARK  status: ('A' for Active; 'I' for Inactive)
REMARK    1  A    between atoms: N_2  and  C_30
REMARK    2  A    between atoms: C_5  and  C_16
REMARK    3  A    between atoms: C_13  and  C_19
REMARK    4  A    between atoms: C_19  and  N_20
REMARK    5  A    between atoms: N_21  and  C_28
REMARK    6  A    between atoms: C_30  and  C_32
REMARK                            x       y       z     vdW  Elec       q    Type
REMARK                         _______ _______ _______ _____ _____    ______ ____
ROOT
ATOM      1  N   UNL     1      33.511 -14.526 -23.951  0.00  0.00    -0.301 N 
ATOM      2  N   UNL     1      35.749 -17.447 -21.083  0.00  0.00    -0.319 N 
ATOM      3  N   UNL     1      34.155 -16.640 -24.916  0.00  0.00    -0.233 NA
ATOM      4  N   UNL     1      35.314 -18.089 -23.341  0.00  0.00    -0.233 NA
ATOM      5  C   UNL     1      33.626 -13.912 -22.731  0.00  0.00    +0.046 C 
ATOM      6  C   UNL     1      34.584 -15.952 -22.611  0.00  0.00    +0.131 C 
ATOM      7  C   UNL     1      34.287 -14.773 -21.880  0.00  0.00    +0.003 C 
ATOM      8  C   UNL     1      34.089 -15.767 -23.897  0.00  0.00    +0.117 C 
ATOM      9  C   UNL     1      35.216 -17.168 -22.354  0.00  0.00    +0.113 C 
ATOM     10  C   UNL     1      34.786 -17.772 -24.544  0.00  0.00    +0.252 C 
ATOM     11  H   UNL     1      33.080 -14.135 -24.745  0.00  0.00    +0.153 HD
ATOM     12  H   UNL     1      35.667 -16.763 -20.379  0.00  0.00    +0.148 HD
ENDROOT
BRANCH   5  16
ATOM     13  C   UNL     1      32.113 -10.034 -22.025  0.00  0.00    -0.043 C 
ATOM     14  C   UNL     1      31.808 -11.063 -21.141  0.00  0.00    -0.006 C 
ATOM     15  C   UNL     1      32.909 -10.268 -23.139  0.00  0.00    -0.006 C 
ATOM     16  C   UNL     1      33.110 -12.587 -22.490  0.00  0.00    +0.013 C 
ATOM     17  C   UNL     1      32.310 -12.344 -21.374  0.00  0.00    +0.001 C 
ATOM     18  C   UNL     1      33.410 -11.549 -23.372  0.00  0.00    +0.001 C 
BRANCH  13  19
ATOM     19  C   UNL     1      31.573  -8.655 -21.774  0.00  0.00    -0.050 C 
BRANCH  19  20
ATOM     20  N   UNL     1      31.966  -7.717 -22.823  0.00  0.00    +0.387 N 
ATOM     21  N   UNL     1      32.328  -5.055 -23.892  0.00  0.00    +0.384 N 
ATOM     22  C   UNL     1      30.820  -6.904 -23.251  0.00  0.00    -0.100 C 
ATOM     23  C   UNL     1      33.064  -6.855 -22.367  0.00  0.00    -0.100 C 
ATOM     24  C   UNL     1      31.230  -5.916 -24.347  0.00  0.00    -0.101 C 
ATOM     25  C   UNL     1      33.473  -5.867 -23.466  0.00  0.00    -0.101 C 
ATOM     26  H   UNL     1      32.293  -8.258 -23.624  0.00  0.00    -0.079 HD
ATOM     27  H   UNL     1      32.002  -4.515 -23.090  0.00  0.00    -0.080 HD
BRANCH  21  28
ATOM     28  C   UNL     1      32.720  -4.114 -24.939  0.00  0.00    -0.078 C 
ATOM     29  C   UNL     1      33.956  -4.598 -25.678  0.00  0.00    -0.025 C 
ENDBRANCH  21  28
ENDBRANCH  19  20
ENDBRANCH  13  19
ENDBRANCH   5  16
BRANCH   2  30
ATOM     30  C   UNL     1      36.407 -18.678 -20.765  0.00  0.00    +0.093 C 
ATOM     31  C   UNL     1      37.207 -19.146 -21.978  0.00  0.00    +0.026 C 
BRANCH  30  32
ATOM     32  C   UNL     1      35.402 -19.701 -20.284  0.00  0.00    -0.005 C 
ATOM     33  C   UNL     1      35.851 -20.822 -19.605  0.00  0.00    -0.003 C 
ATOM     34  C   UNL     1      34.056 -19.497 -20.534  0.00  0.00    -0.003 C 
ATOM     35  C   UNL     1      34.925 -21.766 -19.163  0.00  0.00    -0.000 C 
ATOM     36  C   UNL     1      33.130 -20.441 -20.091  0.00  0.00    -0.000 C 
ATOM     37  C   UNL     1      33.564 -21.576 -19.406  0.00  0.00    -0.000 C 
ENDBRANCH  30  32
ENDBRANCH   2  30
TORSDOF 6
ENDMDL
MODEL 7
REMARK VINA RESULT:     -10.6      1.863      4.202
REMARK  Name = 10297043
REMARK  6 active torsions:
REMARK  status: ('A' for Active; 'I' for Inactive)
REMARK    1  A    between atoms: N_2  and  C_30
REMARK    2  A    between atoms: C_5  and  C_16
REMARK    3  A    between atoms: C_13  and  C_19
REMARK    4  A    between atoms: C_19  and  N_20
REMARK    5  A    between atoms: N_21  and  C_28
REMARK    6  A    between atoms: C_30  and  C_32
REMARK                            x       y       z     vdW  Elec       q    Type
REMARK                         _______ _______ _______ _____ _____    ______ ____
ROOT
ATOM      1  N   UNL     1      37.003 -21.484 -17.854  0.00  0.00    -0.301 N 
ATOM      2  N   UNL     1      33.549 -23.251 -15.264  0.00  0.00    -0.319 N 
ATOM      3  N   UNL     1      37.693 -22.661 -15.867  0.00  0.00    -0.233 NA
ATOM      4  N   UNL     1      35.819 -23.543 -14.587  0.00  0.00    -0.233 NA
ATOM      5  C   UNL     1      35.816 -21.173 -18.467  0.00  0.00    +0.046 C 
ATOM      6  C   UNL     1      35.380 -22.345 -16.588  0.00  0.00    +0.131 C 
ATOM      7  C   UNL     1      34.793 -21.694 -17.704  0.00  0.00    +0.003 C 
ATOM      8  C   UNL     1      36.756 -22.195 -16.710  0.00  0.00    +0.117 C 
ATOM      9  C   UNL     1      34.925 -23.049 -15.474  0.00  0.00    +0.113 C 
ATOM     10  C   UNL     1      37.130 -23.321 -14.834  0.00  0.00    +0.252 C 
ATOM     11  H   UNL     1      37.895 -21.233 -18.186  0.00  0.00    +0.153 HD
ATOM     12  H   UNL     1      32.915 -22.883 -15.921  0.00  0.00    +0.148 HD
ENDROOT
BRANCH   5  16
ATOM     13  C   UNL     1      35.665 -18.971 -22.066  0.00  0.00    -0.043 C 
ATOM     14  C   UNL     1      36.843 -19.003 -21.328  0.00  0.00    -0.006 C 
ATOM     15  C   UNL     1      34.536 -19.656 -21.631  0.00  0.00    -0.006 C 
ATOM     16  C   UNL     1      35.764 -20.421 -19.696  0.00  0.00    +0.013 C 
ATOM     17  C   UNL     1      36.892 -19.732 -20.139  0.00  0.00    +0.001 C 
ATOM     18  C   UNL     1      34.586 -20.384 -20.442  0.00  0.00    +0.001 C 
BRANCH  13  19
ATOM     19  C   UNL     1      35.611 -18.187 -23.345  0.00  0.00    -0.050 C 
BRANCH  19  20
ATOM     20  N   UNL     1      34.737 -17.021 -23.235  0.00  0.00    +0.387 N 
ATOM     21  N   UNL     1      34.188 -14.188 -23.419  0.00  0.00    +0.384 N 
ATOM     22  C   UNL     1      35.252 -16.077 -22.233  0.00  0.00    -0.100 C 
ATOM     23  C   UNL     1      34.586 -16.357 -24.535  0.00  0.00    -0.100 C 
ATOM     24  C   UNL     1      34.339 -14.852 -22.118  0.00  0.00    -0.101 C 
ATOM     25  C   UNL     1      33.672 -15.131 -24.418  0.00  0.00    -0.101 C 
ATOM     26  H   UNL     1      33.818 -17.344 -22.929  0.00  0.00    -0.079 HD
ATOM     27  H   UNL     1      35.107 -13.867 -23.725  0.00  0.00    -0.080 HD
BRANCH  21  28
ATOM     28  C   UNL     1      33.316 -13.021 -23.309  0.00  0.00    -0.078 C 
ATOM     29  C   UNL     1      33.996 -11.774 -23.848  0.00  0.00    -0.025 C 
ENDBRANCH  21  28
ENDBRANCH  19  20
ENDBRANCH  13  19
ENDBRANCH   5  16
BRANCH   2  30
ATOM     30  C   UNL     1      33.027 -23.966 -14.138  0.00  0.00    +0.093 C 
ATOM     31  C   UNL     1      33.817 -25.260 -13.957  0.00  0.00    +0.026 C 
BRANCH  30  32
ATOM     32  C   UNL     1      31.541 -24.195 -14.305  0.00  0.00    -0.005 C 
ATOM     33  C   UNL     1      30.994 -25.402 -13.903  0.00  0.00    -0.003 C 
ATOM     34  C   UNL     1      30.759 -23.194 -14.856  0.00  0.00    -0.003 C 
ATOM     35  C   UNL     1      29.625 -25.614 -14.057  0.00  0.00    -0.000 C 
ATOM     36  C   UNL     1      29.390 -23.406 -15.010  0.00  0.00    -0.000 C 
ATOM     37  C   UNL     1      28.822 -24.616 -14.611  0.00  0.00    -0.000 C 
ENDBRANCH  30  32
ENDBRANCH   2  30
TORSDOF 6
ENDMDL
MODEL 8
REMARK VINA RESULT:      -9.6      2.236     11.705
REMARK  Name = 10297043
REMARK  6 active torsions:
REMARK  status: ('A' for Active; 'I' for Inactive)
REMARK    1  A    between atoms: N_2  and  C_30
REMARK    2  A    between atoms: C_5  and  C_16
REMARK    3  A    between atoms: C_13  and  C_19
REMARK    4  A    between atoms: C_19  and  N_20
REMARK    5  A    between atoms: N_21  and  C_28
REMARK    6  A    between atoms: C_30  and  C_32
REMARK                            x       y       z     vdW  Elec       q    Type
REMARK                         _______ _______ _______ _____ _____    ______ ____
ROOT
ATOM      1  N   UNL     1      35.152 -18.424 -22.980  0.00  0.00    -0.301 N 
ATOM      2  N   UNL     1      33.706 -14.044 -22.277  0.00  0.00    -0.319 N 
ATOM      3  N   UNL     1      34.610 -17.177 -24.971  0.00  0.00    -0.233 NA
ATOM      4  N   UNL     1      33.867 -14.907 -24.497  0.00  0.00    -0.233 NA
ATOM      5  C   UNL     1      35.154 -18.191 -21.628  0.00  0.00    +0.046 C 
ATOM      6  C   UNL     1      34.457 -16.324 -22.686  0.00  0.00    +0.131 C 
ATOM      7  C   UNL     1      34.727 -16.897 -21.417  0.00  0.00    +0.003 C 
ATOM      8  C   UNL     1      34.730 -17.299 -23.638  0.00  0.00    +0.117 C 
ATOM      9  C   UNL     1      34.009 -15.093 -23.164  0.00  0.00    +0.113 C 
ATOM     10  C   UNL     1      34.171 -15.946 -25.307  0.00  0.00    +0.252 C 
ATOM     11  H   UNL     1      35.414 -19.269 -23.410  0.00  0.00    +0.153 HD
ATOM     12  H   UNL     1      33.816 -14.200 -21.311  0.00  0.00    +0.148 HD
ENDROOT
BRANCH   5  16
ATOM     13  C   UNL     1      36.315 -21.150 -18.849  0.00  0.00    -0.043 C 
ATOM     14  C   UNL     1      35.031 -21.173 -19.383  0.00  0.00    -0.006 C 
ATOM     15  C   UNL     1      37.220 -20.164 -19.221  0.00  0.00    -0.006 C 
ATOM     16  C   UNL     1      35.551 -19.202 -20.679  0.00  0.00    +0.013 C 
ATOM     17  C   UNL     1      34.648 -20.196 -20.301  0.00  0.00    +0.001 C 
ATOM     18  C   UNL     1      36.837 -19.186 -20.139  0.00  0.00    +0.001 C 
BRANCH  13  19
ATOM     19  C   UNL     1      36.727 -22.202 -17.860  0.00  0.00    -0.050 C 
BRANCH  19  20
ATOM     20  N   UNL     1      35.857 -22.218 -16.686  0.00  0.00    +0.387 N 
ATOM     21  N   UNL     1      34.465 -23.552 -14.532  0.00  0.00    +0.384 N 
ATOM     22  C   UNL     1      34.656 -23.025 -16.939  0.00  0.00    -0.100 C 
ATOM     23  C   UNL     1      36.577 -22.724 -15.511  0.00  0.00    -0.100 C 
ATOM     24  C   UNL     1      33.744 -23.047 -15.707  0.00  0.00    -0.101 C 
ATOM     25  C   UNL     1      35.664 -22.745 -14.280  0.00  0.00    -0.101 C 
ATOM     26  H   UNL     1      35.566 -21.259 -16.497  0.00  0.00    -0.079 HD
ATOM     27  H   UNL     1      34.757 -24.511 -14.722  0.00  0.00    -0.080 HD
BRANCH  21  28
ATOM     28  C   UNL     1      33.595 -23.571 -13.358  0.00  0.00    -0.078 C 
ATOM     29  C   UNL     1      32.507 -24.623 -13.497  0.00  0.00    -0.025 C 
ENDBRANCH  21  28
ENDBRANCH  19  20
ENDBRANCH  13  19
ENDBRANCH   5  16
BRANCH   2  30
ATOM     30  C   UNL     1      33.243 -12.761 -22.713  0.00  0.00    +0.093 C 
ATOM     31  C   UNL     1      34.419 -11.972 -23.284  0.00  0.00    +0.026 C 
BRANCH  30  32
ATOM     32  C   UNL     1      32.540 -12.044 -21.581  0.00  0.00    -0.005 C 
ATOM     33  C   UNL     1      31.698 -10.985 -21.872  0.00  0.00    -0.003 C 
ATOM     34  C   UNL     1      32.755 -12.461 -20.279  0.00  0.00    -0.003 C 
ATOM     35  C   UNL     1      31.050 -10.323 -20.829  0.00  0.00    -0.000 C 
ATOM     36  C   UNL     1      32.107 -11.800 -19.236  0.00  0.00    -0.000 C 
ATOM     37  C   UNL     1      31.255 -10.731 -19.511  0.00  0.00    -0.000 C 
ENDBRANCH  30  32
ENDBRANCH   2  30
TORSDOF 6
ENDMDL
MODEL 9
REMARK VINA RESULT:      -9.4      1.753      2.832
REMARK  Name = 10297043
REMARK  6 active torsions:
REMARK  status: ('A' for Active; 'I' for Inactive)
REMARK    1  A    between atoms: N_2  and  C_30
REMARK    2  A    between atoms: C_5  and  C_16
REMARK    3  A    between atoms: C_13  and  C_19
REMARK    4  A    between atoms: C_19  and  N_20
REMARK    5  A    between atoms: N_21  and  C_28
REMARK    6  A    between atoms: C_30  and  C_32
REMARK                            x       y       z     vdW  Elec       q    Type
REMARK                         _______ _______ _______ _____ _____    ______ ____
ROOT
ATOM      1  N   UNL     1      37.127 -20.649 -17.945  0.00  0.00    -0.301 N 
ATOM      2  N   UNL     1      34.416 -23.770 -15.782  0.00  0.00    -0.319 N 
ATOM      3  N   UNL     1      37.985 -21.502 -15.860  0.00  0.00    -0.233 NA
ATOM      4  N   UNL     1      36.498 -23.121 -14.812  0.00  0.00    -0.233 NA
ATOM      5  C   UNL     1      36.005 -20.836 -18.712  0.00  0.00    +0.046 C 
ATOM      6  C   UNL     1      35.859 -22.145 -16.879  0.00  0.00    +0.131 C 
ATOM      7  C   UNL     1      35.202 -21.758 -18.075  0.00  0.00    +0.003 C 
ATOM      8  C   UNL     1      37.054 -21.437 -16.827  0.00  0.00    +0.117 C 
ATOM      9  C   UNL     1      35.599 -23.011 -15.818  0.00  0.00    +0.113 C 
ATOM     10  C   UNL     1      37.620 -22.370 -14.894  0.00  0.00    +0.252 C 
ATOM     11  H   UNL     1      37.870 -20.042 -18.165  0.00  0.00    +0.153 HD
ATOM     12  H   UNL     1      33.774 -23.674 -16.524  0.00  0.00    +0.148 HD
ENDROOT
BRANCH   5  16
ATOM     13  C   UNL     1      35.411 -18.776 -22.349  0.00  0.00    -0.043 C 
ATOM     14  C   UNL     1      34.376 -19.531 -21.809  0.00  0.00    -0.006 C 
ATOM     15  C   UNL     1      36.639 -18.693 -21.705  0.00  0.00    -0.006 C 
ATOM     16  C   UNL     1      35.803 -20.132 -19.954  0.00  0.00    +0.013 C 
ATOM     17  C   UNL     1      34.573 -20.211 -20.607  0.00  0.00    +0.001 C 
ATOM     18  C   UNL     1      36.836 -19.373 -20.503  0.00  0.00    +0.001 C 
BRANCH  13  19
ATOM     19  C   UNL     1      35.200 -18.045 -23.643  0.00  0.00    -0.050 C 
BRANCH  19  20
ATOM     20  N   UNL     1      34.440 -16.811 -23.455  0.00  0.00    +0.387 N 
ATOM     21  N   UNL     1      34.127 -13.938 -23.559  0.00  0.00    +0.384 N 
ATOM     22  C   UNL     1      35.101 -15.936 -22.478  0.00  0.00    -0.100 C 
ATOM     23  C   UNL     1      34.260 -16.109 -24.732  0.00  0.00    -0.100 C 
ATOM     24  C   UNL     1      34.308 -14.639 -22.282  0.00  0.00    -0.101 C 
ATOM     25  C   UNL     1      33.466 -14.813 -24.534  0.00  0.00    -0.101 C 
ATOM     26  H   UNL     1      33.519 -17.060 -23.092  0.00  0.00    -0.079 HD
ATOM     27  H   UNL     1      35.048 -13.690 -23.922  0.00  0.00    -0.080 HD
BRANCH  21  28
ATOM     28  C   UNL     1      33.369 -12.703 -23.371  0.00  0.00    -0.078 C 
ATOM     29  C   UNL     1      34.129 -11.505 -23.914  0.00  0.00    -0.025 C 
ENDBRANCH  21  28
ENDBRANCH  19  20
ENDBRANCH  13  19
ENDBRANCH   5  16
BRANCH   2  30
ATOM     30  C   UNL     1      34.098 -24.673 -14.718  0.00  0.00    +0.093 C 
ATOM     31  C   UNL     1      33.328 -23.920 -13.635  0.00  0.00    +0.026 C 
BRANCH  30  32
ATOM     32  C   UNL     1      35.356 -25.335 -14.199  0.00  0.00    -0.005 C 
ATOM     33  C   UNL     1      35.782 -25.062 -12.911  0.00  0.00    -0.003 C 
ATOM     34  C   UNL     1      36.055 -26.200 -15.024  0.00  0.00    -0.003 C 
ATOM     35  C   UNL     1      36.941 -25.671 -12.433  0.00  0.00    -0.000 C 
ATOM     36  C   UNL     1      37.214 -26.810 -14.546  0.00  0.00    -0.000 C 
ATOM     37  C   UNL     1      37.658 -26.545 -13.251  0.00  0.00    -0.000 C 
ENDBRANCH  30  32
ENDBRANCH   2  30
TORSDOF 6
ENDMDL
