MODEL 1
REMARK VINA RESULT:     -11.7      0.000      0.000
REMARK  Name = 135565465
REMARK  7 active torsions:
REMARK  status: ('A' for Active; 'I' for Inactive)
REMARK    1  A    between atoms: N_2  and  C_9
REMARK    2  A    between atoms: N_2  and  O_21
REMARK    3  A    between atoms: C_3  and  C_23
REMARK    4  A    between atoms: C_10  and  C_14
REMARK    5  A    between atoms: C_23  and  C_24
REMARK    6  A    between atoms: C_24  and  C_25
REMARK    7  A    between atoms: C_25  and  N_27
REMARK                            x       y       z     vdW  Elec       q    Type
REMARK                         _______ _______ _______ _____ _____    ______ ____
ROOT
ATOM      1  O   UNL     1      33.703 -13.287 -21.917  0.00  0.00    -0.453 OA
ATOM      2  C   UNL     1      35.314 -17.108 -22.173  0.00  0.00    -0.040 C 
ATOM      3  C   UNL     1      34.864 -16.491 -23.344  0.00  0.00    +0.053 C 
ATOM      4  C   UNL     1      34.316 -15.204 -23.292  0.00  0.00    +0.036 C 
ATOM      5  C   UNL     1      35.220 -16.448 -20.950  0.00  0.00    -0.005 C 
ATOM      6  C   UNL     1      34.225 -14.548 -22.060  0.00  0.00    +0.143 C 
ATOM      7  C   UNL     1      34.676 -15.167 -20.892  0.00  0.00    +0.037 C 
ATOM      8  C   UNL     1      33.826 -14.502 -24.498  0.00  0.00    +0.110 C 
ATOM      9  C   UNL     1      33.232 -12.634 -23.041  0.00  0.00    +0.160 C 
ATOM     10  C   UNL     1      33.267 -13.148 -24.281  0.00  0.00    +0.060 C 
ENDROOT
BRANCH   9  13
ATOM     11  S   UNL     1      32.275  -7.624 -24.367  0.00  0.00    -0.091 S 
ATOM     12  N   UNL     1      32.106 -11.120 -21.572  0.00  0.00    -0.266 NA
ATOM     13  C   UNL     1      32.694 -11.285 -22.773  0.00  0.00    +0.093 C 
ATOM     14  C   UNL     1      32.820 -10.300 -23.735  0.00  0.00    +0.081 C 
ATOM     15  C   UNL     1      32.284  -9.051 -23.400  0.00  0.00    +0.011 C 
ATOM     16  C   UNL     1      31.664  -8.834 -22.166  0.00  0.00    +0.005 C 
ATOM     17  C   UNL     1      31.592  -9.908 -21.264  0.00  0.00    +0.152 C 
ATOM     18  C   UNL     1      31.195  -7.483 -22.051  0.00  0.00    +0.005 C 
ATOM     19  C   UNL     1      31.461  -6.727 -23.167  0.00  0.00    +0.035 C 
ENDBRANCH   9  13
BRANCH   8  20
ATOM     20  N   UNL     1      33.857 -14.985 -25.699  0.00  0.00    -0.135 NA
BRANCH  20  21
ATOM     21  O   UNL     1      32.911 -16.007 -25.784  0.00  0.00    -0.265 OA
ATOM     22  H   UNL     1      33.079 -16.757 -26.319  0.00  0.00    +0.247 HD
ENDBRANCH  20  21
ENDBRANCH   8  20
BRANCH   2  23
ATOM     23  C   UNL     1      35.896 -18.480 -22.235  0.00  0.00    +0.020 C 
BRANCH  23  24
ATOM     24  C   UNL     1      35.835 -19.200 -20.879  0.00  0.00    -0.018 C 
BRANCH  24  25
ATOM     25  C   UNL     1      34.581 -20.065 -20.757  0.00  0.00    -0.077 C 
BRANCH  25  27
ATOM     26  O   UNL     1      34.756 -23.032 -17.794  0.00  0.00    -0.358 OA
ATOM     27  N   UNL     1      34.549 -20.731 -19.457  0.00  0.00    +0.390 N 
ATOM     28  C   UNL     1      33.490 -21.750 -19.417  0.00  0.00    -0.045 C 
ATOM     29  C   UNL     1      35.849 -21.345 -19.153  0.00  0.00    -0.045 C 
ATOM     30  C   UNL     1      35.788 -22.045 -17.798  0.00  0.00    +0.119 C 
ATOM     31  C   UNL     1      33.485 -22.439 -18.056  0.00  0.00    +0.119 C 
ATOM     32  H   UNL     1      34.348 -20.025 -18.749  0.00  0.00    -0.079 HD
ENDBRANCH  25  27
ENDBRANCH  24  25
ENDBRANCH  23  24
ENDBRANCH   2  23
TORSDOF 7
ENDMDL
MODEL 2
REMARK VINA RESULT:     -11.6      3.408      9.985
REMARK  Name = 135565465
REMARK  7 active torsions:
REMARK  status: ('A' for Active; 'I' for Inactive)
REMARK    1  A    between atoms: N_2  and  C_9
REMARK    2  A    between atoms: N_2  and  O_21
REMARK    3  A    between atoms: C_3  and  C_23
REMARK    4  A    between atoms: C_10  and  C_14
REMARK    5  A    between atoms: C_23  and  C_24
REMARK    6  A    between atoms: C_24  and  C_25
REMARK    7  A    between atoms: C_25  and  N_27
REMARK                            x       y       z     vdW  Elec       q    Type
REMARK                         _______ _______ _______ _____ _____    ______ ____
ROOT
ATOM      1  O   UNL     1      34.855 -16.216 -21.089  0.00  0.00    -0.453 OA
ATOM      2  C   UNL     1      33.933 -12.641 -22.993  0.00  0.00    -0.040 C 
ATOM      3  C   UNL     1      34.139 -13.783 -23.774  0.00  0.00    +0.053 C 
ATOM      4  C   UNL     1      34.451 -15.003 -23.163  0.00  0.00    +0.036 C 
ATOM      5  C   UNL     1      34.035 -12.711 -21.606  0.00  0.00    -0.005 C 
ATOM      6  C   UNL     1      34.553 -15.064 -21.770  0.00  0.00    +0.143 C 
ATOM      7  C   UNL     1      34.345 -13.922 -20.993  0.00  0.00    +0.037 C 
ATOM      8  C   UNL     1      34.678 -16.242 -23.939  0.00  0.00    +0.110 C 
ATOM      9  C   UNL     1      35.080 -17.373 -21.812  0.00  0.00    +0.160 C 
ATOM     10  C   UNL     1      35.006 -17.452 -23.150  0.00  0.00    +0.060 C 
ENDROOT
BRANCH   9  13
ATOM     11  S   UNL     1      33.751 -21.769 -19.226  0.00  0.00    -0.091 S 
ATOM     12  N   UNL     1      36.686 -18.687 -20.623  0.00  0.00    -0.266 NA
ATOM     13  C   UNL     1      35.394 -18.552 -20.980  0.00  0.00    +0.093 C 
ATOM     14  C   UNL     1      34.380 -19.422 -20.624  0.00  0.00    +0.081 C 
ATOM     15  C   UNL     1      34.763 -20.513 -19.834  0.00  0.00    +0.011 C 
ATOM     16  C   UNL     1      36.092 -20.693 -19.441  0.00  0.00    +0.005 C 
ATOM     17  C   UNL     1      37.040 -19.746 -19.861  0.00  0.00    +0.152 C 
ATOM     18  C   UNL     1      36.241 -21.873 -18.640  0.00  0.00    +0.005 C 
ATOM     19  C   UNL     1      35.056 -22.544 -18.449  0.00  0.00    +0.035 C 
ENDBRANCH   9  13
BRANCH   8  20
ATOM     20  N   UNL     1      34.607 -16.331 -25.228  0.00  0.00    -0.135 NA
BRANCH  20  21
ATOM     21  O   UNL     1      33.260 -16.337 -25.593  0.00  0.00    -0.265 OA
ATOM     22  H   UNL     1      32.613 -16.008 -25.001  0.00  0.00    +0.247 HD
ENDBRANCH  20  21
ENDBRANCH   8  20
BRANCH   2  23
ATOM     23  C   UNL     1      33.601 -11.344 -23.650  0.00  0.00    +0.020 C 
BRANCH  23  24
ATOM     24  C   UNL     1      32.344 -10.693 -23.052  0.00  0.00    -0.018 C 
BRANCH  24  25
ATOM     25  C   UNL     1      32.402  -9.169 -23.143  0.00  0.00    -0.077 C 
BRANCH  25  27
ATOM     26  O   UNL     1      32.845  -8.161 -19.092  0.00  0.00    -0.358 OA
ATOM     27  N   UNL     1      32.174  -8.574 -21.828  0.00  0.00    +0.390 N 
ATOM     28  C   UNL     1      31.949  -9.615 -20.815  0.00  0.00    -0.045 C 
ATOM     29  C   UNL     1      33.307  -7.726 -21.434  0.00  0.00    -0.045 C 
ATOM     30  C   UNL     1      33.052  -7.126 -20.055  0.00  0.00    +0.119 C 
ATOM     31  C   UNL     1      31.725  -8.970 -19.450  0.00  0.00    +0.119 C 
ATOM     32  H   UNL     1      31.338  -7.993 -21.889  0.00  0.00    -0.079 HD
ENDBRANCH  25  27
ENDBRANCH  24  25
ENDBRANCH  23  24
ENDBRANCH   2  23
TORSDOF 7
ENDMDL
MODEL 3
REMARK VINA RESULT:     -11.6      5.197     12.612
REMARK  Name = 135565465
REMARK  7 active torsions:
REMARK  status: ('A' for Active; 'I' for Inactive)
REMARK    1  A    between atoms: N_2  and  C_9
REMARK    2  A    between atoms: N_2  and  O_21
REMARK    3  A    between atoms: C_3  and  C_23
REMARK    4  A    between atoms: C_10  and  C_14
REMARK    5  A    between atoms: C_23  and  C_24
REMARK    6  A    between atoms: C_24  and  C_25
REMARK    7  A    between atoms: C_25  and  N_27
REMARK                            x       y       z     vdW  Elec       q    Type
REMARK                         _______ _______ _______ _____ _____    ______ ____
ROOT
ATOM      1  O   UNL     1      35.999 -22.582 -17.011  0.00  0.00    -0.453 OA
ATOM      2  C   UNL     1      34.809 -20.397 -20.339  0.00  0.00    -0.040 C 
ATOM      3  C   UNL     1      33.829 -21.023 -19.562  0.00  0.00    +0.053 C 
ATOM      4  C   UNL     1      34.197 -21.766 -18.435  0.00  0.00    +0.036 C 
ATOM      5  C   UNL     1      36.155 -20.509 -19.996  0.00  0.00    -0.005 C 
ATOM      6  C   UNL     1      35.549 -21.874 -18.098  0.00  0.00    +0.143 C 
ATOM      7  C   UNL     1      36.526 -21.248 -18.875  0.00  0.00    +0.037 C 
ATOM      8  C   UNL     1      33.203 -22.446 -17.576  0.00  0.00    +0.110 C 
ATOM      9  C   UNL     1      35.072 -23.230 -16.215  0.00  0.00    +0.160 C 
ATOM     10  C   UNL     1      33.747 -23.200 -16.423  0.00  0.00    +0.060 C 
ENDROOT
BRANCH   9  13
ATOM     11  S   UNL     1      37.035 -23.485 -11.330  0.00  0.00    -0.091 S 
ATOM     12  N   UNL     1      35.856 -25.279 -15.261  0.00  0.00    -0.266 NA
ATOM     13  C   UNL     1      35.664 -23.959 -15.074  0.00  0.00    +0.093 C 
ATOM     14  C   UNL     1      35.979 -23.269 -13.918  0.00  0.00    +0.081 C 
ATOM     15  C   UNL     1      36.537 -24.034 -12.886  0.00  0.00    +0.011 C 
ATOM     16  C   UNL     1      36.753 -25.407 -13.036  0.00  0.00    +0.005 C 
ATOM     17  C   UNL     1      36.395 -26.004 -14.255  0.00  0.00    +0.152 C 
ATOM     18  C   UNL     1      37.331 -25.974 -11.852  0.00  0.00    +0.005 C 
ATOM     19  C   UNL     1      37.534 -25.046 -10.858  0.00  0.00    +0.035 C 
ENDBRANCH   9  13
BRANCH   8  20
ATOM     20  N   UNL     1      31.922 -22.423 -17.765  0.00  0.00    -0.135 NA
BRANCH  20  21
ATOM     21  O   UNL     1      31.298 -22.803 -16.576  0.00  0.00    -0.265 OA
ATOM     22  H   UNL     1      30.936 -22.152 -16.008  0.00  0.00    +0.247 HD
ENDBRANCH  20  21
ENDBRANCH   8  20
BRANCH   2  23
ATOM     23  C   UNL     1      34.411 -19.607 -21.539  0.00  0.00    +0.020 C 
BRANCH  23  24
ATOM     24  C   UNL     1      35.013 -18.194 -21.531  0.00  0.00    -0.018 C 
BRANCH  24  25
ATOM     25  C   UNL     1      35.755 -17.890 -22.832  0.00  0.00    -0.077 C 
BRANCH  25  27
ATOM     26  O   UNL     1      33.443 -14.519 -23.788  0.00  0.00    -0.358 OA
ATOM     27  N   UNL     1      35.354 -16.584 -23.352  0.00  0.00    +0.390 N 
ATOM     28  C   UNL     1      34.283 -16.725 -24.349  0.00  0.00    -0.045 C 
ATOM     29  C   UNL     1      34.914 -15.702 -22.263  0.00  0.00    -0.045 C 
ATOM     30  C   UNL     1      34.488 -14.350 -22.829  0.00  0.00    +0.119 C 
ATOM     31  C   UNL     1      33.874 -15.349 -24.867  0.00  0.00    +0.119 C 
ATOM     32  H   UNL     1      36.166 -16.165 -23.803  0.00  0.00    -0.079 HD
ENDBRANCH  25  27
ENDBRANCH  24  25
ENDBRANCH  23  24
ENDBRANCH   2  23
TORSDOF 7
ENDMDL
MODEL 4
REMARK VINA RESULT:     -11.3      4.911     12.139
REMARK  Name = 135565465
REMARK  7 active torsions:
REMARK  status: ('A' for Active; 'I' for Inactive)
REMARK    1  A    between atoms: N_2  and  C_9
REMARK    2  A    between atoms: N_2  and  O_21
REMARK    3  A    between atoms: C_3  and  C_23
REMARK    4  A    between atoms: C_10  and  C_14
REMARK    5  A    between atoms: C_23  and  C_24
REMARK    6  A    between atoms: C_24  and  C_25
REMARK    7  A    between atoms: C_25  and  N_27
REMARK                            x       y       z     vdW  Elec       q    Type
REMARK                         _______ _______ _______ _____ _____    ______ ____
ROOT
ATOM      1  O   UNL     1      36.563 -21.638 -17.535  0.00  0.00    -0.453 OA
ATOM      2  C   UNL     1      35.311 -19.896 -21.092  0.00  0.00    -0.040 C 
ATOM      3  C   UNL     1      34.405 -20.686 -20.378  0.00  0.00    +0.053 C 
ATOM      4  C   UNL     1      34.796 -21.286 -19.176  0.00  0.00    +0.036 C 
ATOM      5  C   UNL     1      36.605 -19.702 -20.613  0.00  0.00    -0.005 C 
ATOM      6  C   UNL     1      36.096 -21.088 -18.702  0.00  0.00    +0.143 C 
ATOM      7  C   UNL     1      36.999 -20.297 -19.418  0.00  0.00    +0.037 C 
ATOM      8  C   UNL     1      33.879 -22.130 -18.378  0.00  0.00    +0.110 C 
ATOM      9  C   UNL     1      35.712 -22.438 -16.794  0.00  0.00    +0.160 C 
ATOM     10  C   UNL     1      34.441 -22.702 -17.132  0.00  0.00    +0.060 C 
ENDROOT
BRANCH   9  13
ATOM     11  S   UNL     1      35.537 -23.814 -11.709  0.00  0.00    -0.091 S 
ATOM     12  N   UNL     1      37.605 -23.354 -15.655  0.00  0.00    -0.266 NA
ATOM     13  C   UNL     1      36.316 -22.976 -15.558  0.00  0.00    +0.093 C 
ATOM     14  C   UNL     1      35.552 -23.059 -14.409  0.00  0.00    +0.081 C 
ATOM     15  C   UNL     1      36.201 -23.580 -13.283  0.00  0.00    +0.011 C 
ATOM     16  C   UNL     1      37.537 -23.985 -13.338  0.00  0.00    +0.005 C 
ATOM     17  C   UNL     1      38.218 -23.856 -14.559  0.00  0.00    +0.152 C 
ATOM     18  C   UNL     1      37.982 -24.481 -12.068  0.00  0.00    +0.005 C 
ATOM     19  C   UNL     1      37.002 -24.443 -11.105  0.00  0.00    +0.035 C 
ENDBRANCH   9  13
BRANCH   8  20
ATOM     20  N   UNL     1      32.650 -22.390 -18.692  0.00  0.00    -0.135 NA
BRANCH  20  21
ATOM     21  O   UNL     1      31.900 -22.440 -17.516  0.00  0.00    -0.265 OA
ATOM     22  H   UNL     1      31.412 -21.690 -17.240  0.00  0.00    +0.247 HD
ENDBRANCH  20  21
ENDBRANCH   8  20
BRANCH   2  23
ATOM     23  C   UNL     1      34.890 -19.258 -22.373  0.00  0.00    +0.020 C 
BRANCH  23  24
ATOM     24  C   UNL     1      35.309 -17.782 -22.454  0.00  0.00    -0.018 C 
BRANCH  24  25
ATOM     25  C   UNL     1      34.903 -17.153 -23.786  0.00  0.00    -0.077 C 
BRANCH  25  27
ATOM     26  O   UNL     1      33.885 -13.081 -23.758  0.00  0.00    -0.358 OA
ATOM     27  N   UNL     1      34.176 -15.906 -23.558  0.00  0.00    +0.390 N 
ATOM     28  C   UNL     1      34.960 -14.991 -22.717  0.00  0.00    -0.045 C 
ATOM     29  C   UNL     1      33.842 -15.256 -24.832  0.00  0.00    -0.045 C 
ATOM     30  C   UNL     1      33.096 -13.951 -24.570  0.00  0.00    +0.119 C 
ATOM     31  C   UNL     1      34.187 -13.693 -22.503  0.00  0.00    +0.119 C 
ATOM     32  H   UNL     1      33.309 -16.134 -23.071  0.00  0.00    -0.079 HD
ENDBRANCH  25  27
ENDBRANCH  24  25
ENDBRANCH  23  24
ENDBRANCH   2  23
TORSDOF 7
ENDMDL
MODEL 5
REMARK VINA RESULT:     -11.2      4.748     11.739
REMARK  Name = 135565465
REMARK  7 active torsions:
REMARK  status: ('A' for Active; 'I' for Inactive)
REMARK    1  A    between atoms: N_2  and  C_9
REMARK    2  A    between atoms: N_2  and  O_21
REMARK    3  A    between atoms: C_3  and  C_23
REMARK    4  A    between atoms: C_10  and  C_14
REMARK    5  A    between atoms: C_23  and  C_24
REMARK    6  A    between atoms: C_24  and  C_25
REMARK    7  A    between atoms: C_25  and  N_27
REMARK                            x       y       z     vdW  Elec       q    Type
REMARK                         _______ _______ _______ _____ _____    ______ ____
ROOT
ATOM      1  O   UNL     1      32.928 -21.970 -18.100  0.00  0.00    -0.453 OA
ATOM      2  C   UNL     1      35.086 -19.893 -20.978  0.00  0.00    -0.040 C 
ATOM      3  C   UNL     1      35.785 -20.547 -19.959  0.00  0.00    +0.053 C 
ATOM      4  C   UNL     1      35.088 -21.256 -18.974  0.00  0.00    +0.036 C 
ATOM      5  C   UNL     1      33.695 -19.943 -21.020  0.00  0.00    -0.005 C 
ATOM      6  C   UNL     1      33.691 -21.300 -19.023  0.00  0.00    +0.143 C 
ATOM      7  C   UNL     1      32.996 -20.646 -20.042  0.00  0.00    +0.037 C 
ATOM      8  C   UNL     1      35.775 -21.968 -17.875  0.00  0.00    +0.110 C 
ATOM      9  C   UNL     1      33.568 -22.626 -17.063  0.00  0.00    +0.160 C 
ATOM     10  C   UNL     1      34.900 -22.667 -16.906  0.00  0.00    +0.060 C 
ENDROOT
BRANCH   9  13
ATOM     11  S   UNL     1      28.808 -24.333 -15.579  0.00  0.00    -0.091 S 
ATOM     12  N   UNL     1      33.222 -23.824 -15.022  0.00  0.00    -0.266 NA
ATOM     13  C   UNL     1      32.652 -23.314 -16.131  0.00  0.00    +0.093 C 
ATOM     14  C   UNL     1      31.306 -23.394 -16.436  0.00  0.00    +0.081 C 
ATOM     15  C   UNL     1      30.508 -24.062 -15.499  0.00  0.00    +0.011 C 
ATOM     16  C   UNL     1      31.057 -24.607 -14.335  0.00  0.00    +0.005 C 
ATOM     17  C   UNL     1      32.439 -24.467 -14.127  0.00  0.00    +0.152 C 
ATOM     18  C   UNL     1      30.050 -25.239 -13.532  0.00  0.00    +0.005 C 
ATOM     19  C   UNL     1      28.796 -25.162 -14.089  0.00  0.00    +0.035 C 
ENDBRANCH   9  13
BRANCH   8  20
ATOM     20  N   UNL     1      37.059 -22.018 -17.713  0.00  0.00    -0.135 NA
BRANCH  20  21
ATOM     21  O   UNL     1      37.325 -22.756 -16.560  0.00  0.00    -0.265 OA
ATOM     22  H   UNL     1      37.023 -23.640 -16.488  0.00  0.00    +0.247 HD
ENDBRANCH  20  21
ENDBRANCH   8  20
BRANCH   2  23
ATOM     23  C   UNL     1      35.835 -19.139 -22.025  0.00  0.00    +0.020 C 
BRANCH  23  24
ATOM     24  C   UNL     1      35.284 -17.719 -22.225  0.00  0.00    -0.018 C 
BRANCH  24  25
ATOM     25  C   UNL     1      34.912 -17.460 -23.684  0.00  0.00    -0.077 C 
BRANCH  25  27
ATOM     26  O   UNL     1      33.174 -13.640 -23.741  0.00  0.00    -0.358 OA
ATOM     27  N   UNL     1      34.711 -16.030 -23.910  0.00  0.00    +0.390 N 
ATOM     28  C   UNL     1      33.551 -15.797 -24.783  0.00  0.00    -0.045 C 
ATOM     29  C   UNL     1      34.531 -15.321 -22.636  0.00  0.00    -0.045 C 
ATOM     30  C   UNL     1      34.309 -13.834 -22.897  0.00  0.00    +0.119 C 
ATOM     31  C   UNL     1      33.354 -14.299 -24.994  0.00  0.00    +0.119 C 
ATOM     32  H   UNL     1      35.544 -15.666 -24.371  0.00  0.00    -0.079 HD
ENDBRANCH  25  27
ENDBRANCH  24  25
ENDBRANCH  23  24
ENDBRANCH   2  23
TORSDOF 7
ENDMDL
MODEL 6
REMARK VINA RESULT:     -10.7      3.544     10.597
REMARK  Name = 135565465
REMARK  7 active torsions:
REMARK  status: ('A' for Active; 'I' for Inactive)
REMARK    1  A    between atoms: N_2  and  C_9
REMARK    2  A    between atoms: N_2  and  O_21
REMARK    3  A    between atoms: C_3  and  C_23
REMARK    4  A    between atoms: C_10  and  C_14
REMARK    5  A    between atoms: C_23  and  C_24
REMARK    6  A    between atoms: C_24  and  C_25
REMARK    7  A    between atoms: C_25  and  N_27
REMARK                            x       y       z     vdW  Elec       q    Type
REMARK                         _______ _______ _______ _____ _____    ______ ____
ROOT
ATOM      1  O   UNL     1      34.729 -16.106 -21.216  0.00  0.00    -0.453 OA
ATOM      2  C   UNL     1      33.598 -12.601 -23.139  0.00  0.00    -0.040 C 
ATOM      3  C   UNL     1      33.846 -13.740 -23.912  0.00  0.00    +0.053 C 
ATOM      4  C   UNL     1      34.228 -14.936 -23.295  0.00  0.00    +0.036 C 
ATOM      5  C   UNL     1      33.730 -12.651 -21.753  0.00  0.00    -0.005 C 
ATOM      6  C   UNL     1      34.359 -14.977 -21.903  0.00  0.00    +0.143 C 
ATOM      7  C   UNL     1      34.110 -13.838 -21.134  0.00  0.00    +0.037 C 
ATOM      8  C   UNL     1      34.501 -16.171 -24.062  0.00  0.00    +0.110 C 
ATOM      9  C   UNL     1      34.998 -17.258 -21.933  0.00  0.00    +0.160 C 
ATOM     10  C   UNL     1      34.903 -17.355 -23.267  0.00  0.00    +0.060 C 
ENDROOT
BRANCH   9  13
ATOM     11  S   UNL     1      33.930 -21.671 -19.256  0.00  0.00    -0.091 S 
ATOM     12  N   UNL     1      36.691 -18.486 -20.771  0.00  0.00    -0.266 NA
ATOM     13  C   UNL     1      35.385 -18.411 -21.094  0.00  0.00    +0.093 C 
ATOM     14  C   UNL     1      34.419 -19.319 -20.700  0.00  0.00    +0.081 C 
ATOM     15  C   UNL     1      34.870 -20.381 -19.907  0.00  0.00    +0.011 C 
ATOM     16  C   UNL     1      36.216 -20.499 -19.548  0.00  0.00    +0.005 C 
ATOM     17  C   UNL     1      37.110 -19.518 -20.006  0.00  0.00    +0.152 C 
ATOM     18  C   UNL     1      36.437 -21.661 -18.737  0.00  0.00    +0.005 C 
ATOM     19  C   UNL     1      35.288 -22.379 -18.506  0.00  0.00    +0.035 C 
ENDBRANCH   9  13
BRANCH   8  20
ATOM     20  N   UNL     1      34.411 -16.278 -25.349  0.00  0.00    -0.135 NA
BRANCH  20  21
ATOM     21  O   UNL     1      33.060 -16.260 -25.696  0.00  0.00    -0.265 OA
ATOM     22  H   UNL     1      32.459 -16.837 -25.267  0.00  0.00    +0.247 HD
ENDBRANCH  20  21
ENDBRANCH   8  20
BRANCH   2  23
ATOM     23  C   UNL     1      33.191 -11.329 -23.803  0.00  0.00    +0.020 C 
BRANCH  23  24
ATOM     24  C   UNL     1      33.182 -10.142 -22.828  0.00  0.00    -0.018 C 
BRANCH  24  25
ATOM     25  C   UNL     1      32.398  -8.957 -23.391  0.00  0.00    -0.077 C 
BRANCH  25  27
ATOM     26  O   UNL     1      35.297  -6.101 -24.422  0.00  0.00    -0.358 OA
ATOM     27  N   UNL     1      33.223  -7.751 -23.380  0.00  0.00    +0.390 N 
ATOM     28  C   UNL     1      34.642  -8.090 -23.197  0.00  0.00    -0.045 C 
ATOM     29  C   UNL     1      33.046  -6.986 -24.621  0.00  0.00    -0.045 C 
ATOM     30  C   UNL     1      33.926  -5.740 -24.593  0.00  0.00    +0.119 C 
ATOM     31  C   UNL     1      35.483  -6.818 -23.201  0.00  0.00    +0.119 C 
ATOM     32  H   UNL     1      32.923  -7.174 -22.595  0.00  0.00    -0.079 HD
ENDBRANCH  25  27
ENDBRANCH  24  25
ENDBRANCH  23  24
ENDBRANCH   2  23
TORSDOF 7
ENDMDL
MODEL 7
REMARK VINA RESULT:     -10.4      5.727      8.844
REMARK  Name = 135565465
REMARK  7 active torsions:
REMARK  status: ('A' for Active; 'I' for Inactive)
REMARK    1  A    between atoms: N_2  and  C_9
REMARK    2  A    between atoms: N_2  and  O_21
REMARK    3  A    between atoms: C_3  and  C_23
REMARK    4  A    between atoms: C_10  and  C_14
REMARK    5  A    between atoms: C_23  and  C_24
REMARK    6  A    between atoms: C_24  and  C_25
REMARK    7  A    between atoms: C_25  and  N_27
REMARK                            x       y       z     vdW  Elec       q    Type
REMARK                         _______ _______ _______ _____ _____    ______ ____
ROOT
ATOM      1  O   UNL     1      36.214 -20.367 -18.761  0.00  0.00    -0.453 OA
ATOM      2  C   UNL     1      36.628 -22.957 -15.539  0.00  0.00    -0.040 C 
ATOM      3  C   UNL     1      35.602 -23.191 -16.460  0.00  0.00    +0.053 C 
ATOM      4  C   UNL     1      35.436 -22.337 -17.556  0.00  0.00    +0.036 C 
ATOM      5  C   UNL     1      37.490 -21.875 -15.708  0.00  0.00    -0.005 C 
ATOM      6  C   UNL     1      36.305 -21.253 -17.717  0.00  0.00    +0.143 C 
ATOM      7  C   UNL     1      37.329 -21.023 -16.796  0.00  0.00    +0.037 C 
ATOM      8  C   UNL     1      34.370 -22.538 -18.562  0.00  0.00    +0.110 C 
ATOM      9  C   UNL     1      35.210 -20.545 -19.695  0.00  0.00    +0.160 C 
ATOM     10  C   UNL     1      34.318 -21.546 -19.661  0.00  0.00    +0.060 C 
ENDROOT
BRANCH   9  13
ATOM     11  S   UNL     1      33.773 -18.773 -24.446  0.00  0.00    -0.091 S 
ATOM     12  N   UNL     1      35.924 -18.421 -20.534  0.00  0.00    -0.266 NA
ATOM     13  C   UNL     1      35.207 -19.536 -20.774  0.00  0.00    +0.093 C 
ATOM     14  C   UNL     1      34.494 -19.783 -21.933  0.00  0.00    +0.081 C 
ATOM     15  C   UNL     1      34.544 -18.777 -22.905  0.00  0.00    +0.011 C 
ATOM     16  C   UNL     1      35.275 -17.603 -22.698  0.00  0.00    +0.005 C 
ATOM     17  C   UNL     1      35.962 -17.459 -21.482  0.00  0.00    +0.152 C 
ATOM     18  C   UNL     1      35.178 -16.725 -23.828  0.00  0.00    +0.005 C 
ATOM     19  C   UNL     1      34.398 -17.236 -24.838  0.00  0.00    +0.035 C 
ENDBRANCH   9  13
BRANCH   8  20
ATOM     20  N   UNL     1      33.505 -23.501 -18.542  0.00  0.00    -0.135 NA
BRANCH  20  21
ATOM     21  O   UNL     1      33.964 -24.518 -19.379  0.00  0.00    -0.265 OA
ATOM     22  H   UNL     1      34.873 -24.571 -19.597  0.00  0.00    +0.247 HD
ENDBRANCH  20  21
ENDBRANCH   8  20
BRANCH   2  23
ATOM     23  C   UNL     1      36.800 -23.870 -14.373  0.00  0.00    +0.020 C 
BRANCH  23  24
ATOM     24  C   UNL     1      35.658 -24.893 -14.261  0.00  0.00    -0.018 C 
BRANCH  24  25
ATOM     25  C   UNL     1      34.543 -24.393 -13.344  0.00  0.00    -0.077 C 
BRANCH  25  27
ATOM     26  O   UNL     1      30.493 -23.813 -14.280  0.00  0.00    -0.358 OA
ATOM     27  N   UNL     1      33.255 -24.455 -14.031  0.00  0.00    +0.390 N 
ATOM     28  C   UNL     1      32.238 -25.089 -13.179  0.00  0.00    -0.045 C 
ATOM     29  C   UNL     1      32.811 -23.113 -14.431  0.00  0.00    -0.045 C 
ATOM     30  C   UNL     1      31.460 -23.202 -15.134  0.00  0.00    +0.119 C 
ATOM     31  C   UNL     1      30.901 -25.131 -13.913  0.00  0.00    +0.119 C 
ATOM     32  H   UNL     1      33.375 -25.022 -14.870  0.00  0.00    -0.079 HD
ENDBRANCH  25  27
ENDBRANCH  24  25
ENDBRANCH  23  24
ENDBRANCH   2  23
TORSDOF 7
ENDMDL
MODEL 8
REMARK VINA RESULT:     -10.3      5.025      8.824
REMARK  Name = 135565465
REMARK  7 active torsions:
REMARK  status: ('A' for Active; 'I' for Inactive)
REMARK    1  A    between atoms: N_2  and  C_9
REMARK    2  A    between atoms: N_2  and  O_21
REMARK    3  A    between atoms: C_3  and  C_23
REMARK    4  A    between atoms: C_10  and  C_14
REMARK    5  A    between atoms: C_23  and  C_24
REMARK    6  A    between atoms: C_24  and  C_25
REMARK    7  A    between atoms: C_25  and  N_27
REMARK                            x       y       z     vdW  Elec       q    Type
REMARK                         _______ _______ _______ _____ _____    ______ ____
ROOT
ATOM      1  O   UNL     1      35.982 -20.249 -19.337  0.00  0.00    -0.453 OA
ATOM      2  C   UNL     1      36.415 -22.715 -16.023  0.00  0.00    -0.040 C 
ATOM      3  C   UNL     1      35.236 -22.797 -16.769  0.00  0.00    +0.053 C 
ATOM      4  C   UNL     1      35.059 -21.980 -17.891  0.00  0.00    +0.036 C 
ATOM      5  C   UNL     1      37.420 -21.823 -16.391  0.00  0.00    -0.005 C 
ATOM      6  C   UNL     1      36.071 -21.086 -18.254  0.00  0.00    +0.143 C 
ATOM      7  C   UNL     1      37.249 -21.008 -17.507  0.00  0.00    +0.037 C 
ATOM      8  C   UNL     1      33.833 -22.025 -18.718  0.00  0.00    +0.110 C 
ATOM      9  C   UNL     1      34.831 -20.279 -20.104  0.00  0.00    +0.160 C 
ATOM     10  C   UNL     1      33.791 -21.094 -19.869  0.00  0.00    +0.060 C 
ENDROOT
BRANCH   9  13
ATOM     11  S   UNL     1      34.953 -15.438 -22.182  0.00  0.00    -0.091 S 
ATOM     12  N   UNL     1      34.804 -19.905 -22.466  0.00  0.00    -0.266 NA
ATOM     13  C   UNL     1      34.843 -19.340 -21.244  0.00  0.00    +0.093 C 
ATOM     14  C   UNL     1      34.891 -17.979 -21.002  0.00  0.00    +0.081 C 
ATOM     15  C   UNL     1      34.898 -17.159 -22.137  0.00  0.00    +0.011 C 
ATOM     16  C   UNL     1      34.860 -17.702 -23.425  0.00  0.00    +0.005 C 
ATOM     17  C   UNL     1      34.813 -19.100 -23.552  0.00  0.00    +0.152 C 
ATOM     18  C   UNL     1      34.876 -16.672 -24.423  0.00  0.00    +0.005 C 
ATOM     19  C   UNL     1      34.925 -15.407 -23.887  0.00  0.00    +0.035 C 
ENDBRANCH   9  13
BRANCH   8  20
ATOM     20  N   UNL     1      32.824 -22.807 -18.504  0.00  0.00    -0.135 NA
BRANCH  20  21
ATOM     21  O   UNL     1      31.965 -22.176 -17.604  0.00  0.00    -0.265 OA
ATOM     22  H   UNL     1      31.221 -22.634 -17.267  0.00  0.00    +0.247 HD
ENDBRANCH  20  21
ENDBRANCH   8  20
BRANCH   2  23
ATOM     23  C   UNL     1      36.598 -23.589 -14.827  0.00  0.00    +0.020 C 
BRANCH  23  24
ATOM     24  C   UNL     1      38.063 -24.010 -14.633  0.00  0.00    -0.018 C 
BRANCH  24  25
ATOM     25  C   UNL     1      38.262 -24.767 -13.321  0.00  0.00    -0.077 C 
BRANCH  25  27
ATOM     26  O   UNL     1      36.329 -24.078  -9.659  0.00  0.00    -0.358 OA
ATOM     27  N   UNL     1      37.278 -24.334 -12.331  0.00  0.00    +0.390 N 
ATOM     28  C   UNL     1      36.738 -25.485 -11.592  0.00  0.00    -0.045 C 
ATOM     29  C   UNL     1      37.870 -23.369 -11.395  0.00  0.00    -0.045 C 
ATOM     30  C   UNL     1      36.829 -22.941 -10.364  0.00  0.00    +0.119 C 
ATOM     31  C   UNL     1      35.723 -25.006 -10.559  0.00  0.00    +0.119 C 
ATOM     32  H   UNL     1      36.513 -23.879 -12.829  0.00  0.00    -0.079 HD
ENDBRANCH  25  27
ENDBRANCH  24  25
ENDBRANCH  23  24
ENDBRANCH   2  23
TORSDOF 7
ENDMDL
MODEL 9
REMARK VINA RESULT:      -9.9      3.964      6.462
REMARK  Name = 135565465
REMARK  7 active torsions:
REMARK  status: ('A' for Active; 'I' for Inactive)
REMARK    1  A    between atoms: N_2  and  C_9
REMARK    2  A    between atoms: N_2  and  O_21
REMARK    3  A    between atoms: C_3  and  C_23
REMARK    4  A    between atoms: C_10  and  C_14
REMARK    5  A    between atoms: C_23  and  C_24
REMARK    6  A    between atoms: C_24  and  C_25
REMARK    7  A    between atoms: C_25  and  N_27
REMARK                            x       y       z     vdW  Elec       q    Type
REMARK                         _______ _______ _______ _____ _____    ______ ____
ROOT
ATOM      1  O   UNL     1      31.463  -9.056 -22.368  0.00  0.00    -0.453 OA
ATOM      2  C   UNL     1      32.080 -12.851 -20.795  0.00  0.00    -0.040 C 
ATOM      3  C   UNL     1      32.181 -11.748 -19.942  0.00  0.00    +0.053 C 
ATOM      4  C   UNL     1      31.978 -10.456 -20.441  0.00  0.00    +0.036 C 
ATOM      5  C   UNL     1      31.777 -12.672 -22.143  0.00  0.00    -0.005 C 
ATOM      6  C   UNL     1      31.676 -10.285 -21.795  0.00  0.00    +0.143 C 
ATOM      7  C   UNL     1      31.575 -11.389 -22.645  0.00  0.00    +0.037 C 
ATOM      8  C   UNL     1      32.070  -9.253 -19.585  0.00  0.00    +0.110 C 
ATOM      9  C   UNL     1      31.562  -7.929 -21.573  0.00  0.00    +0.160 C 
ATOM     10  C   UNL     1      31.837  -7.955 -20.260  0.00  0.00    +0.060 C 
ENDROOT
BRANCH   9  13
ATOM     11  S   UNL     1      30.458  -2.778 -21.737  0.00  0.00    -0.091 S 
ATOM     12  N   UNL     1      31.369  -6.732 -23.634  0.00  0.00    -0.266 NA
ATOM     13  C   UNL     1      31.312  -6.663 -22.290  0.00  0.00    +0.093 C 
ATOM     14  C   UNL     1      31.042  -5.514 -21.568  0.00  0.00    +0.081 C 
ATOM     15  C   UNL     1      30.817  -4.358 -22.325  0.00  0.00    +0.011 C 
ATOM     16  C   UNL     1      30.867  -4.384 -23.722  0.00  0.00    +0.005 C 
ATOM     17  C   UNL     1      31.150  -5.606 -24.351  0.00  0.00    +0.152 C 
ATOM     18  C   UNL     1      30.604  -3.087 -24.274  0.00  0.00    +0.005 C 
ATOM     19  C   UNL     1      30.368  -2.133 -23.313  0.00  0.00    +0.035 C 
ENDBRANCH   9  13
BRANCH   8  20
ATOM     20  N   UNL     1      32.333  -9.265 -18.317  0.00  0.00    -0.135 NA
BRANCH  20  21
ATOM     21  O   UNL     1      31.569 -10.271 -17.722  0.00  0.00    -0.265 OA
ATOM     22  H   UNL     1      31.016 -10.812 -18.249  0.00  0.00    +0.247 HD
ENDBRANCH  20  21
ENDBRANCH   8  20
BRANCH   2  23
ATOM     23  C   UNL     1      32.297 -14.226 -20.258  0.00  0.00    +0.020 C 
BRANCH  23  24
ATOM     24  C   UNL     1      33.788 -14.577 -20.144  0.00  0.00    -0.018 C 
BRANCH  24  25
ATOM     25  C   UNL     1      34.544 -14.244 -21.430  0.00  0.00    -0.077 C 
BRANCH  25  27
ATOM     26  O   UNL     1      34.721 -16.544 -24.936  0.00  0.00    -0.358 OA
ATOM     27  N   UNL     1      34.202 -15.198 -22.482  0.00  0.00    +0.390 N 
ATOM     28  C   UNL     1      34.058 -14.519 -23.777  0.00  0.00    -0.045 C 
ATOM     29  C   UNL     1      35.217 -16.256 -22.578  0.00  0.00    -0.045 C 
ATOM     30  C   UNL     1      34.845 -17.232 -23.691  0.00  0.00    +0.119 C 
ATOM     31  C   UNL     1      33.713 -15.536 -24.860  0.00  0.00    +0.119 C 
ATOM     32  H   UNL     1      33.308 -15.625 -22.238  0.00  0.00    -0.079 HD
ENDBRANCH  25  27
ENDBRANCH  24  25
ENDBRANCH  23  24
ENDBRANCH   2  23
TORSDOF 7
ENDMDL
