MODEL 1
REMARK VINA RESULT:     -11.5      0.000      0.000
REMARK  Name = 42627755
REMARK  2 active torsions:
REMARK  status: ('A' for Active; 'I' for Inactive)
REMARK    1  A    between atoms: N_5  and  C_20
REMARK    2  A    between atoms: C_7  and  C_28
REMARK                            x       y       z     vdW  Elec       q    Type
REMARK                         _______ _______ _______ _____ _____    ______ ____
ROOT
ATOM      1  N   UNL     1      35.497 -21.720 -18.829  0.00  0.00    -0.239 N 
ATOM      2  N   UNL     1      34.817 -22.321 -17.839  0.00  0.00    -0.166 NA
ATOM      3  N   UNL     1      32.419 -22.472 -17.408  0.00  0.00    -0.271 N 
ATOM      4  N   UNL     1      33.388 -23.686 -15.604  0.00  0.00    -0.322 NA
ATOM      5  N   UNL     1      34.299 -24.889 -13.813  0.00  0.00    -0.247 N 
ATOM      6  N   UNL     1      31.969 -24.688 -13.934  0.00  0.00    -0.170 NA
ATOM      7  C   UNL     1      34.702 -21.089 -19.740  0.00  0.00    +0.045 C 
ATOM      8  C   UNL     1      33.411 -21.294 -19.316  0.00  0.00    +0.048 C 
ATOM      9  C   UNL     1      33.543 -22.057 -18.141  0.00  0.00    +0.152 C 
ATOM     10  C   UNL     1      32.278 -23.230 -16.220  0.00  0.00    +0.199 C 
ATOM     11  C   UNL     1      30.998 -23.459 -15.761  0.00  0.00    +0.070 C 
ATOM     12  C   UNL     1      33.164 -24.398 -14.482  0.00  0.00    +0.150 C 
ATOM     13  C   UNL     1      30.902 -24.200 -14.601  0.00  0.00    +0.116 C 
ATOM     14  H   UNL     1      36.480 -21.733 -18.892  0.00  0.00    +0.174 HD
ATOM     15  H   UNL     1      31.563 -22.178 -17.795  0.00  0.00    +0.156 HD
ATOM     16  H   UNL     1      34.087 -25.403 -13.000  0.00  0.00    +0.165 HD
ENDROOT
BRANCH   5  20
ATOM     17  N   UNL     1      38.950 -26.555 -13.920  0.00  0.00    -0.315 N 
ATOM     18  N   UNL     1      39.771 -24.685 -14.795  0.00  0.00    -0.315 N 
ATOM     19  C   UNL     1      37.874 -25.721 -14.073  0.00  0.00    +0.060 C 
ATOM     20  C   UNL     1      35.684 -24.790 -14.081  0.00  0.00    +0.059 C 
ATOM     21  C   UNL     1      38.412 -24.560 -14.621  0.00  0.00    +0.059 C 
ATOM     22  C   UNL     1      36.517 -25.875 -13.788  0.00  0.00    +0.031 C 
ATOM     23  C   UNL     1      36.194 -23.613 -14.630  0.00  0.00    +0.017 C 
ATOM     24  C   UNL     1      37.560 -23.479 -14.908  0.00  0.00    +0.017 C 
ATOM     25  C   UNL     1      40.060 -25.892 -14.364  0.00  0.00    +0.182 C 
ATOM     26  H   UNL     1      38.928 -27.470 -13.555  0.00  0.00    +0.148 HD
ATOM     27  H   UNL     1      40.392 -24.015 -15.162  0.00  0.00    +0.148 HD
ENDBRANCH   5  20
BRANCH   7  28
ATOM     28  C   UNL     1      35.160 -20.319 -20.971  0.00  0.00    +0.037 C 
ATOM     29  C   UNL     1      36.295 -19.349 -20.833  0.00  0.00    +0.006 C 
ATOM     30  C   UNL     1      34.897 -18.843 -21.036  0.00  0.00    +0.006 C 
ENDBRANCH   7  28
TORSDOF 2
ENDMDL
MODEL 2
REMARK VINA RESULT:     -11.2      1.984      6.811
REMARK  Name = 42627755
REMARK  2 active torsions:
REMARK  status: ('A' for Active; 'I' for Inactive)
REMARK    1  A    between atoms: N_5  and  C_20
REMARK    2  A    between atoms: C_7  and  C_28
REMARK                            x       y       z     vdW  Elec       q    Type
REMARK                         _______ _______ _______ _____ _____    ______ ____
ROOT
ATOM      1  N   UNL     1      30.928 -22.934 -16.518  0.00  0.00    -0.239 N 
ATOM      2  N   UNL     1      32.236 -22.976 -16.218  0.00  0.00    -0.166 NA
ATOM      3  N   UNL     1      33.406 -23.927 -14.297  0.00  0.00    -0.271 N 
ATOM      4  N   UNL     1      35.160 -23.025 -15.631  0.00  0.00    -0.322 NA
ATOM      5  N   UNL     1      36.917 -22.153 -16.910  0.00  0.00    -0.247 N 
ATOM      6  N   UNL     1      37.446 -23.218 -14.893  0.00  0.00    -0.170 NA
ATOM      7  C   UNL     1      30.128 -23.524 -15.583  0.00  0.00    +0.045 C 
ATOM      8  C   UNL     1      30.974 -23.985 -14.604  0.00  0.00    +0.048 C 
ATOM      9  C   UNL     1      32.259 -23.619 -15.047  0.00  0.00    +0.152 C 
ATOM     10  C   UNL     1      34.783 -23.678 -14.512  0.00  0.00    +0.199 C 
ATOM     11  C   UNL     1      35.667 -24.126 -13.552  0.00  0.00    +0.070 C 
ATOM     12  C   UNL     1      36.488 -22.832 -15.756  0.00  0.00    +0.150 C 
ATOM     13  C   UNL     1      36.999 -23.865 -13.796  0.00  0.00    +0.116 C 
ATOM     14  H   UNL     1      30.577 -22.515 -17.338  0.00  0.00    +0.174 HD
ATOM     15  H   UNL     1      33.215 -24.408 -13.460  0.00  0.00    +0.156 HD
ATOM     16  H   UNL     1      37.893 -22.035 -16.960  0.00  0.00    +0.165 HD
ENDROOT
BRANCH   5  20
ATOM     17  N   UNL     1      36.347 -19.116 -20.767  0.00  0.00    -0.315 N 
ATOM     18  N   UNL     1      34.329 -19.890 -21.284  0.00  0.00    -0.315 N 
ATOM     19  C   UNL     1      36.081 -20.091 -19.841  0.00  0.00    +0.060 C 
ATOM     20  C   UNL     1      36.220 -21.609 -18.014  0.00  0.00    +0.059 C 
ATOM     21  C   UNL     1      34.816 -20.559 -20.185  0.00  0.00    +0.059 C 
ATOM     22  C   UNL     1      36.815 -20.589 -18.764  0.00  0.00    +0.031 C 
ATOM     23  C   UNL     1      34.953 -22.100 -18.334  0.00  0.00    +0.017 C 
ATOM     24  C   UNL     1      34.234 -21.585 -19.421  0.00  0.00    +0.017 C 
ATOM     25  C   UNL     1      35.271 -19.033 -21.607  0.00  0.00    +0.182 C 
ATOM     26  H   UNL     1      37.166 -18.573 -20.819  0.00  0.00    +0.148 HD
ATOM     27  H   UNL     1      33.463 -20.025 -21.733  0.00  0.00    +0.148 HD
ENDBRANCH   5  20
BRANCH   7  28
ATOM     28  C   UNL     1      28.611 -23.642 -15.626  0.00  0.00    +0.037 C 
ATOM     29  C   UNL     1      27.857 -22.877 -16.673  0.00  0.00    +0.006 C 
ATOM     30  C   UNL     1      27.784 -22.451 -15.236  0.00  0.00    +0.006 C 
ENDBRANCH   7  28
TORSDOF 2
ENDMDL
MODEL 3
REMARK VINA RESULT:     -11.1      1.375      6.646
REMARK  Name = 42627755
REMARK  2 active torsions:
REMARK  status: ('A' for Active; 'I' for Inactive)
REMARK    1  A    between atoms: N_5  and  C_20
REMARK    2  A    between atoms: C_7  and  C_28
REMARK                            x       y       z     vdW  Elec       q    Type
REMARK                         _______ _______ _______ _____ _____    ______ ____
ROOT
ATOM      1  N   UNL     1      37.358 -24.017 -15.092  0.00  0.00    -0.239 N 
ATOM      2  N   UNL     1      36.029 -23.894 -15.242  0.00  0.00    -0.166 NA
ATOM      3  N   UNL     1      34.183 -24.729 -13.880  0.00  0.00    -0.271 N 
ATOM      4  N   UNL     1      33.092 -23.572 -15.652  0.00  0.00    -0.322 NA
ATOM      5  N   UNL     1      31.978 -22.445 -17.376  0.00  0.00    -0.247 N 
ATOM      6  N   UNL     1      30.685 -23.479 -15.720  0.00  0.00    -0.170 NA
ATOM      7  C   UNL     1      37.725 -24.731 -13.989  0.00  0.00    +0.045 C 
ATOM      8  C   UNL     1      36.553 -25.101 -13.376  0.00  0.00    +0.048 C 
ATOM      9  C   UNL     1      35.542 -24.559 -14.190  0.00  0.00    +0.152 C 
ATOM     10  C   UNL     1      32.995 -24.297 -14.518  0.00  0.00    +0.199 C 
ATOM     11  C   UNL     1      31.796 -24.646 -13.933  0.00  0.00    +0.070 C 
ATOM     12  C   UNL     1      31.915 -23.202 -16.192  0.00  0.00    +0.150 C 
ATOM     13  C   UNL     1      30.662 -24.207 -14.584  0.00  0.00    +0.116 C 
ATOM     14  H   UNL     1      38.009 -23.626 -15.720  0.00  0.00    +0.174 HD
ATOM     15  H   UNL     1      34.026 -25.250 -13.060  0.00  0.00    +0.156 HD
ATOM     16  H   UNL     1      31.095 -22.197 -17.735  0.00  0.00    +0.165 HD
ENDROOT
BRANCH   5  20
ATOM     17  N   UNL     1      34.066 -19.689 -20.906  0.00  0.00    -0.315 N 
ATOM     18  N   UNL     1      36.114 -20.463 -20.525  0.00  0.00    -0.315 N 
ATOM     19  C   UNL     1      33.932 -20.588 -19.881  0.00  0.00    +0.060 C 
ATOM     20  C   UNL     1      33.062 -21.971 -18.151  0.00  0.00    +0.059 C 
ATOM     21  C   UNL     1      35.223 -21.058 -19.661  0.00  0.00    +0.059 C 
ATOM     22  C   UNL     1      32.825 -21.019 -19.149  0.00  0.00    +0.031 C 
ATOM     23  C   UNL     1      34.345 -22.461 -17.907  0.00  0.00    +0.017 C 
ATOM     24  C   UNL     1      35.442 -22.014 -18.654  0.00  0.00    +0.017 C 
ATOM     25  C   UNL     1      35.387 -19.649 -21.257  0.00  0.00    +0.182 C 
ATOM     26  H   UNL     1      33.341 -19.165 -21.318  0.00  0.00    +0.148 HD
ATOM     27  H   UNL     1      37.085 -20.615 -20.582  0.00  0.00    +0.148 HD
ENDBRANCH   5  20
BRANCH   7  28
ATOM     28  C   UNL     1      39.145 -25.049 -13.540  0.00  0.00    +0.037 C 
ATOM     29  C   UNL     1      40.218 -25.179 -14.580  0.00  0.00    +0.006 C 
ATOM     30  C   UNL     1      39.718 -26.398 -13.863  0.00  0.00    +0.006 C 
ENDBRANCH   7  28
TORSDOF 2
ENDMDL
MODEL 4
REMARK VINA RESULT:     -11.1      1.923      5.571
REMARK  Name = 42627755
REMARK  2 active torsions:
REMARK  status: ('A' for Active; 'I' for Inactive)
REMARK    1  A    between atoms: N_5  and  C_20
REMARK    2  A    between atoms: C_7  and  C_28
REMARK                            x       y       z     vdW  Elec       q    Type
REMARK                         _______ _______ _______ _____ _____    ______ ____
ROOT
ATOM      1  N   UNL     1      34.077 -22.020 -18.410  0.00  0.00    -0.239 N 
ATOM      2  N   UNL     1      34.387 -22.517 -17.201  0.00  0.00    -0.166 NA
ATOM      3  N   UNL     1      36.526 -22.664 -16.034  0.00  0.00    -0.271 N 
ATOM      4  N   UNL     1      34.985 -23.641 -14.504  0.00  0.00    -0.322 NA
ATOM      5  N   UNL     1      33.505 -24.609 -12.969  0.00  0.00    -0.247 N 
ATOM      6  N   UNL     1      35.767 -24.470 -12.381  0.00  0.00    -0.170 NA
ATOM      7  C   UNL     1      35.147 -21.517 -19.091  0.00  0.00    +0.045 C 
ATOM      8  C   UNL     1      36.232 -21.697 -18.267  0.00  0.00    +0.048 C 
ATOM      9  C   UNL     1      35.705 -22.317 -17.120  0.00  0.00    +0.152 C 
ATOM     10  C   UNL     1      36.254 -23.282 -14.789  0.00  0.00    +0.199 C 
ATOM     11  C   UNL     1      37.317 -23.481 -13.933  0.00  0.00    +0.070 C 
ATOM     12  C   UNL     1      34.815 -24.221 -13.300  0.00  0.00    +0.150 C 
ATOM     13  C   UNL     1      37.012 -24.086 -12.731  0.00  0.00    +0.116 C 
ATOM     14  H   UNL     1      33.161 -22.018 -18.773  0.00  0.00    +0.174 HD
ATOM     15  H   UNL     1      37.473 -22.433 -16.164  0.00  0.00    +0.156 HD
ATOM     16  H   UNL     1      33.428 -25.028 -12.082  0.00  0.00    +0.165 HD
ENDROOT
BRANCH   5  20
ATOM     17  N   UNL     1      30.359 -22.612 -16.216  0.00  0.00    -0.315 N 
ATOM     18  N   UNL     1      28.741 -24.075 -15.792  0.00  0.00    -0.315 N 
ATOM     19  C   UNL     1      30.866 -23.451 -15.258  0.00  0.00    +0.060 C 
ATOM     20  C   UNL     1      32.276 -24.514 -13.663  0.00  0.00    +0.059 C 
ATOM     21  C   UNL     1      29.837 -24.355 -15.010  0.00  0.00    +0.059 C 
ATOM     22  C   UNL     1      32.099 -23.496 -14.606  0.00  0.00    +0.031 C 
ATOM     23  C   UNL     1      31.263 -25.436 -13.392  0.00  0.00    +0.017 C 
ATOM     24  C   UNL     1      30.033 -25.372 -14.060  0.00  0.00    +0.017 C 
ATOM     25  C   UNL     1      29.087 -23.025 -16.502  0.00  0.00    +0.182 C 
ATOM     26  H   UNL     1      30.827 -21.848 -16.625  0.00  0.00    +0.148 HD
ATOM     27  H   UNL     1      27.882 -24.557 -15.816  0.00  0.00    +0.148 HD
ENDBRANCH   5  20
BRANCH   7  28
ATOM     28  C   UNL     1      35.131 -20.887 -20.477  0.00  0.00    +0.037 C 
ATOM     29  C   UNL     1      35.788 -19.552 -20.670  0.00  0.00    +0.006 C 
ATOM     30  C   UNL     1      34.291 -19.664 -20.703  0.00  0.00    +0.006 C 
ENDBRANCH   7  28
TORSDOF 2
ENDMDL
MODEL 5
REMARK VINA RESULT:     -11.0      1.807      5.428
REMARK  Name = 42627755
REMARK  2 active torsions:
REMARK  status: ('A' for Active; 'I' for Inactive)
REMARK    1  A    between atoms: N_5  and  C_20
REMARK    2  A    between atoms: C_7  and  C_28
REMARK                            x       y       z     vdW  Elec       q    Type
REMARK                         _______ _______ _______ _____ _____    ______ ____
ROOT
ATOM      1  N   UNL     1      34.407 -21.826 -18.399  0.00  0.00    -0.239 N 
ATOM      2  N   UNL     1      34.800 -22.375 -17.238  0.00  0.00    -0.166 NA
ATOM      3  N   UNL     1      37.029 -22.705 -16.299  0.00  0.00    -0.271 N 
ATOM      4  N   UNL     1      35.583 -23.607 -14.637  0.00  0.00    -0.322 NA
ATOM      5  N   UNL     1      34.198 -24.506 -12.976  0.00  0.00    -0.247 N 
ATOM      6  N   UNL     1      36.512 -24.544 -12.621  0.00  0.00    -0.170 NA
ATOM      7  C   UNL     1      35.437 -21.384 -19.177  0.00  0.00    +0.045 C 
ATOM      8  C   UNL     1      36.584 -21.662 -18.473  0.00  0.00    +0.048 C 
ATOM      9  C   UNL     1      36.131 -22.273 -17.288  0.00  0.00    +0.152 C 
ATOM     10  C   UNL     1      36.840 -23.333 -15.045  0.00  0.00    +0.199 C 
ATOM     11  C   UNL     1      37.966 -23.630 -14.306  0.00  0.00    +0.070 C 
ATOM     12  C   UNL     1      35.494 -24.205 -13.433  0.00  0.00    +0.150 C 
ATOM     13  C   UNL     1      37.741 -24.242 -13.090  0.00  0.00    +0.116 C 
ATOM     14  H   UNL     1      33.462 -21.749 -18.666  0.00  0.00    +0.174 HD
ATOM     15  H   UNL     1      37.973 -22.539 -16.521  0.00  0.00    +0.156 HD
ATOM     16  H   UNL     1      34.181 -24.941 -12.093  0.00  0.00    +0.165 HD
ENDROOT
BRANCH   5  20
ATOM     17  N   UNL     1      29.513 -25.741 -13.950  0.00  0.00    -0.315 N 
ATOM     18  N   UNL     1      29.097 -23.892 -15.111  0.00  0.00    -0.315 N 
ATOM     19  C   UNL     1      30.682 -25.026 -13.930  0.00  0.00    +0.060 C 
ATOM     20  C   UNL     1      32.916 -24.305 -13.538  0.00  0.00    +0.059 C 
ATOM     21  C   UNL     1      30.398 -23.877 -14.661  0.00  0.00    +0.059 C 
ATOM     22  C   UNL     1      31.927 -25.278 -13.353  0.00  0.00    +0.031 C 
ATOM     23  C   UNL     1      32.661 -23.142 -14.266  0.00  0.00    +0.017 C 
ATOM     24  C   UNL     1      31.403 -22.910 -14.837  0.00  0.00    +0.017 C 
ATOM     25  C   UNL     1      28.597 -25.023 -14.667  0.00  0.00    +0.182 C 
ATOM     26  H   UNL     1      29.360 -26.615 -13.524  0.00  0.00    +0.148 HD
ATOM     27  H   UNL     1      28.641 -23.205 -15.648  0.00  0.00    +0.148 HD
ENDBRANCH   5  20
BRANCH   7  28
ATOM     28  C   UNL     1      35.328 -20.719 -20.542  0.00  0.00    +0.037 C 
ATOM     29  C   UNL     1      36.006 -19.399 -20.758  0.00  0.00    +0.006 C 
ATOM     30  C   UNL     1      34.509 -19.468 -20.671  0.00  0.00    +0.006 C 
ENDBRANCH   7  28
TORSDOF 2
ENDMDL
MODEL 6
REMARK VINA RESULT:     -10.7      1.923      6.698
REMARK  Name = 42627755
REMARK  2 active torsions:
REMARK  status: ('A' for Active; 'I' for Inactive)
REMARK    1  A    between atoms: N_5  and  C_20
REMARK    2  A    between atoms: C_7  and  C_28
REMARK                            x       y       z     vdW  Elec       q    Type
REMARK                         _______ _______ _______ _____ _____    ______ ____
ROOT
ATOM      1  N   UNL     1      30.889 -23.073 -16.121  0.00  0.00    -0.239 N 
ATOM      2  N   UNL     1      32.201 -23.185 -15.860  0.00  0.00    -0.166 NA
ATOM      3  N   UNL     1      33.378 -24.276 -14.020  0.00  0.00    -0.271 N 
ATOM      4  N   UNL     1      35.135 -23.386 -15.359  0.00  0.00    -0.322 NA
ATOM      5  N   UNL     1      36.894 -22.528 -16.645  0.00  0.00    -0.247 N 
ATOM      6  N   UNL     1      37.429 -23.710 -14.696  0.00  0.00    -0.170 NA
ATOM      7  C   UNL     1      30.089 -23.673 -15.193  0.00  0.00    +0.045 C 
ATOM      8  C   UNL     1      30.940 -24.216 -14.261  0.00  0.00    +0.048 C 
ATOM      9  C   UNL     1      32.227 -23.884 -14.721  0.00  0.00    +0.152 C 
ATOM     10  C   UNL     1      34.759 -24.075 -14.262  0.00  0.00    +0.199 C 
ATOM     11  C   UNL     1      35.648 -24.605 -13.349  0.00  0.00    +0.070 C 
ATOM     12  C   UNL     1      36.466 -23.242 -15.512  0.00  0.00    +0.150 C 
ATOM     13  C   UNL     1      36.983 -24.389 -13.619  0.00  0.00    +0.116 C 
ATOM     14  H   UNL     1      30.535 -22.601 -16.910  0.00  0.00    +0.174 HD
ATOM     15  H   UNL     1      33.189 -24.788 -13.202  0.00  0.00    +0.156 HD
ATOM     16  H   UNL     1      37.872 -22.448 -16.717  0.00  0.00    +0.165 HD
ENDROOT
BRANCH   5  20
ATOM     17  N   UNL     1      32.878 -21.482 -19.329  0.00  0.00    -0.315 N 
ATOM     18  N   UNL     1      33.969 -20.157 -20.741  0.00  0.00    -0.315 N 
ATOM     19  C   UNL     1      34.181 -21.487 -18.903  0.00  0.00    +0.060 C 
ATOM     20  C   UNL     1      36.193 -21.902 -17.702  0.00  0.00    +0.059 C 
ATOM     21  C   UNL     1      34.842 -20.653 -19.800  0.00  0.00    +0.059 C 
ATOM     22  C   UNL     1      34.819 -22.130 -17.842  0.00  0.00    +0.031 C 
ATOM     23  C   UNL     1      36.883 -21.071 -18.586  0.00  0.00    +0.017 C 
ATOM     24  C   UNL     1      36.222 -20.436 -19.644  0.00  0.00    +0.017 C 
ATOM     25  C   UNL     1      32.802 -20.674 -20.430  0.00  0.00    +0.182 C 
ATOM     26  H   UNL     1      32.131 -21.972 -18.917  0.00  0.00    +0.148 HD
ATOM     27  H   UNL     1      34.175 -19.547 -21.486  0.00  0.00    +0.148 HD
ENDBRANCH   5  20
BRANCH   7  28
ATOM     28  C   UNL     1      28.567 -23.725 -15.198  0.00  0.00    +0.037 C 
ATOM     29  C   UNL     1      27.829 -23.120 -16.355  0.00  0.00    +0.006 C 
ATOM     30  C   UNL     1      27.802 -22.447 -15.014  0.00  0.00    +0.006 C 
ENDBRANCH   7  28
TORSDOF 2
ENDMDL
MODEL 7
REMARK VINA RESULT:     -10.3      1.753      6.971
REMARK  Name = 42627755
REMARK  2 active torsions:
REMARK  status: ('A' for Active; 'I' for Inactive)
REMARK    1  A    between atoms: N_5  and  C_20
REMARK    2  A    between atoms: C_7  and  C_28
REMARK                            x       y       z     vdW  Elec       q    Type
REMARK                         _______ _______ _______ _____ _____    ______ ____
ROOT
ATOM      1  N   UNL     1      31.492 -23.179 -15.748  0.00  0.00    -0.239 N 
ATOM      2  N   UNL     1      32.831 -23.195 -15.647  0.00  0.00    -0.166 NA
ATOM      3  N   UNL     1      34.295 -24.167 -13.952  0.00  0.00    -0.271 N 
ATOM      4  N   UNL     1      35.811 -23.183 -15.503  0.00  0.00    -0.322 NA
ATOM      5  N   UNL     1      37.337 -22.229 -17.002  0.00  0.00    -0.247 N 
ATOM      6  N   UNL     1      38.185 -23.335 -15.120  0.00  0.00    -0.170 NA
ATOM      7  C   UNL     1      30.854 -23.816 -14.724  0.00  0.00    +0.045 C 
ATOM      8  C   UNL     1      31.847 -24.282 -13.897  0.00  0.00    +0.048 C 
ATOM      9  C   UNL     1      33.043 -23.869 -14.513  0.00  0.00    +0.152 C 
ATOM     10  C   UNL     1      35.619 -23.876 -14.362  0.00  0.00    +0.199 C 
ATOM     11  C   UNL     1      36.646 -24.326 -13.558  0.00  0.00    +0.070 C 
ATOM     12  C   UNL     1      37.100 -22.950 -15.818  0.00  0.00    +0.150 C 
ATOM     13  C   UNL     1      37.921 -24.023 -13.990  0.00  0.00    +0.116 C 
ATOM     14  H   UNL     1      31.014 -22.748 -16.493  0.00  0.00    +0.174 HD
ATOM     15  H   UNL     1      34.242 -24.676 -13.112  0.00  0.00    +0.156 HD
ATOM     16  H   UNL     1      38.292 -22.083 -17.192  0.00  0.00    +0.165 HD
ENDROOT
BRANCH   5  20
ATOM     17  N   UNL     1      32.981 -21.584 -19.244  0.00  0.00    -0.315 N 
ATOM     18  N   UNL     1      33.782 -20.150 -20.742  0.00  0.00    -0.315 N 
ATOM     19  C   UNL     1      34.314 -21.459 -18.954  0.00  0.00    +0.060 C 
ATOM     20  C   UNL     1      36.471 -21.674 -17.972  0.00  0.00    +0.059 C 
ATOM     21  C   UNL     1      34.793 -20.559 -19.903  0.00  0.00    +0.059 C 
ATOM     22  C   UNL     1      35.121 -22.038 -17.974  0.00  0.00    +0.031 C 
ATOM     23  C   UNL     1      36.980 -20.774 -18.910  0.00  0.00    +0.017 C 
ATOM     24  C   UNL     1      36.152 -20.204 -19.886  0.00  0.00    +0.017 C 
ATOM     25  C   UNL     1      32.711 -20.783 -20.320  0.00  0.00    +0.182 C 
ATOM     26  H   UNL     1      32.333 -22.148 -18.765  0.00  0.00    +0.148 HD
ATOM     27  H   UNL     1      33.847 -19.520 -21.496  0.00  0.00    +0.148 HD
ENDBRANCH   5  20
BRANCH   7  28
ATOM     28  C   UNL     1      29.351 -23.974 -14.545  0.00  0.00    +0.037 C 
ATOM     29  C   UNL     1      28.792 -25.346 -14.312  0.00  0.00    +0.006 C 
ATOM     30  C   UNL     1      28.564 -24.657 -15.625  0.00  0.00    +0.006 C 
ENDBRANCH   7  28
TORSDOF 2
ENDMDL
MODEL 8
REMARK VINA RESULT:     -10.0      1.917      5.414
REMARK  Name = 42627755
REMARK  2 active torsions:
REMARK  status: ('A' for Active; 'I' for Inactive)
REMARK    1  A    between atoms: N_5  and  C_20
REMARK    2  A    between atoms: C_7  and  C_28
REMARK                            x       y       z     vdW  Elec       q    Type
REMARK                         _______ _______ _______ _____ _____    ______ ____
ROOT
ATOM      1  N   UNL     1      31.784 -23.919 -14.773  0.00  0.00    -0.239 N 
ATOM      2  N   UNL     1      32.855 -23.479 -15.453  0.00  0.00    -0.166 NA
ATOM      3  N   UNL     1      33.031 -22.402 -17.637  0.00  0.00    -0.271 N 
ATOM      4  N   UNL     1      35.289 -22.529 -16.892  0.00  0.00    -0.322 NA
ATOM      5  N   UNL     1      37.524 -22.634 -16.200  0.00  0.00    -0.247 N 
ATOM      6  N   UNL     1      37.060 -21.671 -18.284  0.00  0.00    -0.170 NA
ATOM      7  C   UNL     1      30.601 -23.726 -15.424  0.00  0.00    +0.045 C 
ATOM      8  C   UNL     1      30.922 -23.117 -16.612  0.00  0.00    +0.048 C 
ATOM      9  C   UNL     1      32.323 -22.990 -16.577  0.00  0.00    +0.152 C 
ATOM     10  C   UNL     1      34.410 -22.158 -17.846  0.00  0.00    +0.199 C 
ATOM     11  C   UNL     1      34.775 -21.547 -19.028  0.00  0.00    +0.070 C 
ATOM     12  C   UNL     1      36.579 -22.260 -17.172  0.00  0.00    +0.150 C 
ATOM     13  C   UNL     1      36.126 -21.327 -19.195  0.00  0.00    +0.116 C 
ATOM     14  H   UNL     1      31.846 -24.341 -13.885  0.00  0.00    +0.174 HD
ATOM     15  H   UNL     1      32.458 -22.101 -18.378  0.00  0.00    +0.156 HD
ATOM     16  H   UNL     1      38.452 -22.417 -16.446  0.00  0.00    +0.165 HD
ENDROOT
BRANCH   5  20
ATOM     17  N   UNL     1      35.439 -23.389 -11.784  0.00  0.00    -0.315 N 
ATOM     18  N   UNL     1      36.880 -24.974 -11.194  0.00  0.00    -0.315 N 
ATOM     19  C   UNL     1      36.297 -23.516 -12.845  0.00  0.00    +0.060 C 
ATOM     20  C   UNL     1      37.400 -23.258 -14.937  0.00  0.00    +0.059 C 
ATOM     21  C   UNL     1      37.187 -24.511 -12.453  0.00  0.00    +0.059 C 
ATOM     22  C   UNL     1      36.369 -22.865 -14.077  0.00  0.00    +0.031 C 
ATOM     23  C   UNL     1      38.308 -24.253 -14.573  0.00  0.00    +0.017 C 
ATOM     24  C   UNL     1      38.217 -24.894 -13.330  0.00  0.00    +0.017 C 
ATOM     25  C   UNL     1      35.828 -24.280 -10.823  0.00  0.00    +0.182 C 
ATOM     26  H   UNL     1      34.678 -22.767 -11.724  0.00  0.00    +0.148 HD
ATOM     27  H   UNL     1      37.347 -25.674 -10.683  0.00  0.00    +0.148 HD
ENDBRANCH   5  20
BRANCH   7  28
ATOM     28  C   UNL     1      29.214 -24.112 -14.927  0.00  0.00    +0.037 C 
ATOM     29  C   UNL     1      28.134 -24.375 -15.934  0.00  0.00    +0.006 C 
ATOM     30  C   UNL     1      28.090 -23.131 -15.095  0.00  0.00    +0.006 C 
ENDBRANCH   7  28
TORSDOF 2
ENDMDL
MODEL 9
REMARK VINA RESULT:      -9.9      1.798      6.972
REMARK  Name = 42627755
REMARK  2 active torsions:
REMARK  status: ('A' for Active; 'I' for Inactive)
REMARK    1  A    between atoms: N_5  and  C_20
REMARK    2  A    between atoms: C_7  and  C_28
REMARK                            x       y       z     vdW  Elec       q    Type
REMARK                         _______ _______ _______ _____ _____    ______ ____
ROOT
ATOM      1  N   UNL     1      36.253 -24.136 -13.821  0.00  0.00    -0.239 N 
ATOM      2  N   UNL     1      35.686 -23.580 -14.905  0.00  0.00    -0.166 NA
ATOM      3  N   UNL     1      36.684 -22.506 -16.857  0.00  0.00    -0.271 N 
ATOM      4  N   UNL     1      34.344 -22.368 -17.277  0.00  0.00    -0.322 NA
ATOM      5  N   UNL     1      32.052 -22.210 -17.730  0.00  0.00    -0.247 N 
ATOM      6  N   UNL     1      33.549 -21.323 -19.297  0.00  0.00    -0.170 NA
ATOM      7  C   UNL     1      37.616 -24.084 -13.824  0.00  0.00    +0.045 C 
ATOM      8  C   UNL     1      37.964 -23.450 -14.992  0.00  0.00    +0.048 C 
ATOM      9  C   UNL     1      36.737 -23.162 -15.616  0.00  0.00    +0.152 C 
ATOM     10  C   UNL     1      35.605 -22.106 -17.682  0.00  0.00    +0.199 C 
ATOM     11  C   UNL     1      35.912 -21.466 -18.864  0.00  0.00    +0.070 C 
ATOM     12  C   UNL     1      33.379 -21.954 -18.121  0.00  0.00    +0.150 C 
ATOM     13  C   UNL     1      34.834 -21.092 -19.640  0.00  0.00    +0.116 C 
ATOM     14  H   UNL     1      35.733 -24.545 -13.092  0.00  0.00    +0.174 HD
ATOM     15  H   UNL     1      37.569 -22.279 -17.224  0.00  0.00    +0.156 HD
ATOM     16  H   UNL     1      31.381 -21.892 -18.376  0.00  0.00    +0.165 HD
ENDROOT
BRANCH   5  20
ATOM     17  N   UNL     1      32.208 -24.970 -13.634  0.00  0.00    -0.315 N 
ATOM     18  N   UNL     1      30.039 -24.747 -13.207  0.00  0.00    -0.315 N 
ATOM     19  C   UNL     1      31.716 -24.184 -14.643  0.00  0.00    +0.060 C 
ATOM     20  C   UNL     1      31.495 -22.836 -16.591  0.00  0.00    +0.059 C 
ATOM     21  C   UNL     1      30.360 -24.059 -14.354  0.00  0.00    +0.059 C 
ATOM     22  C   UNL     1      32.321 -23.590 -15.751  0.00  0.00    +0.031 C 
ATOM     23  C   UNL     1      30.131 -22.692 -16.328  0.00  0.00    +0.017 C 
ATOM     24  C   UNL     1      29.545 -23.298 -15.210  0.00  0.00    +0.017 C 
ATOM     25  C   UNL     1      31.168 -25.282 -12.802  0.00  0.00    +0.182 C 
ATOM     26  H   UNL     1      33.143 -25.260 -13.527  0.00  0.00    +0.148 HD
ATOM     27  H   UNL     1      29.154 -24.822 -12.781  0.00  0.00    +0.148 HD
ENDBRANCH   5  20
BRANCH   7  28
ATOM     28  C   UNL     1      38.551 -24.621 -12.748  0.00  0.00    +0.037 C 
ATOM     29  C   UNL     1      39.414 -25.806 -13.069  0.00  0.00    +0.006 C 
ATOM     30  C   UNL     1      38.249 -25.957 -12.134  0.00  0.00    +0.006 C 
ENDBRANCH   7  28
TORSDOF 2
ENDMDL
