MODEL 1
REMARK VINA RESULT:     -10.9      0.000      0.000
REMARK  Name = 10089048
REMARK  4 active torsions:
REMARK  status: ('A' for Active; 'I' for Inactive)
REMARK    1  A    between atoms: C_1  and  C_23
REMARK    2  A    between atoms: C_3  and  C_8
REMARK    3  A    between atoms: C_12  and  C_18
REMARK    4  A    between atoms: N_22  and  C_25
REMARK                            x       y       z     vdW  Elec       q    Type
REMARK                         _______ _______ _______ _____ _____    ______ ____
ROOT
ATOM      1  C   UNL     1      34.835 -21.095 -19.529  0.00  0.00    +0.053 C 
ATOM      2  C   UNL     1      34.510 -19.943 -20.244  0.00  0.00    +0.004 C 
ATOM      3  C   UNL     1      35.521 -19.160 -20.803  0.00  0.00    -0.004 C 
ATOM      4  C   UNL     1      36.172 -21.464 -19.371  0.00  0.00    +0.004 C 
ATOM      5  C   UNL     1      36.856 -19.529 -20.645  0.00  0.00    -0.022 C 
ATOM      6  C   UNL     1      37.182 -20.681 -19.930  0.00  0.00    -0.004 C 
ATOM      7  C   UNL     1      37.966 -18.715 -21.229  0.00  0.00    +0.031 C 
ENDROOT
BRANCH   3   8
ATOM      8  C   UNL     1      35.156 -17.968 -21.542  0.00  0.00    -0.004 C 
ATOM      9  C   UNL     1      34.856 -18.028 -22.903  0.00  0.00    -0.022 C 
ATOM     10  C   UNL     1      35.108 -16.746 -20.871  0.00  0.00    -0.000 C 
ATOM     11  C   UNL     1      34.507 -16.867 -23.592  0.00  0.00    +0.000 C 
ATOM     12  C   UNL     1      34.459 -15.645 -22.921  0.00  0.00    +0.055 C 
ATOM     13  C   UNL     1      34.759 -15.585 -21.560  0.00  0.00    +0.005 C 
ATOM     14  C   UNL     1      34.898 -19.320 -23.655  0.00  0.00    +0.031 C 
BRANCH  12  18
ATOM     15  O   UNL     1      34.361 -13.277 -22.989  0.00  0.00    -0.420 OA
ATOM     16  N   UNL     1      33.552 -14.294 -24.811  0.00  0.00    -0.107 NA
ATOM     17  N   UNL     1      33.429 -12.929 -24.993  0.00  0.00    -0.111 NA
ATOM     18  C   UNL     1      34.099 -14.443 -23.633  0.00  0.00    +0.250 A 
ATOM     19  C   UNL     1      33.914 -12.376 -23.905  0.00  0.00    +0.227 A 
ATOM     20  C   UNL     1      34.036 -10.956 -23.552  0.00  0.00    +0.097 C 
ENDBRANCH  12  18
ENDBRANCH   3   8
BRANCH   1  23
ATOM     21  O   UNL     1      32.673 -22.005 -19.498  0.00  0.00    -0.270 OA
ATOM     22  N   UNL     1      34.076 -22.563 -17.741  0.00  0.00    -0.302 N 
ATOM     23  C   UNL     1      33.784 -21.913 -18.946  0.00  0.00    +0.246 C 
ATOM     24  H   UNL     1      34.975 -22.450 -17.354  0.00  0.00    +0.150 HD
BRANCH  22  25
ATOM     25  C   UNL     1      33.132 -23.387 -17.039  0.00  0.00    +0.072 C 
ATOM     26  C   UNL     1      31.984 -22.776 -16.304  0.00  0.00    +0.021 C 
ATOM     27  C   UNL     1      33.109 -23.418 -15.546  0.00  0.00    +0.021 C 
ENDBRANCH  22  25
ENDBRANCH   1  23
TORSDOF 4
ENDMDL
MODEL 2
REMARK VINA RESULT:     -10.8      1.548      8.918
REMARK  Name = 10089048
REMARK  4 active torsions:
REMARK  status: ('A' for Active; 'I' for Inactive)
REMARK    1  A    between atoms: C_1  and  C_23
REMARK    2  A    between atoms: C_3  and  C_8
REMARK    3  A    between atoms: C_12  and  C_18
REMARK    4  A    between atoms: N_22  and  C_25
REMARK                            x       y       z     vdW  Elec       q    Type
REMARK                         _______ _______ _______ _____ _____    ______ ____
ROOT
ATOM      1  C   UNL     1      34.700 -16.035 -22.553  0.00  0.00    +0.053 C 
ATOM      2  C   UNL     1      34.674 -17.046 -21.593  0.00  0.00    +0.004 C 
ATOM      3  C   UNL     1      34.730 -18.383 -21.988  0.00  0.00    -0.004 C 
ATOM      4  C   UNL     1      34.782 -16.360 -23.907  0.00  0.00    +0.004 C 
ATOM      5  C   UNL     1      34.812 -18.708 -23.341  0.00  0.00    -0.022 C 
ATOM      6  C   UNL     1      34.839 -17.697 -24.301  0.00  0.00    -0.004 C 
ATOM      7  C   UNL     1      34.874 -20.129 -23.801  0.00  0.00    +0.031 C 
ENDROOT
BRANCH   3   8
ATOM      8  C   UNL     1      34.701 -19.415 -20.970  0.00  0.00    -0.004 C 
ATOM      9  C   UNL     1      35.874 -19.853 -20.356  0.00  0.00    -0.022 C 
ATOM     10  C   UNL     1      33.475 -19.973 -20.609  0.00  0.00    -0.000 C 
ATOM     11  C   UNL     1      35.821 -20.848 -19.379  0.00  0.00    +0.000 C 
ATOM     12  C   UNL     1      34.594 -21.405 -19.017  0.00  0.00    +0.055 C 
ATOM     13  C   UNL     1      33.421 -20.967 -19.632  0.00  0.00    +0.005 C 
ATOM     14  C   UNL     1      37.207 -19.280 -20.718  0.00  0.00    +0.031 C 
BRANCH  12  18
ATOM     15  O   UNL     1      35.455 -22.334 -17.013  0.00  0.00    -0.420 OA
ATOM     16  N   UNL     1      33.735 -23.461 -17.896  0.00  0.00    -0.107 NA
ATOM     17  N   UNL     1      34.128 -24.114 -16.743  0.00  0.00    -0.111 NA
ATOM     18  C   UNL     1      34.537 -22.434 -18.008  0.00  0.00    +0.250 A 
ATOM     19  C   UNL     1      35.134 -23.422 -16.262  0.00  0.00    +0.227 A 
ATOM     20  C   UNL     1      35.939 -23.655 -15.056  0.00  0.00    +0.097 C 
ENDBRANCH  12  18
ENDBRANCH   3   8
BRANCH   1  23
ATOM     21  O   UNL     1      34.982 -14.301 -20.997  0.00  0.00    -0.270 OA
ATOM     22  N   UNL     1      34.174 -13.719 -23.089  0.00  0.00    -0.302 N 
ATOM     23  C   UNL     1      34.642 -14.641 -22.144  0.00  0.00    +0.246 C 
ATOM     24  H   UNL     1      33.921 -14.051 -23.981  0.00  0.00    +0.150 HD
BRANCH  22  25
ATOM     25  C   UNL     1      34.042 -12.313 -22.822  0.00  0.00    +0.072 C 
ATOM     26  C   UNL     1      32.902 -11.532 -23.389  0.00  0.00    +0.021 C 
ATOM     27  C   UNL     1      34.298 -11.306 -23.895  0.00  0.00    +0.021 C 
ENDBRANCH  22  25
ENDBRANCH   1  23
TORSDOF 4
ENDMDL
MODEL 3
REMARK VINA RESULT:      -9.7      3.839      6.918
REMARK  Name = 10089048
REMARK  4 active torsions:
REMARK  status: ('A' for Active; 'I' for Inactive)
REMARK    1  A    between atoms: C_1  and  C_23
REMARK    2  A    between atoms: C_3  and  C_8
REMARK    3  A    between atoms: C_12  and  C_18
REMARK    4  A    between atoms: N_22  and  C_25
REMARK                            x       y       z     vdW  Elec       q    Type
REMARK                         _______ _______ _______ _____ _____    ______ ____
ROOT
ATOM      1  C   UNL     1      35.353 -24.572 -14.538  0.00  0.00    +0.053 C 
ATOM      2  C   UNL     1      35.566 -23.769 -15.658  0.00  0.00    +0.004 C 
ATOM      3  C   UNL     1      34.486 -23.148 -16.286  0.00  0.00    -0.004 C 
ATOM      4  C   UNL     1      34.059 -24.755 -14.047  0.00  0.00    +0.004 C 
ATOM      5  C   UNL     1      33.194 -23.332 -15.795  0.00  0.00    -0.022 C 
ATOM      6  C   UNL     1      32.980 -24.135 -14.675  0.00  0.00    -0.004 C 
ATOM      7  C   UNL     1      32.012 -22.683 -16.443  0.00  0.00    +0.031 C 
ENDROOT
BRANCH   3   8
ATOM      8  C   UNL     1      34.734 -22.318 -17.448  0.00  0.00    -0.004 C 
ATOM      9  C   UNL     1      35.976 -21.717 -17.652  0.00  0.00    -0.022 C 
ATOM     10  C   UNL     1      33.705 -22.124 -18.371  0.00  0.00    -0.000 C 
ATOM     11  C   UNL     1      36.190 -20.923 -18.779  0.00  0.00    +0.000 C 
ATOM     12  C   UNL     1      35.162 -20.729 -19.702  0.00  0.00    +0.055 C 
ATOM     13  C   UNL     1      33.920 -21.330 -19.498  0.00  0.00    +0.005 C 
ATOM     14  C   UNL     1      37.101 -21.902 -16.685  0.00  0.00    +0.031 C 
BRANCH  12  18
ATOM     15  O   UNL     1      34.442 -20.005 -21.841  0.00  0.00    -0.420 OA
ATOM     16  N   UNL     1      36.354 -19.076 -21.140  0.00  0.00    -0.107 NA
ATOM     17  N   UNL     1      36.062 -18.564 -22.390  0.00  0.00    -0.111 NA
ATOM     18  C   UNL     1      35.382 -19.907 -20.867  0.00  0.00    +0.250 A 
ATOM     19  C   UNL     1      34.939 -19.134 -22.761  0.00  0.00    +0.227 A 
ATOM     20  C   UNL     1      34.166 -18.964 -23.998  0.00  0.00    +0.097 C 
ENDBRANCH  12  18
ENDBRANCH   3   8
BRANCH   1  23
ATOM     21  O   UNL     1      36.451 -25.448 -12.659  0.00  0.00    -0.270 OA
ATOM     22  N   UNL     1      37.579 -25.547 -14.680  0.00  0.00    -0.302 N 
ATOM     23  C   UNL     1      36.477 -25.219 -13.881  0.00  0.00    +0.246 C 
ATOM     24  H   UNL     1      37.538 -25.339 -15.642  0.00  0.00    +0.150 HD
BRANCH  22  25
ATOM     25  C   UNL     1      38.768 -26.169 -14.168  0.00  0.00    +0.072 C 
ATOM     26  C   UNL     1      39.688 -25.425 -13.257  0.00  0.00    +0.021 C 
ATOM     27  C   UNL     1      40.117 -25.754 -14.657  0.00  0.00    +0.021 C 
ENDBRANCH  22  25
ENDBRANCH   1  23
TORSDOF 4
ENDMDL
MODEL 4
REMARK VINA RESULT:      -9.6      5.451     13.471
REMARK  Name = 10089048
REMARK  4 active torsions:
REMARK  status: ('A' for Active; 'I' for Inactive)
REMARK    1  A    between atoms: C_1  and  C_23
REMARK    2  A    between atoms: C_3  and  C_8
REMARK    3  A    between atoms: C_12  and  C_18
REMARK    4  A    between atoms: N_22  and  C_25
REMARK                            x       y       z     vdW  Elec       q    Type
REMARK                         _______ _______ _______ _____ _____    ______ ____
ROOT
ATOM      1  C   UNL     1      31.642  -5.116 -23.302  0.00  0.00    +0.053 C 
ATOM      2  C   UNL     1      31.939  -6.459 -23.534  0.00  0.00    +0.004 C 
ATOM      3  C   UNL     1      32.428  -7.253 -22.496  0.00  0.00    -0.004 C 
ATOM      4  C   UNL     1      31.835  -4.567 -22.034  0.00  0.00    +0.004 C 
ATOM      5  C   UNL     1      32.620  -6.705 -21.229  0.00  0.00    -0.022 C 
ATOM      6  C   UNL     1      32.323  -5.362 -20.997  0.00  0.00    -0.004 C 
ATOM      7  C   UNL     1      33.142  -7.526 -20.093  0.00  0.00    +0.031 C 
ENDROOT
BRANCH   3   8
ATOM      8  C   UNL     1      32.728  -8.646 -22.762  0.00  0.00    -0.004 C 
ATOM      9  C   UNL     1      33.975  -9.032 -23.256  0.00  0.00    -0.022 C 
ATOM     10  C   UNL     1      31.747  -9.607 -22.517  0.00  0.00    -0.000 C 
ATOM     11  C   UNL     1      34.240 -10.379 -23.503  0.00  0.00    +0.000 C 
ATOM     12  C   UNL     1      33.259 -11.340 -23.258  0.00  0.00    +0.055 C 
ATOM     13  C   UNL     1      32.013 -10.954 -22.764  0.00  0.00    +0.005 C 
ATOM     14  C   UNL     1      35.050  -8.031 -23.531  0.00  0.00    +0.031 C 
BRANCH  12  18
ATOM     15  O   UNL     1      34.233 -13.383 -22.550  0.00  0.00    -0.420 OA
ATOM     16  N   UNL     1      33.211 -13.480 -24.538  0.00  0.00    -0.107 NA
ATOM     17  N   UNL     1      33.726 -14.732 -24.260  0.00  0.00    -0.111 NA
ATOM     18  C   UNL     1      33.532 -12.733 -23.514  0.00  0.00    +0.250 A 
ATOM     19  C   UNL     1      34.314 -14.628 -23.091  0.00  0.00    +0.227 A 
ATOM     20  C   UNL     1      35.028 -15.645 -22.308  0.00  0.00    +0.097 C 
ENDBRANCH  12  18
ENDBRANCH   3   8
BRANCH   1  23
ATOM     21  O   UNL     1      30.052  -3.681 -24.261  0.00  0.00    -0.270 OA
ATOM     22  N   UNL     1      31.898  -4.221 -25.552  0.00  0.00    -0.302 N 
ATOM     23  C   UNL     1      31.132  -4.286 -24.381  0.00  0.00    +0.246 C 
ATOM     24  H   UNL     1      32.745  -4.724 -25.585  0.00  0.00    +0.150 HD
BRANCH  22  25
ATOM     25  C   UNL     1      31.512  -3.460 -26.707  0.00  0.00    +0.072 C 
ATOM     26  C   UNL     1      32.036  -3.808 -28.062  0.00  0.00    +0.021 C 
ATOM     27  C   UNL     1      32.485  -2.548 -27.380  0.00  0.00    +0.021 C 
ENDBRANCH  22  25
ENDBRANCH   1  23
TORSDOF 4
ENDMDL
MODEL 5
REMARK VINA RESULT:      -9.5      5.260     12.157
REMARK  Name = 10089048
REMARK  4 active torsions:
REMARK  status: ('A' for Active; 'I' for Inactive)
REMARK    1  A    between atoms: C_1  and  C_23
REMARK    2  A    between atoms: C_3  and  C_8
REMARK    3  A    between atoms: C_12  and  C_18
REMARK    4  A    between atoms: N_22  and  C_25
REMARK                            x       y       z     vdW  Elec       q    Type
REMARK                         _______ _______ _______ _____ _____    ______ ____
ROOT
ATOM      1  C   UNL     1      31.489  -6.802 -22.042  0.00  0.00    +0.053 C 
ATOM      2  C   UNL     1      31.806  -8.033 -22.614  0.00  0.00    +0.004 C 
ATOM      3  C   UNL     1      32.160  -9.110 -21.801  0.00  0.00    -0.004 C 
ATOM      4  C   UNL     1      31.528  -6.646 -20.656  0.00  0.00    +0.004 C 
ATOM      5  C   UNL     1      32.198  -8.954 -20.415  0.00  0.00    -0.022 C 
ATOM      6  C   UNL     1      31.881  -7.722 -19.843  0.00  0.00    -0.004 C 
ATOM      7  C   UNL     1      32.573 -10.085 -19.512  0.00  0.00    +0.031 C 
ENDROOT
BRANCH   3   8
ATOM      8  C   UNL     1      32.484 -10.379 -22.420  0.00  0.00    -0.004 C 
ATOM      9  C   UNL     1      33.607 -10.517 -23.236  0.00  0.00    -0.022 C 
ATOM     10  C   UNL     1      31.652 -11.475 -22.189  0.00  0.00    -0.000 C 
ATOM     11  C   UNL     1      33.898 -11.750 -23.820  0.00  0.00    +0.000 C 
ATOM     12  C   UNL     1      33.066 -12.845 -23.589  0.00  0.00    +0.055 C 
ATOM     13  C   UNL     1      31.943 -12.708 -22.773  0.00  0.00    +0.005 C 
ATOM     14  C   UNL     1      34.522  -9.365 -23.506  0.00  0.00    +0.031 C 
BRANCH  12  18
ATOM     15  O   UNL     1      34.068 -14.988 -23.420  0.00  0.00    -0.420 OA
ATOM     16  N   UNL     1      33.069 -14.581 -25.380  0.00  0.00    -0.107 NA
ATOM     17  N   UNL     1      33.602 -15.854 -25.429  0.00  0.00    -0.111 NA
ATOM     18  C   UNL     1      33.366 -14.120 -24.193  0.00  0.00    +0.250 A 
ATOM     19  C   UNL     1      34.176 -16.049 -24.264  0.00  0.00    +0.227 A 
ATOM     20  C   UNL     1      34.898 -17.224 -23.760  0.00  0.00    +0.097 C 
ENDBRANCH  12  18
ENDBRANCH   3   8
BRANCH   1  23
ATOM     21  O   UNL     1      30.312  -4.821 -22.488  0.00  0.00    -0.270 OA
ATOM     22  N   UNL     1      31.695  -5.625 -24.163  0.00  0.00    -0.302 N 
ATOM     23  C   UNL     1      31.119  -5.679 -22.888  0.00  0.00    +0.246 C 
ATOM     24  H   UNL     1      32.328  -6.335 -24.421  0.00  0.00    +0.150 HD
BRANCH  22  25
ATOM     25  C   UNL     1      31.409  -4.588 -25.116  0.00  0.00    +0.072 C 
ATOM     26  C   UNL     1      32.333  -4.325 -26.259  0.00  0.00    +0.021 C 
ATOM     27  C   UNL     1      32.215  -3.331 -25.141  0.00  0.00    +0.021 C 
ENDBRANCH  22  25
ENDBRANCH   1  23
TORSDOF 4
ENDMDL
MODEL 6
REMARK VINA RESULT:      -9.4      5.355     12.281
REMARK  Name = 10089048
REMARK  4 active torsions:
REMARK  status: ('A' for Active; 'I' for Inactive)
REMARK    1  A    between atoms: C_1  and  C_23
REMARK    2  A    between atoms: C_3  and  C_8
REMARK    3  A    between atoms: C_12  and  C_18
REMARK    4  A    between atoms: N_22  and  C_25
REMARK                            x       y       z     vdW  Elec       q    Type
REMARK                         _______ _______ _______ _____ _____    ______ ____
ROOT
ATOM      1  C   UNL     1      31.648  -6.751 -21.936  0.00  0.00    +0.053 C 
ATOM      2  C   UNL     1      31.942  -7.974 -22.538  0.00  0.00    +0.004 C 
ATOM      3  C   UNL     1      32.208  -9.093 -21.749  0.00  0.00    -0.004 C 
ATOM      4  C   UNL     1      31.621  -6.647 -20.545  0.00  0.00    +0.004 C 
ATOM      5  C   UNL     1      32.180  -8.990 -20.359  0.00  0.00    -0.022 C 
ATOM      6  C   UNL     1      31.886  -7.767 -19.757  0.00  0.00    -0.004 C 
ATOM      7  C   UNL     1      32.460 -10.168 -19.482  0.00  0.00    +0.031 C 
ENDROOT
BRANCH   3   8
ATOM      8  C   UNL     1      32.510 -10.353 -22.400  0.00  0.00    -0.004 C 
ATOM      9  C   UNL     1      33.623 -10.486 -23.229  0.00  0.00    -0.022 C 
ATOM     10  C   UNL     1      31.666 -11.443 -22.186  0.00  0.00    -0.000 C 
ATOM     11  C   UNL     1      33.894 -11.709 -23.843  0.00  0.00    +0.000 C 
ATOM     12  C   UNL     1      33.050 -12.799 -23.629  0.00  0.00    +0.055 C 
ATOM     13  C   UNL     1      31.936 -12.666 -22.800  0.00  0.00    +0.005 C 
ATOM     14  C   UNL     1      34.550  -9.340 -23.483  0.00  0.00    +0.031 C 
BRANCH  12  18
ATOM     15  O   UNL     1      34.026 -14.957 -23.517  0.00  0.00    -0.420 OA
ATOM     16  N   UNL     1      33.013 -14.495 -25.458  0.00  0.00    -0.107 NA
ATOM     17  N   UNL     1      33.530 -15.774 -25.539  0.00  0.00    -0.111 NA
ATOM     18  C   UNL     1      33.327 -14.064 -24.264  0.00  0.00    +0.250 A 
ATOM     19  C   UNL     1      34.113 -16.001 -24.385  0.00  0.00    +0.227 A 
ATOM     20  C   UNL     1      34.826 -17.195 -23.915  0.00  0.00    +0.097 C 
ENDBRANCH  12  18
ENDBRANCH   3   8
BRANCH   1  23
ATOM     21  O   UNL     1      31.173  -5.698 -23.978  0.00  0.00    -0.270 OA
ATOM     22  N   UNL     1      31.355  -4.340 -22.110  0.00  0.00    -0.302 N 
ATOM     23  C   UNL     1      31.370  -5.583 -22.756  0.00  0.00    +0.246 C 
ATOM     24  H   UNL     1      31.518  -4.316 -21.139  0.00  0.00    +0.150 HD
BRANCH  22  25
ATOM     25  C   UNL     1      31.116  -3.099 -22.792  0.00  0.00    +0.072 C 
ATOM     26  C   UNL     1      31.955  -1.897 -22.508  0.00  0.00    +0.021 C 
ATOM     27  C   UNL     1      30.519  -1.935 -22.072  0.00  0.00    +0.021 C 
ENDBRANCH  22  25
ENDBRANCH   1  23
TORSDOF 4
ENDMDL
MODEL 7
REMARK VINA RESULT:      -9.4      3.643      6.529
REMARK  Name = 10089048
REMARK  4 active torsions:
REMARK  status: ('A' for Active; 'I' for Inactive)
REMARK    1  A    between atoms: C_1  and  C_23
REMARK    2  A    between atoms: C_3  and  C_8
REMARK    3  A    between atoms: C_12  and  C_18
REMARK    4  A    between atoms: N_22  and  C_25
REMARK                            x       y       z     vdW  Elec       q    Type
REMARK                         _______ _______ _______ _____ _____    ______ ____
ROOT
ATOM      1  C   UNL     1      33.966 -24.117 -14.071  0.00  0.00    +0.053 C 
ATOM      2  C   UNL     1      34.208 -23.327 -15.194  0.00  0.00    +0.004 C 
ATOM      3  C   UNL     1      35.519 -23.083 -15.605  0.00  0.00    -0.004 C 
ATOM      4  C   UNL     1      35.034 -24.663 -13.358  0.00  0.00    +0.004 C 
ATOM      5  C   UNL     1      36.586 -23.629 -14.892  0.00  0.00    -0.022 C 
ATOM      6  C   UNL     1      36.344 -24.419 -13.769  0.00  0.00    -0.004 C 
ATOM      7  C   UNL     1      38.004 -23.389 -15.303  0.00  0.00    +0.031 C 
ENDROOT
BRANCH   3   8
ATOM      8  C   UNL     1      35.745 -22.259 -16.776  0.00  0.00    -0.004 C 
ATOM      9  C   UNL     1      34.899 -22.333 -17.883  0.00  0.00    -0.022 C 
ATOM     10  C   UNL     1      36.828 -21.380 -16.784  0.00  0.00    -0.000 C 
ATOM     11  C   UNL     1      35.137 -21.529 -18.997  0.00  0.00    +0.000 C 
ATOM     12  C   UNL     1      36.220 -20.651 -19.006  0.00  0.00    +0.055 C 
ATOM     13  C   UNL     1      37.066 -20.576 -17.899  0.00  0.00    +0.005 C 
ATOM     14  C   UNL     1      33.729 -23.263 -17.910  0.00  0.00    +0.031 C 
BRANCH  12  18
ATOM     15  O   UNL     1      35.412 -19.641 -20.993  0.00  0.00    -0.420 OA
ATOM     16  N   UNL     1      37.558 -19.204 -20.535  0.00  0.00    -0.107 NA
ATOM     17  N   UNL     1      37.231 -18.555 -21.710  0.00  0.00    -0.111 NA
ATOM     18  C   UNL     1      36.468 -19.819 -20.158  0.00  0.00    +0.250 A 
ATOM     19  C   UNL     1      35.970 -18.839 -21.939  0.00  0.00    +0.227 A 
ATOM     20  C   UNL     1      35.102 -18.419 -23.047  0.00  0.00    +0.097 C 
ENDBRANCH  12  18
ENDBRANCH   3   8
BRANCH   1  23
ATOM     21  O   UNL     1      32.372 -25.019 -12.604  0.00  0.00    -0.270 OA
ATOM     22  N   UNL     1      31.573 -23.879 -14.455  0.00  0.00    -0.302 N 
ATOM     23  C   UNL     1      32.600 -24.373 -13.642  0.00  0.00    +0.246 C 
ATOM     24  H   UNL     1      31.819 -23.374 -15.265  0.00  0.00    +0.150 HD
BRANCH  22  25
ATOM     25  C   UNL     1      30.179 -24.072 -14.171  0.00  0.00    +0.072 C 
ATOM     26  C   UNL     1      29.517 -25.382 -14.445  0.00  0.00    +0.021 C 
ATOM     27  C   UNL     1      29.182 -24.179 -15.278  0.00  0.00    +0.021 C 
ENDBRANCH  22  25
ENDBRANCH   1  23
TORSDOF 4
ENDMDL
MODEL 8
REMARK VINA RESULT:      -9.2      5.377      9.996
REMARK  Name = 10089048
REMARK  4 active torsions:
REMARK  status: ('A' for Active; 'I' for Inactive)
REMARK    1  A    between atoms: C_1  and  C_23
REMARK    2  A    between atoms: C_3  and  C_8
REMARK    3  A    between atoms: C_12  and  C_18
REMARK    4  A    between atoms: N_22  and  C_25
REMARK                            x       y       z     vdW  Elec       q    Type
REMARK                         _______ _______ _______ _____ _____    ______ ____
ROOT
ATOM      1  C   UNL     1      33.038 -12.550 -22.096  0.00  0.00    +0.053 C 
ATOM      2  C   UNL     1      32.744 -11.222 -22.407  0.00  0.00    +0.004 C 
ATOM      3  C   UNL     1      31.964 -10.460 -21.537  0.00  0.00    -0.004 C 
ATOM      4  C   UNL     1      32.550 -13.115 -20.918  0.00  0.00    +0.004 C 
ATOM      5  C   UNL     1      31.477 -11.025 -20.359  0.00  0.00    -0.022 C 
ATOM      6  C   UNL     1      31.770 -12.353 -20.049  0.00  0.00    -0.004 C 
ATOM      7  C   UNL     1      30.637 -10.239 -19.404  0.00  0.00    +0.031 C 
ENDROOT
BRANCH   3   8
ATOM      8  C   UNL     1      31.673  -9.082 -21.882  0.00  0.00    -0.004 C 
ATOM      9  C   UNL     1      32.172  -8.028 -21.117  0.00  0.00    -0.022 C 
ATOM     10  C   UNL     1      30.881  -8.819 -23.000  0.00  0.00    -0.000 C 
ATOM     11  C   UNL     1      31.879  -6.711 -21.470  0.00  0.00    +0.000 C 
ATOM     12  C   UNL     1      31.087  -6.447 -22.587  0.00  0.00    +0.055 C 
ATOM     13  C   UNL     1      30.588  -7.501 -23.352  0.00  0.00    +0.005 C 
ATOM     14  C   UNL     1      33.024  -8.272 -19.912  0.00  0.00    +0.031 C 
BRANCH  12  18
ATOM     15  O   UNL     1      30.899  -4.169 -21.958  0.00  0.00    -0.420 OA
ATOM     16  N   UNL     1      30.406  -4.585 -24.100  0.00  0.00    -0.107 NA
ATOM     17  N   UNL     1      30.253  -3.229 -23.882  0.00  0.00    -0.111 NA
ATOM     18  C   UNL     1      30.782  -5.085 -22.953  0.00  0.00    +0.250 A 
ATOM     19  C   UNL     1      30.550  -3.032 -22.619  0.00  0.00    +0.227 A 
ATOM     20  C   UNL     1      30.559  -1.786 -21.842  0.00  0.00    +0.097 C 
ENDBRANCH  12  18
ENDBRANCH   3   8
BRANCH   1  23
ATOM     21  O   UNL     1      34.113 -12.938 -24.146  0.00  0.00    -0.270 OA
ATOM     22  N   UNL     1      34.302 -14.586 -22.528  0.00  0.00    -0.302 N 
ATOM     23  C   UNL     1      33.852 -13.347 -23.000  0.00  0.00    +0.246 C 
ATOM     24  H   UNL     1      34.061 -14.852 -21.611  0.00  0.00    +0.150 HD
BRANCH  22  25
ATOM     25  C   UNL     1      35.095 -15.489 -23.314  0.00  0.00    +0.072 C 
ATOM     26  C   UNL     1      34.456 -16.399 -24.310  0.00  0.00    +0.021 C 
ATOM     27  C   UNL     1      35.058 -16.960 -23.055  0.00  0.00    +0.021 C 
ENDBRANCH  22  25
ENDBRANCH   1  23
TORSDOF 4
ENDMDL
MODEL 9
REMARK VINA RESULT:      -9.1      6.423     11.070
REMARK  Name = 10089048
REMARK  4 active torsions:
REMARK  status: ('A' for Active; 'I' for Inactive)
REMARK    1  A    between atoms: C_1  and  C_23
REMARK    2  A    between atoms: C_3  and  C_8
REMARK    3  A    between atoms: C_12  and  C_18
REMARK    4  A    between atoms: N_22  and  C_25
REMARK                            x       y       z     vdW  Elec       q    Type
REMARK                         _______ _______ _______ _____ _____    ______ ____
ROOT
ATOM      1  C   UNL     1      31.821  -9.742 -20.821  0.00  0.00    +0.053 C 
ATOM      2  C   UNL     1      32.423  -9.105 -21.906  0.00  0.00    +0.004 C 
ATOM      3  C   UNL     1      32.724  -7.745 -21.837  0.00  0.00    -0.004 C 
ATOM      4  C   UNL     1      31.520  -9.017 -19.667  0.00  0.00    +0.004 C 
ATOM      5  C   UNL     1      32.423  -7.021 -20.684  0.00  0.00    -0.022 C 
ATOM      6  C   UNL     1      31.821  -7.658 -19.598  0.00  0.00    -0.004 C 
ATOM      7  C   UNL     1      32.731  -5.562 -20.574  0.00  0.00    +0.031 C 
ENDROOT
BRANCH   3   8
ATOM      8  C   UNL     1      33.350  -7.107 -22.978  0.00  0.00    -0.004 C 
ATOM      9  C   UNL     1      32.585  -6.604 -24.031  0.00  0.00    -0.022 C 
ATOM     10  C   UNL     1      34.740  -7.001 -23.014  0.00  0.00    -0.000 C 
ATOM     11  C   UNL     1      33.211  -5.993 -25.118  0.00  0.00    +0.000 C 
ATOM     12  C   UNL     1      34.601  -5.887 -25.153  0.00  0.00    +0.055 C 
ATOM     13  C   UNL     1      35.366  -6.390 -24.101  0.00  0.00    +0.005 C 
ATOM     14  C   UNL     1      31.093  -6.700 -24.028  0.00  0.00    +0.031 C 
BRANCH  12  18
ATOM     15  O   UNL     1      35.811  -6.100 -27.182  0.00  0.00    -0.420 OA
ATOM     16  N   UNL     1      35.388  -3.990 -26.569  0.00  0.00    -0.107 NA
ATOM     17  N   UNL     1      36.092  -3.957 -27.757  0.00  0.00    -0.111 NA
ATOM     18  C   UNL     1      35.249  -5.257 -26.278  0.00  0.00    +0.250 A 
ATOM     19  C   UNL     1      36.318  -5.210 -28.077  0.00  0.00    +0.227 A 
ATOM     20  C   UNL     1      37.024  -5.767 -29.238  0.00  0.00    +0.097 C 
ENDBRANCH  12  18
ENDBRANCH   3   8
BRANCH   1  23
ATOM     21  O   UNL     1      30.326 -11.547 -20.925  0.00  0.00    -0.270 OA
ATOM     22  N   UNL     1      32.587 -12.052 -20.896  0.00  0.00    -0.302 N 
ATOM     23  C   UNL     1      31.507 -11.160 -20.890  0.00  0.00    +0.246 C 
ATOM     24  H   UNL     1      33.499 -11.682 -20.867  0.00  0.00    +0.150 HD
BRANCH  22  25
ATOM     25  C   UNL     1      32.431 -13.479 -20.940  0.00  0.00    +0.072 C 
ATOM     26  C   UNL     1      32.317 -14.274 -19.681  0.00  0.00    +0.021 C 
ATOM     27  C   UNL     1      33.549 -14.381 -20.531  0.00  0.00    +0.021 C 
ENDBRANCH  22  25
ENDBRANCH   1  23
TORSDOF 4
ENDMDL
