MODEL 1
REMARK VINA RESULT:     -10.7      0.000      0.000
REMARK  Name = 44511587
REMARK  4 active torsions:
REMARK  status: ('A' for Active; 'I' for Inactive)
REMARK    1  A    between atoms: C_3  and  N_11
REMARK    2  A    between atoms: C_4  and  C_22
REMARK    3  A    between atoms: C_12  and  C_16
REMARK    4  A    between atoms: C_22  and  C_24
REMARK                            x       y       z     vdW  Elec       q    Type
REMARK                         _______ _______ _______ _____ _____    ______ ____
ROOT
ATOM      1  N   UNL     1      32.369 -23.869 -13.114  0.00  0.00    +0.390 N 
ATOM      2  C   UNL     1      31.044 -23.856 -15.354  0.00  0.00    +0.012 C 
ATOM      3  C   UNL     1      32.566 -23.910 -15.608  0.00  0.00    +0.053 C 
ATOM      4  C   UNL     1      33.305 -23.704 -14.260  0.00  0.00    -0.035 C 
ATOM      5  C   UNL     1      30.715 -22.617 -14.502  0.00  0.00    -0.021 C 
ATOM      6  C   UNL     1      30.694 -25.094 -14.512  0.00  0.00    -0.021 C 
ATOM      7  C   UNL     1      31.422 -22.728 -13.140  0.00  0.00    -0.077 C 
ATOM      8  C   UNL     1      31.579 -25.115 -13.255  0.00  0.00    -0.077 C 
ATOM      9  H   UNL     1      32.904 -23.909 -12.245  0.00  0.00    -0.080 HD
ENDROOT
BRANCH   3  11
ATOM     10  O   UNL     1      33.782 -24.452 -18.152  0.00  0.00    -0.270 OA
ATOM     11  N   UNL     1      32.980 -22.936 -16.591  0.00  0.00    -0.304 N 
ATOM     12  C   UNL     1      33.561 -23.298 -17.797  0.00  0.00    +0.246 C 
ATOM     13  H   UNL     1      32.844 -21.981 -16.397  0.00  0.00    +0.150 HD
BRANCH  12  16
ATOM     14  F   UNL     1      32.413 -19.736 -20.902  0.00  0.00    -0.204 F 
ATOM     15  F   UNL     1      36.961 -20.451 -19.793  0.00  0.00    -0.204 F 
ATOM     16  C   UNL     1      33.955 -22.176 -18.688  0.00  0.00    +0.058 C 
ATOM     17  C   UNL     1      35.299 -21.832 -18.825  0.00  0.00    +0.034 C 
ATOM     18  C   UNL     1      32.980 -21.468 -19.390  0.00  0.00    +0.034 C 
ATOM     19  C   UNL     1      33.349 -20.415 -20.228  0.00  0.00    +0.143 C 
ATOM     20  C   UNL     1      35.669 -20.781 -19.663  0.00  0.00    +0.143 C 
ATOM     21  C   UNL     1      34.694 -20.073 -20.364  0.00  0.00    +0.059 C 
ENDBRANCH  12  16
ENDBRANCH   3  11
BRANCH   4  22
ATOM     22  C   UNL     1      34.522 -24.626 -14.136  0.00  0.00    +0.009 C 
BRANCH  22  24
ATOM     23  N   UNL     1      37.539 -22.874 -12.676  0.00  0.00    -0.243 NA
ATOM     24  C   UNL     1      35.508 -24.104 -13.130  0.00  0.00    -0.005 C 
ATOM     25  C   UNL     1      35.341 -24.344 -11.771  0.00  0.00    -0.001 C 
ATOM     26  C   UNL     1      36.614 -23.371 -13.528  0.00  0.00    +0.095 C 
ATOM     27  C   UNL     1      36.271 -23.850 -10.864  0.00  0.00    +0.020 C 
ATOM     28  C   UNL     1      37.342 -23.127 -11.363  0.00  0.00    +0.099 C 
ENDBRANCH  22  24
ENDBRANCH   4  22
TORSDOF 4
ENDMDL
MODEL 2
REMARK VINA RESULT:     -10.7      0.038      1.620
REMARK  Name = 44511587
REMARK  4 active torsions:
REMARK  status: ('A' for Active; 'I' for Inactive)
REMARK    1  A    between atoms: C_3  and  N_11
REMARK    2  A    between atoms: C_4  and  C_22
REMARK    3  A    between atoms: C_12  and  C_16
REMARK    4  A    between atoms: C_22  and  C_24
REMARK                            x       y       z     vdW  Elec       q    Type
REMARK                         _______ _______ _______ _____ _____    ______ ____
ROOT
ATOM      1  N   UNL     1      32.342 -23.907 -13.114  0.00  0.00    +0.390 N 
ATOM      2  C   UNL     1      31.031 -23.885 -15.362  0.00  0.00    +0.012 C 
ATOM      3  C   UNL     1      32.554 -23.937 -15.607  0.00  0.00    +0.053 C 
ATOM      4  C   UNL     1      33.285 -23.736 -14.254  0.00  0.00    -0.035 C 
ATOM      5  C   UNL     1      30.695 -22.650 -14.506  0.00  0.00    -0.021 C 
ATOM      6  C   UNL     1      30.676 -25.127 -14.528  0.00  0.00    -0.021 C 
ATOM      7  C   UNL     1      31.394 -22.766 -13.141  0.00  0.00    -0.077 C 
ATOM      8  C   UNL     1      31.554 -25.152 -13.265  0.00  0.00    -0.077 C 
ATOM      9  H   UNL     1      32.871 -23.949 -12.242  0.00  0.00    -0.080 HD
ENDROOT
BRANCH   3  11
ATOM     10  O   UNL     1      33.746 -24.469 -18.164  0.00  0.00    -0.270 OA
ATOM     11  N   UNL     1      32.973 -22.959 -16.583  0.00  0.00    -0.304 N 
ATOM     12  C   UNL     1      33.542 -23.315 -17.796  0.00  0.00    +0.246 C 
ATOM     13  H   UNL     1      32.850 -22.003 -16.379  0.00  0.00    +0.150 HD
BRANCH  12  16
ATOM     14  F   UNL     1      36.962 -20.485 -19.782  0.00  0.00    -0.204 F 
ATOM     15  F   UNL     1      32.415 -19.705 -20.853  0.00  0.00    -0.204 F 
ATOM     16  C   UNL     1      33.943 -22.189 -18.680  0.00  0.00    +0.058 C 
ATOM     17  C   UNL     1      32.972 -21.461 -19.366  0.00  0.00    +0.034 C 
ATOM     18  C   UNL     1      35.291 -21.859 -18.820  0.00  0.00    +0.034 C 
ATOM     19  C   UNL     1      35.668 -20.802 -19.648  0.00  0.00    +0.143 C 
ATOM     20  C   UNL     1      33.348 -20.403 -20.193  0.00  0.00    +0.143 C 
ATOM     21  C   UNL     1      34.696 -20.074 -20.334  0.00  0.00    +0.059 C 
ENDBRANCH  12  16
ENDBRANCH   3  11
BRANCH   4  22
ATOM     22  C   UNL     1      34.501 -24.658 -14.126  0.00  0.00    +0.009 C 
BRANCH  22  24
ATOM     23  N   UNL     1      37.540 -22.927 -12.686  0.00  0.00    -0.243 NA
ATOM     24  C   UNL     1      35.490 -24.129 -13.126  0.00  0.00    -0.005 C 
ATOM     25  C   UNL     1      35.307 -24.331 -11.762  0.00  0.00    -0.001 C 
ATOM     26  C   UNL     1      36.613 -23.428 -13.533  0.00  0.00    +0.095 C 
ATOM     27  C   UNL     1      36.240 -23.832 -10.860  0.00  0.00    +0.020 C 
ATOM     28  C   UNL     1      37.329 -23.143 -11.368  0.00  0.00    +0.099 C 
ENDBRANCH  22  24
ENDBRANCH   4  22
TORSDOF 4
ENDMDL
MODEL 3
REMARK VINA RESULT:     -10.5      2.165      4.895
REMARK  Name = 44511587
REMARK  4 active torsions:
REMARK  status: ('A' for Active; 'I' for Inactive)
REMARK    1  A    between atoms: C_3  and  N_11
REMARK    2  A    between atoms: C_4  and  C_22
REMARK    3  A    between atoms: C_12  and  C_16
REMARK    4  A    between atoms: C_22  and  C_24
REMARK                            x       y       z     vdW  Elec       q    Type
REMARK                         _______ _______ _______ _____ _____    ______ ____
ROOT
ATOM      1  N   UNL     1      36.234 -26.017 -13.053  0.00  0.00    +0.390 N 
ATOM      2  C   UNL     1      37.902 -24.385 -14.207  0.00  0.00    +0.012 C 
ATOM      3  C   UNL     1      36.469 -23.809 -14.208  0.00  0.00    +0.053 C 
ATOM      4  C   UNL     1      35.491 -24.902 -13.704  0.00  0.00    -0.035 C 
ATOM      5  C   UNL     1      37.897 -25.761 -14.897  0.00  0.00    -0.021 C 
ATOM      6  C   UNL     1      38.283 -24.615 -12.735  0.00  0.00    -0.021 C 
ATOM      7  C   UNL     1      36.994 -26.727 -14.110  0.00  0.00    -0.077 C 
ATOM      8  C   UNL     1      37.211 -25.494 -12.069  0.00  0.00    -0.077 C 
ATOM      9  H   UNL     1      35.573 -26.629 -12.574  0.00  0.00    -0.080 HD
ENDROOT
BRANCH   3  11
ATOM     10  O   UNL     1      37.576 -21.545 -15.582  0.00  0.00    -0.270 OA
ATOM     11  N   UNL     1      36.089 -23.323 -15.513  0.00  0.00    -0.304 N 
ATOM     12  C   UNL     1      36.685 -22.215 -16.096  0.00  0.00    +0.246 C 
ATOM     13  H   UNL     1      35.380 -23.795 -16.006  0.00  0.00    +0.150 HD
BRANCH  12  16
ATOM     14  F   UNL     1      37.129 -19.794 -20.290  0.00  0.00    -0.204 F 
ATOM     15  F   UNL     1      33.252 -22.405 -19.534  0.00  0.00    -0.204 F 
ATOM     16  C   UNL     1      36.162 -21.826 -17.432  0.00  0.00    +0.058 C 
ATOM     17  C   UNL     1      34.928 -22.308 -17.865  0.00  0.00    +0.034 C 
ATOM     18  C   UNL     1      36.906 -20.976 -18.251  0.00  0.00    +0.034 C 
ATOM     19  C   UNL     1      36.415 -20.610 -19.504  0.00  0.00    +0.143 C 
ATOM     20  C   UNL     1      34.436 -21.941 -19.118  0.00  0.00    +0.143 C 
ATOM     21  C   UNL     1      35.180 -21.092 -19.937  0.00  0.00    +0.059 C 
ENDBRANCH  12  16
ENDBRANCH   3  11
BRANCH   4  22
ATOM     22  C   UNL     1      34.420 -24.319 -12.777  0.00  0.00    +0.009 C 
BRANCH  22  24
ATOM     23  N   UNL     1      30.876 -25.144 -13.812  0.00  0.00    -0.243 NA
ATOM     24  C   UNL     1      33.087 -24.229 -13.465  0.00  0.00    -0.005 C 
ATOM     25  C   UNL     1      32.813 -23.206 -14.365  0.00  0.00    -0.001 C 
ATOM     26  C   UNL     1      32.095 -25.166 -13.226  0.00  0.00    +0.095 C 
ATOM     27  C   UNL     1      31.571 -23.149 -14.988  0.00  0.00    +0.020 C 
ATOM     28  C   UNL     1      30.646 -24.134 -14.680  0.00  0.00    +0.099 C 
ENDBRANCH  22  24
ENDBRANCH   4  22
TORSDOF 4
ENDMDL
MODEL 4
REMARK VINA RESULT:     -10.5      2.181      4.729
REMARK  Name = 44511587
REMARK  4 active torsions:
REMARK  status: ('A' for Active; 'I' for Inactive)
REMARK    1  A    between atoms: C_3  and  N_11
REMARK    2  A    between atoms: C_4  and  C_22
REMARK    3  A    between atoms: C_12  and  C_16
REMARK    4  A    between atoms: C_22  and  C_24
REMARK                            x       y       z     vdW  Elec       q    Type
REMARK                         _______ _______ _______ _____ _____    ______ ____
ROOT
ATOM      1  N   UNL     1      36.302 -26.084 -12.999  0.00  0.00    +0.390 N 
ATOM      2  C   UNL     1      37.961 -24.446 -14.156  0.00  0.00    +0.012 C 
ATOM      3  C   UNL     1      36.525 -23.878 -14.159  0.00  0.00    +0.053 C 
ATOM      4  C   UNL     1      35.553 -24.975 -13.652  0.00  0.00    -0.035 C 
ATOM      5  C   UNL     1      37.964 -25.824 -14.843  0.00  0.00    -0.021 C 
ATOM      6  C   UNL     1      38.343 -24.671 -12.684  0.00  0.00    -0.021 C 
ATOM      7  C   UNL     1      37.066 -26.793 -14.054  0.00  0.00    -0.077 C 
ATOM      8  C   UNL     1      37.276 -25.554 -12.015  0.00  0.00    -0.077 C 
ATOM      9  H   UNL     1      35.643 -26.699 -12.519  0.00  0.00    -0.080 HD
ENDROOT
BRANCH   3  11
ATOM     10  O   UNL     1      37.509 -21.522 -15.472  0.00  0.00    -0.270 OA
ATOM     11  N   UNL     1      36.143 -23.397 -15.465  0.00  0.00    -0.304 N 
ATOM     12  C   UNL     1      36.676 -22.242 -16.017  0.00  0.00    +0.246 C 
ATOM     13  H   UNL     1      35.479 -23.908 -15.982  0.00  0.00    +0.150 HD
BRANCH  12  16
ATOM     14  F   UNL     1      33.251 -22.460 -19.463  0.00  0.00    -0.204 F 
ATOM     15  F   UNL     1      37.149 -19.886 -20.245  0.00  0.00    -0.204 F 
ATOM     16  C   UNL     1      36.159 -21.867 -17.359  0.00  0.00    +0.058 C 
ATOM     17  C   UNL     1      36.911 -21.036 -18.189  0.00  0.00    +0.034 C 
ATOM     18  C   UNL     1      34.923 -22.348 -17.790  0.00  0.00    +0.034 C 
ATOM     19  C   UNL     1      34.438 -21.997 -19.050  0.00  0.00    +0.143 C 
ATOM     20  C   UNL     1      36.427 -20.686 -19.449  0.00  0.00    +0.143 C 
ATOM     21  C   UNL     1      35.191 -21.166 -19.880  0.00  0.00    +0.059 C 
ENDBRANCH  12  16
ENDBRANCH   3  11
BRANCH   4  22
ATOM     22  C   UNL     1      34.478 -24.395 -12.728  0.00  0.00    +0.009 C 
BRANCH  22  24
ATOM     23  N   UNL     1      30.933 -25.055 -13.869  0.00  0.00    -0.243 NA
ATOM     24  C   UNL     1      33.166 -24.234 -13.442  0.00  0.00    -0.005 C 
ATOM     25  C   UNL     1      32.950 -23.172 -14.313  0.00  0.00    -0.001 C 
ATOM     26  C   UNL     1      32.135 -25.141 -13.257  0.00  0.00    +0.095 C 
ATOM     27  C   UNL     1      31.727 -23.050 -14.962  0.00  0.00    +0.020 C 
ATOM     28  C   UNL     1      30.760 -24.009 -14.707  0.00  0.00    +0.099 C 
ENDBRANCH  22  24
ENDBRANCH   4  22
TORSDOF 4
ENDMDL
MODEL 5
REMARK VINA RESULT:     -10.4      1.561      4.401
REMARK  Name = 44511587
REMARK  4 active torsions:
REMARK  status: ('A' for Active; 'I' for Inactive)
REMARK    1  A    between atoms: C_3  and  N_11
REMARK    2  A    between atoms: C_4  and  C_22
REMARK    3  A    between atoms: C_12  and  C_16
REMARK    4  A    between atoms: C_22  and  C_24
REMARK                            x       y       z     vdW  Elec       q    Type
REMARK                         _______ _______ _______ _____ _____    ______ ____
ROOT
ATOM      1  N   UNL     1      35.441 -25.399 -13.275  0.00  0.00    +0.390 N 
ATOM      2  C   UNL     1      37.238 -23.625 -13.907  0.00  0.00    +0.012 C 
ATOM      3  C   UNL     1      35.812 -23.056 -14.072  0.00  0.00    +0.053 C 
ATOM      4  C   UNL     1      34.790 -24.207 -13.888  0.00  0.00    -0.035 C 
ATOM      5  C   UNL     1      37.381 -24.896 -14.764  0.00  0.00    -0.021 C 
ATOM      6  C   UNL     1      37.375 -24.050 -12.436  0.00  0.00    -0.021 C 
ATOM      7  C   UNL     1      36.382 -25.959 -14.274  0.00  0.00    -0.077 C 
ATOM      8  C   UNL     1      36.228 -25.012 -12.080  0.00  0.00    -0.077 C 
ATOM      9  H   UNL     1      34.723 -26.070 -12.999  0.00  0.00    -0.080 HD
ENDROOT
BRANCH   3  11
ATOM     10  O   UNL     1      34.555 -24.149 -16.410  0.00  0.00    -0.270 OA
ATOM     11  N   UNL     1      35.643 -22.399 -15.346  0.00  0.00    -0.304 N 
ATOM     12  C   UNL     1      35.019 -23.012 -16.422  0.00  0.00    +0.246 C 
ATOM     13  H   UNL     1      35.983 -21.481 -15.455  0.00  0.00    +0.150 HD
BRANCH  12  16
ATOM     14  F   UNL     1      32.485 -21.125 -20.119  0.00  0.00    -0.204 F 
ATOM     15  F   UNL     1      37.146 -20.329 -19.876  0.00  0.00    -0.204 F 
ATOM     16  C   UNL     1      34.948 -22.211 -17.672  0.00  0.00    +0.058 C 
ATOM     17  C   UNL     1      36.103 -21.634 -18.198  0.00  0.00    +0.034 C 
ATOM     18  C   UNL     1      33.725 -22.040 -18.322  0.00  0.00    +0.034 C 
ATOM     19  C   UNL     1      33.658 -21.289 -19.495  0.00  0.00    +0.143 C 
ATOM     20  C   UNL     1      36.037 -20.885 -19.372  0.00  0.00    +0.143 C 
ATOM     21  C   UNL     1      34.814 -20.713 -20.021  0.00  0.00    +0.059 C 
ENDBRANCH  12  16
ENDBRANCH   3  11
BRANCH   4  22
ATOM     22  C   UNL     1      33.566 -23.755 -13.085  0.00  0.00    +0.009 C 
BRANCH  22  24
ATOM     23  N   UNL     1      30.425 -25.492 -14.274  0.00  0.00    -0.243 NA
ATOM     24  C   UNL     1      32.290 -24.020 -13.832  0.00  0.00    -0.005 C 
ATOM     25  C   UNL     1      31.789 -23.099 -14.745  0.00  0.00    -0.001 C 
ATOM     26  C   UNL     1      31.577 -25.192 -13.634  0.00  0.00    +0.095 C 
ATOM     27  C   UNL     1      30.606 -23.373 -15.422  0.00  0.00    +0.020 C 
ATOM     28  C   UNL     1      29.968 -24.573 -15.153  0.00  0.00    +0.099 C 
ENDBRANCH  22  24
ENDBRANCH   4  22
TORSDOF 4
ENDMDL
MODEL 6
REMARK VINA RESULT:      -8.5     11.592     14.963
REMARK  Name = 44511587
REMARK  4 active torsions:
REMARK  status: ('A' for Active; 'I' for Inactive)
REMARK    1  A    between atoms: C_3  and  N_11
REMARK    2  A    between atoms: C_4  and  C_22
REMARK    3  A    between atoms: C_12  and  C_16
REMARK    4  A    between atoms: C_22  and  C_24
REMARK                            x       y       z     vdW  Elec       q    Type
REMARK                         _______ _______ _______ _____ _____    ______ ____
ROOT
ATOM      1  N   UNL     1      33.659  -6.938 -22.167  0.00  0.00    +0.390 N 
ATOM      2  C   UNL     1      33.972  -8.163 -24.442  0.00  0.00    +0.012 C 
ATOM      3  C   UNL     1      33.109  -9.000 -23.473  0.00  0.00    +0.053 C 
ATOM      4  C   UNL     1      33.130  -8.327 -22.076  0.00  0.00    -0.035 C 
ATOM      5  C   UNL     1      35.328  -7.857 -23.779  0.00  0.00    -0.021 C 
ATOM      6  C   UNL     1      33.246  -6.822 -24.632  0.00  0.00    -0.021 C 
ATOM      7  C   UNL     1      35.100  -7.027 -22.504  0.00  0.00    -0.077 C 
ATOM      8  C   UNL     1      32.986  -6.189 -23.255  0.00  0.00    -0.077 C 
ATOM      9  H   UNL     1      33.498  -6.458 -21.281  0.00  0.00    -0.080 HD
ENDROOT
BRANCH   3  11
ATOM     10  O   UNL     1      31.468 -11.321 -23.066  0.00  0.00    -0.270 OA
ATOM     11  N   UNL     1      33.557 -10.371 -23.406  0.00  0.00    -0.304 N 
ATOM     12  C   UNL     1      32.684 -11.430 -23.205  0.00  0.00    +0.246 C 
ATOM     13  H   UNL     1      34.518 -10.561 -23.506  0.00  0.00    +0.150 HD
BRANCH  12  16
ATOM     14  F   UNL     1      35.031 -14.899 -20.734  0.00  0.00    -0.204 F 
ATOM     15  F   UNL     1      33.898 -15.663 -25.267  0.00  0.00    -0.204 F 
ATOM     16  C   UNL     1      33.306 -12.778 -23.133  0.00  0.00    +0.058 C 
ATOM     17  C   UNL     1      33.310 -13.604 -24.256  0.00  0.00    +0.034 C 
ATOM     18  C   UNL     1      33.888 -13.215 -21.943  0.00  0.00    +0.034 C 
ATOM     19  C   UNL     1      34.472 -14.479 -21.876  0.00  0.00    +0.143 C 
ATOM     20  C   UNL     1      33.895 -14.868 -24.189  0.00  0.00    +0.143 C 
ATOM     21  C   UNL     1      34.476 -15.306 -23.000  0.00  0.00    +0.059 C 
ENDBRANCH  12  16
ENDBRANCH   3  11
BRANCH   4  22
ATOM     22  C   UNL     1      31.753  -8.367 -21.408  0.00  0.00    +0.009 C 
BRANCH  22  24
ATOM     23  N   UNL     1      31.837  -9.225 -17.725  0.00  0.00    -0.243 NA
ATOM     24  C   UNL     1      31.778  -9.175 -20.142  0.00  0.00    -0.005 C 
ATOM     25  C   UNL     1      31.774 -10.565 -20.178  0.00  0.00    -0.001 C 
ATOM     26  C   UNL     1      31.812  -8.558 -18.901  0.00  0.00    +0.095 C 
ATOM     27  C   UNL     1      31.800 -11.286 -18.989  0.00  0.00    +0.020 C 
ATOM     28  C   UNL     1      31.831 -10.575 -17.800  0.00  0.00    +0.099 C 
ENDBRANCH  22  24
ENDBRANCH   4  22
TORSDOF 4
ENDMDL
MODEL 7
REMARK VINA RESULT:      -8.4      2.924      6.109
REMARK  Name = 44511587
REMARK  4 active torsions:
REMARK  status: ('A' for Active; 'I' for Inactive)
REMARK    1  A    between atoms: C_3  and  N_11
REMARK    2  A    between atoms: C_4  and  C_22
REMARK    3  A    between atoms: C_12  and  C_16
REMARK    4  A    between atoms: C_22  and  C_24
REMARK                            x       y       z     vdW  Elec       q    Type
REMARK                         _______ _______ _______ _____ _____    ______ ____
ROOT
ATOM      1  N   UNL     1      30.261 -24.191 -15.660  0.00  0.00    +0.390 N 
ATOM      2  C   UNL     1      31.464 -24.005 -13.359  0.00  0.00    +0.012 C 
ATOM      3  C   UNL     1      32.264 -23.284 -14.466  0.00  0.00    +0.053 C 
ATOM      4  C   UNL     1      31.617 -23.603 -15.838  0.00  0.00    -0.035 C 
ATOM      5  C   UNL     1      31.252 -25.476 -13.762  0.00  0.00    -0.021 C 
ATOM      6  C   UNL     1      30.079 -23.341 -13.313  0.00  0.00    -0.021 C 
ATOM      7  C   UNL     1      30.431 -25.538 -15.062  0.00  0.00    -0.077 C 
ATOM      8  C   UNL     1      29.455 -23.378 -14.718  0.00  0.00    -0.077 C 
ATOM      9  H   UNL     1      29.787 -24.225 -16.562  0.00  0.00    -0.080 HD
ENDROOT
BRANCH   3  11
ATOM     10  O   UNL     1      33.881 -23.724 -12.134  0.00  0.00    -0.270 OA
ATOM     11  N   UNL     1      33.660 -23.650 -14.442  0.00  0.00    -0.304 N 
ATOM     12  C   UNL     1      34.359 -23.842 -13.259  0.00  0.00    +0.246 C 
ATOM     13  H   UNL     1      34.133 -23.769 -15.297  0.00  0.00    +0.150 HD
BRANCH  12  16
ATOM     14  F   UNL     1      38.645 -23.341 -15.503  0.00  0.00    -0.204 F 
ATOM     15  F   UNL     1      38.288 -26.340 -11.855  0.00  0.00    -0.204 F 
ATOM     16  C   UNL     1      35.797 -24.190 -13.405  0.00  0.00    +0.058 C 
ATOM     17  C   UNL     1      36.380 -25.119 -12.545  0.00  0.00    +0.034 C 
ATOM     18  C   UNL     1      36.562 -23.589 -14.405  0.00  0.00    +0.034 C 
ATOM     19  C   UNL     1      37.910 -23.917 -14.543  0.00  0.00    +0.143 C 
ATOM     20  C   UNL     1      37.728 -25.448 -12.683  0.00  0.00    +0.143 C 
ATOM     21  C   UNL     1      38.493 -24.847 -13.682  0.00  0.00    +0.059 C 
ENDBRANCH  12  16
ENDBRANCH   3  11
BRANCH   4  22
ATOM     22  C   UNL     1      31.586 -22.372 -16.749  0.00  0.00    +0.009 C 
BRANCH  22  24
ATOM     23  N   UNL     1      35.171 -22.820 -17.866  0.00  0.00    -0.243 NA
ATOM     24  C   UNL     1      32.836 -22.265 -17.574  0.00  0.00    -0.005 C 
ATOM     25  C   UNL     1      32.851 -21.546 -18.764  0.00  0.00    -0.001 C 
ATOM     26  C   UNL     1      34.012 -22.877 -17.172  0.00  0.00    +0.095 C 
ATOM     27  C   UNL     1      34.024 -21.463 -19.505  0.00  0.00    +0.020 C 
ATOM     28  C   UNL     1      35.147 -22.112 -19.017  0.00  0.00    +0.099 C 
ENDBRANCH  22  24
ENDBRANCH   4  22
TORSDOF 4
ENDMDL
MODEL 8
REMARK VINA RESULT:      -8.1     11.671     15.340
REMARK  Name = 44511587
REMARK  4 active torsions:
REMARK  status: ('A' for Active; 'I' for Inactive)
REMARK    1  A    between atoms: C_3  and  N_11
REMARK    2  A    between atoms: C_4  and  C_22
REMARK    3  A    between atoms: C_12  and  C_16
REMARK    4  A    between atoms: C_22  and  C_24
REMARK                            x       y       z     vdW  Elec       q    Type
REMARK                         _______ _______ _______ _____ _____    ______ ____
ROOT
ATOM      1  N   UNL     1      32.699  -6.031 -22.546  0.00  0.00    +0.390 N 
ATOM      2  C   UNL     1      31.987  -7.903 -24.208  0.00  0.00    +0.012 C 
ATOM      3  C   UNL     1      31.845  -8.375 -22.745  0.00  0.00    +0.053 C 
ATOM      4  C   UNL     1      32.475  -7.308 -21.812  0.00  0.00    -0.035 C 
ATOM      5  C   UNL     1      33.439  -7.454 -24.459  0.00  0.00    -0.021 C 
ATOM      6  C   UNL     1      31.094  -6.661 -24.360  0.00  0.00    -0.021 C 
ATOM      7  C   UNL     1      33.774  -6.267 -23.540  0.00  0.00    -0.077 C 
ATOM      8  C   UNL     1      31.480  -5.629 -23.287  0.00  0.00    -0.077 C 
ATOM      9  H   UNL     1      32.942  -5.297 -21.879  0.00  0.00    -0.080 HD
ENDROOT
BRANCH   3  11
ATOM     10  O   UNL     1      30.466 -10.818 -22.132  0.00  0.00    -0.270 OA
ATOM     11  N   UNL     1      32.442  -9.673 -22.540  0.00  0.00    -0.304 N 
ATOM     12  C   UNL     1      31.689 -10.800 -22.246  0.00  0.00    +0.246 C 
ATOM     13  H   UNL     1      33.420  -9.761 -22.611  0.00  0.00    +0.150 HD
BRANCH  12  16
ATOM     14  F   UNL     1      34.860 -14.146 -23.794  0.00  0.00    -0.204 F 
ATOM     15  F   UNL     1      32.897 -14.635 -19.512  0.00  0.00    -0.204 F 
ATOM     16  C   UNL     1      32.456 -12.056 -22.038  0.00  0.00    +0.058 C 
ATOM     17  C   UNL     1      32.314 -12.771 -20.849  0.00  0.00    +0.034 C 
ATOM     18  C   UNL     1      33.316 -12.521 -23.033  0.00  0.00    +0.034 C 
ATOM     19  C   UNL     1      34.035 -13.700 -22.838  0.00  0.00    +0.143 C 
ATOM     20  C   UNL     1      33.032 -13.950 -20.655  0.00  0.00    +0.143 C 
ATOM     21  C   UNL     1      33.893 -14.415 -21.649  0.00  0.00    +0.059 C 
ENDBRANCH  12  16
ENDBRANCH   3  11
BRANCH   4  22
ATOM     22  C   UNL     1      31.637  -7.095 -20.548  0.00  0.00    +0.009 C 
BRANCH  22  24
ATOM     23  N   UNL     1      33.048  -9.808 -18.322  0.00  0.00    -0.243 NA
ATOM     24  C   UNL     1      31.705  -8.287 -19.636  0.00  0.00    -0.005 C 
ATOM     25  C   UNL     1      30.553  -8.971 -19.264  0.00  0.00    -0.001 C 
ATOM     26  C   UNL     1      32.917  -8.742 -19.144  0.00  0.00    +0.095 C 
ATOM     27  C   UNL     1      30.646 -10.072 -18.421  0.00  0.00    +0.020 C 
ATOM     28  C   UNL     1      31.906 -10.447 -17.981  0.00  0.00    +0.099 C 
ENDBRANCH  22  24
ENDBRANCH   4  22
TORSDOF 4
ENDMDL
MODEL 9
REMARK VINA RESULT:      -7.9     11.044     15.090
REMARK  Name = 44511587
REMARK  4 active torsions:
REMARK  status: ('A' for Active; 'I' for Inactive)
REMARK    1  A    between atoms: C_3  and  N_11
REMARK    2  A    between atoms: C_4  and  C_22
REMARK    3  A    between atoms: C_12  and  C_16
REMARK    4  A    between atoms: C_22  and  C_24
REMARK                            x       y       z     vdW  Elec       q    Type
REMARK                         _______ _______ _______ _____ _____    ______ ____
ROOT
ATOM      1  N   UNL     1      31.744  -8.687 -22.303  0.00  0.00    +0.390 N 
ATOM      2  C   UNL     1      31.719 -10.910 -20.949  0.00  0.00    +0.012 C 
ATOM      3  C   UNL     1      33.005 -10.788 -21.795  0.00  0.00    +0.053 C 
ATOM      4  C   UNL     1      32.872  -9.559 -22.732  0.00  0.00    -0.035 C 
ATOM      5  C   UNL     1      30.492 -10.803 -21.872  0.00  0.00    -0.021 C 
ATOM      6  C   UNL     1      31.691  -9.692 -20.011  0.00  0.00    -0.021 C 
ATOM      7  C   UNL     1      30.483  -9.426 -22.557  0.00  0.00    -0.077 C 
ATOM      8  C   UNL     1      31.818  -8.408 -20.849  0.00  0.00    -0.077 C 
ATOM      9  H   UNL     1      31.786  -7.805 -22.815  0.00  0.00    -0.080 HD
ENDROOT
BRANCH   3  11
ATOM     10  O   UNL     1      33.842 -13.316 -20.722  0.00  0.00    -0.270 OA
ATOM     11  N   UNL     1      33.272 -11.994 -22.541  0.00  0.00    -0.304 N 
ATOM     12  C   UNL     1      33.674 -13.173 -21.930  0.00  0.00    +0.246 C 
ATOM     13  H   UNL     1      33.165 -11.979 -23.520  0.00  0.00    +0.150 HD
BRANCH  12  16
ATOM     14  F   UNL     1      33.099 -15.415 -26.207  0.00  0.00    -0.204 F 
ATOM     15  F   UNL     1      35.729 -17.482 -22.855  0.00  0.00    -0.204 F 
ATOM     16  C   UNL     1      33.934 -14.318 -22.841  0.00  0.00    +0.058 C 
ATOM     17  C   UNL     1      34.725 -15.383 -22.413  0.00  0.00    +0.034 C 
ATOM     18  C   UNL     1      33.384 -14.329 -24.123  0.00  0.00    +0.034 C 
ATOM     19  C   UNL     1      33.627 -15.405 -24.977  0.00  0.00    +0.143 C 
ATOM     20  C   UNL     1      34.968 -16.459 -23.266  0.00  0.00    +0.143 C 
ATOM     21  C   UNL     1      34.419 -16.470 -24.548  0.00  0.00    +0.059 C 
ENDBRANCH  12  16
ENDBRANCH   3  11
BRANCH   4  22
ATOM     22  C   UNL     1      34.186  -8.778 -22.832  0.00  0.00    +0.009 C 
BRANCH  22  24
ATOM     23  N   UNL     1      32.792  -6.485 -25.496  0.00  0.00    -0.243 NA
ATOM     24  C   UNL     1      34.077  -7.640 -23.805  0.00  0.00    -0.005 C 
ATOM     25  C   UNL     1      35.102  -6.710 -23.939  0.00  0.00    -0.001 C 
ATOM     26  C   UNL     1      32.953  -7.485 -24.601  0.00  0.00    +0.095 C 
ATOM     27  C   UNL     1      34.974  -5.668 -24.850  0.00  0.00    +0.020 C 
ATOM     28  C   UNL     1      33.809  -5.600 -25.598  0.00  0.00    +0.099 C 
ENDBRANCH  22  24
ENDBRANCH   4  22
TORSDOF 4
ENDMDL
