MODEL 1
REMARK VINA RESULT:     -10.9      0.000      0.000
REMARK  Name = 11647372
REMARK  1 active torsions:
REMARK  status: ('A' for Active; 'I' for Inactive)
REMARK    1  A    between atoms: C_22  and  C_30
REMARK                            x       y       z     vdW  Elec       q    Type
REMARK                         _______ _______ _______ _____ _____    ______ ____
ROOT
ATOM      1  O   UNL     1      36.052 -20.930 -19.774  0.00  0.00    -0.350 OA
ATOM      2  O   UNL     1      29.293 -24.541 -14.065  0.00  0.00    -0.350 OA
ATOM      3  N   UNL     1      35.287 -22.210 -17.393  0.00  0.00    -0.228 N 
ATOM      4  N   UNL     1      32.000 -24.204 -14.747  0.00  0.00    -0.228 N 
ATOM      5  N   UNL     1      36.490 -24.585 -13.571  0.00  0.00    -0.161 N 
ATOM      6  N   UNL     1      33.616 -23.194 -16.094  0.00  0.00    -0.246 NA
ATOM      7  N   UNL     1      34.239 -24.417 -14.125  0.00  0.00    -0.246 NA
ATOM      8  N   UNL     1      35.928 -23.392 -15.486  0.00  0.00    -0.246 NA
ATOM      9  N   UNL     1      37.456 -25.257 -11.685  0.00  0.00    -0.387 NA
ATOM     10  C   UNL     1      34.430 -22.284 -18.584  0.00  0.00    +0.135 C 
ATOM     11  C   UNL     1      36.700 -21.920 -17.656  0.00  0.00    +0.135 C 
ATOM     12  C   UNL     1      30.994 -23.228 -15.190  0.00  0.00    +0.135 C 
ATOM     13  C   UNL     1      31.625 -24.994 -13.569  0.00  0.00    +0.135 C 
ATOM     14  C   UNL     1      34.928 -22.967 -16.273  0.00  0.00    +0.225 C 
ATOM     15  C   UNL     1      33.346 -23.926 -15.000  0.00  0.00    +0.225 C 
ATOM     16  C   UNL     1      34.665 -21.062 -19.465  0.00  0.00    +0.164 C 
ATOM     17  C   UNL     1      36.815 -20.718 -18.587  0.00  0.00    +0.164 C 
ATOM     18  C   UNL     1      29.632 -23.903 -15.297  0.00  0.00    +0.164 C 
ATOM     19  C   UNL     1      30.229 -25.575 -13.762  0.00  0.00    +0.164 C 
ATOM     20  C   UNL     1      35.504 -24.108 -14.437  0.00  0.00    +0.235 C 
ATOM     21  C   UNL     1      37.776 -24.916 -13.916  0.00  0.00    +0.095 C 
ATOM     22  C   UNL     1      36.348 -24.805 -12.230  0.00  0.00    +0.244 C 
ATOM     23  C   UNL     1      38.359 -25.332 -12.722  0.00  0.00    +0.129 C 
ATOM     24  C   UNL     1      38.458 -24.887 -15.132  0.00  0.00    +0.018 C 
ATOM     25  C   UNL     1      39.701 -25.747 -12.723  0.00  0.00    +0.086 C 
ATOM     26  C   UNL     1      39.793 -25.305 -15.115  0.00  0.00    -0.003 C 
ATOM     27  C   UNL     1      40.405 -25.727 -13.933  0.00  0.00    -0.019 C 
ENDROOT
BRANCH  22  30
ATOM     28  F   UNL     1      34.885 -23.220 -11.287  0.00  0.00    -0.189 F 
ATOM     29  F   UNL     1      35.080 -25.138 -10.275  0.00  0.00    -0.189 F 
ATOM     30  C   UNL     1      35.081 -24.554 -11.510  0.00  0.00    +0.385 C 
ENDBRANCH  22  30
TORSDOF 1
ENDMDL
MODEL 2
REMARK VINA RESULT:     -10.9      2.675      6.905
REMARK  Name = 11647372
REMARK  1 active torsions:
REMARK  status: ('A' for Active; 'I' for Inactive)
REMARK    1  A    between atoms: C_22  and  C_30
REMARK                            x       y       z     vdW  Elec       q    Type
REMARK                         _______ _______ _______ _____ _____    ______ ____
ROOT
ATOM      1  O   UNL     1      29.441 -24.248 -13.999  0.00  0.00    -0.350 OA
ATOM      2  O   UNL     1      38.611 -26.281 -12.246  0.00  0.00    -0.350 OA
ATOM      3  N   UNL     1      32.176 -23.836 -14.489  0.00  0.00    -0.228 N 
ATOM      4  N   UNL     1      36.635 -25.034 -13.808  0.00  0.00    -0.228 N 
ATOM      5  N   UNL     1      35.522 -21.994 -17.155  0.00  0.00    -0.161 N 
ATOM      6  N   UNL     1      34.395 -24.459 -14.120  0.00  0.00    -0.246 NA
ATOM      7  N   UNL     1      36.117 -23.508 -15.495  0.00  0.00    -0.246 NA
ATOM      8  N   UNL     1      33.824 -22.892 -15.845  0.00  0.00    -0.246 NA
ATOM      9  N   UNL     1      36.783 -20.611 -18.355  0.00  0.00    -0.387 NA
ATOM     10  C   UNL     1      31.706 -25.111 -13.933  0.00  0.00    +0.135 C 
ATOM     11  C   UNL     1      31.168 -23.064 -15.224  0.00  0.00    +0.135 C 
ATOM     12  C   UNL     1      36.375 -25.355 -12.398  0.00  0.00    +0.135 C 
ATOM     13  C   UNL     1      38.052 -24.912 -14.169  0.00  0.00    +0.135 C 
ATOM     14  C   UNL     1      33.527 -23.724 -14.835  0.00  0.00    +0.225 C 
ATOM     15  C   UNL     1      35.672 -24.300 -14.506  0.00  0.00    +0.225 C 
ATOM     16  C   UNL     1      30.406 -24.892 -13.167  0.00  0.00    +0.164 C 
ATOM     17  C   UNL     1      29.895 -22.954 -14.390  0.00  0.00    +0.164 C 
ATOM     18  C   UNL     1      37.234 -26.540 -11.972  0.00  0.00    +0.164 C 
ATOM     19  C   UNL     1      38.822 -26.120 -13.648  0.00  0.00    +0.164 C 
ATOM     20  C   UNL     1      35.135 -22.840 -16.114  0.00  0.00    +0.235 C 
ATOM     21  C   UNL     1      34.771 -21.676 -18.259  0.00  0.00    +0.095 C 
ATOM     22  C   UNL     1      36.714 -21.334 -17.259  0.00  0.00    +0.244 C 
ATOM     23  C   UNL     1      35.580 -20.812 -18.992  0.00  0.00    +0.129 C 
ATOM     24  C   UNL     1      33.492 -22.058 -18.666  0.00  0.00    +0.018 C 
ATOM     25  C   UNL     1      35.101 -20.289 -20.204  0.00  0.00    +0.086 C 
ATOM     26  C   UNL     1      33.032 -21.529 -19.876  0.00  0.00    -0.003 C 
ATOM     27  C   UNL     1      33.821 -20.659 -20.633  0.00  0.00    -0.019 C 
ENDROOT
BRANCH  22  30
ATOM     28  F   UNL     1      38.599 -20.352 -16.246  0.00  0.00    -0.189 F 
ATOM     29  F   UNL     1      38.589 -22.518 -16.469  0.00  0.00    -0.189 F 
ATOM     30  C   UNL     1      37.777 -21.444 -16.236  0.00  0.00    +0.385 C 
ENDBRANCH  22  30
TORSDOF 1
ENDMDL
MODEL 3
REMARK VINA RESULT:      -9.5      1.988      5.599
REMARK  Name = 11647372
REMARK  1 active torsions:
REMARK  status: ('A' for Active; 'I' for Inactive)
REMARK    1  A    between atoms: C_22  and  C_30
REMARK                            x       y       z     vdW  Elec       q    Type
REMARK                         _______ _______ _______ _____ _____    ______ ____
ROOT
ATOM      1  O   UNL     1      29.148 -24.601 -14.567  0.00  0.00    -0.350 OA
ATOM      2  O   UNL     1      35.782 -20.916 -20.374  0.00  0.00    -0.350 OA
ATOM      3  N   UNL     1      31.834 -24.041 -15.170  0.00  0.00    -0.228 N 
ATOM      4  N   UNL     1      35.030 -22.000 -17.891  0.00  0.00    -0.228 N 
ATOM      5  N   UNL     1      36.272 -23.796 -13.778  0.00  0.00    -0.161 N 
ATOM      6  N   UNL     1      33.405 -23.012 -16.557  0.00  0.00    -0.246 NA
ATOM      7  N   UNL     1      35.691 -22.888 -15.837  0.00  0.00    -0.246 NA
ATOM      8  N   UNL     1      34.047 -23.937 -14.438  0.00  0.00    -0.246 NA
ATOM      9  N   UNL     1      38.274 -24.245 -12.922  0.00  0.00    -0.387 NA
ATOM     10  C   UNL     1      30.757 -23.236 -15.762  0.00  0.00    +0.135 C 
ATOM     11  C   UNL     1      31.484 -24.737 -13.927  0.00  0.00    +0.135 C 
ATOM     12  C   UNL     1      34.248 -22.298 -19.100  0.00  0.00    +0.135 C 
ATOM     13  C   UNL     1      36.418 -21.590 -18.131  0.00  0.00    +0.135 C 
ATOM     14  C   UNL     1      33.156 -23.645 -15.398  0.00  0.00    +0.225 C 
ATOM     15  C   UNL     1      34.693 -22.664 -16.708  0.00  0.00    +0.225 C 
ATOM     16  C   UNL     1      29.481 -24.066 -15.847  0.00  0.00    +0.164 C 
ATOM     17  C   UNL     1      30.169 -25.487 -14.109  0.00  0.00    +0.164 C 
ATOM     18  C   UNL     1      34.402 -21.163 -20.105  0.00  0.00    +0.164 C 
ATOM     19  C   UNL     1      36.455 -20.493 -19.188  0.00  0.00    +0.164 C 
ATOM     20  C   UNL     1      35.288 -23.527 -14.731  0.00  0.00    +0.235 C 
ATOM     21  C   UNL     1      36.080 -23.883 -12.422  0.00  0.00    +0.095 C 
ATOM     22  C   UNL     1      37.597 -24.019 -14.027  0.00  0.00    +0.244 C 
ATOM     23  C   UNL     1      37.344 -24.165 -11.911  0.00  0.00    +0.129 C 
ATOM     24  C   UNL     1      34.945 -23.745 -11.624  0.00  0.00    +0.018 C 
ATOM     25  C   UNL     1      37.503 -24.321 -10.524  0.00  0.00    +0.086 C 
ATOM     26  C   UNL     1      35.121 -23.902 -10.246  0.00  0.00    -0.003 C 
ATOM     27  C   UNL     1      36.376 -24.186  -9.703  0.00  0.00    -0.019 C 
ENDROOT
BRANCH  22  30
ATOM     28  F   UNL     1      39.317 -24.735 -15.466  0.00  0.00    -0.189 F 
ATOM     29  F   UNL     1      38.510 -22.737 -15.777  0.00  0.00    -0.189 F 
ATOM     30  C   UNL     1      38.166 -24.002 -15.392  0.00  0.00    +0.385 C 
ENDBRANCH  22  30
TORSDOF 1
ENDMDL
