MODEL 1
REMARK VINA RESULT:     -11.4      0.000      0.000
REMARK  Name = 10250490
REMARK  6 active torsions:
REMARK  status: ('A' for Active; 'I' for Inactive)
REMARK    1  A    between atoms: N_2  and  C_18
REMARK    2  A    between atoms: C_3  and  C_6
REMARK    3  A    between atoms: C_5  and  N_12
REMARK    4  A    between atoms: C_18  and  C_19
REMARK    5  A    between atoms: C_19  and  N_21
REMARK    6  A    between atoms: C_22  and  C_26
REMARK                            x       y       z     vdW  Elec       q    Type
REMARK                         _______ _______ _______ _____ _____    ______ ____
ROOT
ATOM      1  O   UNL     1      34.122 -23.461 -17.836  0.00  0.00    -0.270 OA
ATOM      2  N   UNL     1      35.849 -22.313 -16.801  0.00  0.00    -0.299 N 
ATOM      3  C   UNL     1      34.906 -22.496 -17.817  0.00  0.00    +0.246 C 
ATOM      4  H   UNL     1      36.440 -21.526 -16.847  0.00  0.00    +0.150 HD
ENDROOT
BRANCH   3   6
ATOM      5  C   UNL     1      34.852 -19.617 -20.937  0.00  0.00    +0.058 C 
ATOM      6  C   UNL     1      34.888 -21.510 -18.886  0.00  0.00    +0.053 C 
ATOM      7  C   UNL     1      36.065 -20.010 -20.369  0.00  0.00    +0.015 C 
ATOM      8  C   UNL     1      33.657 -20.172 -20.478  0.00  0.00    +0.015 C 
ATOM      9  C   UNL     1      36.083 -20.957 -19.345  0.00  0.00    +0.006 C 
ATOM     10  C   UNL     1      33.675 -21.118 -19.453  0.00  0.00    +0.006 C 
BRANCH   5  12
ATOM     11  O   UNL     1      35.313 -16.782 -20.599  0.00  0.00    -0.269 OA
ATOM     12  N   UNL     1      34.835 -18.633 -22.001  0.00  0.00    -0.233 N 
ATOM     13  C   UNL     1      35.117 -17.273 -21.711  0.00  0.00    +0.257 C 
ATOM     14  C   UNL     1      34.520 -19.009 -23.308  0.00  0.00    +0.072 C 
ATOM     15  C   UNL     1      35.125 -16.332 -22.874  0.00  0.00    +0.059 C 
ATOM     16  C   UNL     1      34.500 -18.142 -24.327  0.00  0.00    +0.017 C 
ATOM     17  C   UNL     1      34.819 -16.764 -24.100  0.00  0.00    +0.006 C 
ENDBRANCH   5  12
ENDBRANCH   3   6
BRANCH   2  18
ATOM     18  C   UNL     1      36.006 -23.217 -15.684  0.00  0.00    +0.111 C 
BRANCH  18  19
ATOM     19  C   UNL     1      35.122 -22.837 -14.508  0.00  0.00    +0.111 C 
BRANCH  19  21
ATOM     20  O   UNL     1      33.489 -24.345 -12.692  0.00  0.00    -0.270 OA
ATOM     21  N   UNL     1      33.755 -23.235 -14.711  0.00  0.00    -0.299 N 
ATOM     22  C   UNL     1      33.040 -23.968 -13.771  0.00  0.00    +0.252 C 
ATOM     23  H   UNL     1      33.308 -22.978 -15.550  0.00  0.00    +0.150 HD
BRANCH  22  26
ATOM     24 CL   UNL     1      28.226 -24.231 -16.368  0.00  0.00    -0.075 Cl
ATOM     25  S   UNL     1      31.002 -23.602 -15.521  0.00  0.00    -0.071 S 
ATOM     26  C   UNL     1      31.646 -24.323 -14.142  0.00  0.00    +0.084 C 
ATOM     27  C   UNL     1      30.830 -25.167 -13.491  0.00  0.00    +0.012 C 
ATOM     28  C   UNL     1      29.572 -25.243 -14.157  0.00  0.00    +0.019 C 
ATOM     29  C   UNL     1      29.530 -24.442 -15.277  0.00  0.00    +0.087 C 
ENDBRANCH  22  26
ENDBRANCH  19  21
ENDBRANCH  18  19
ENDBRANCH   2  18
TORSDOF 6
ENDMDL
MODEL 2
REMARK VINA RESULT:     -11.2      3.236      4.169
REMARK  Name = 10250490
REMARK  6 active torsions:
REMARK  status: ('A' for Active; 'I' for Inactive)
REMARK    1  A    between atoms: N_2  and  C_18
REMARK    2  A    between atoms: C_3  and  C_6
REMARK    3  A    between atoms: C_5  and  N_12
REMARK    4  A    between atoms: C_18  and  C_19
REMARK    5  A    between atoms: C_19  and  N_21
REMARK    6  A    between atoms: C_22  and  C_26
REMARK                            x       y       z     vdW  Elec       q    Type
REMARK                         _______ _______ _______ _____ _____    ______ ____
ROOT
ATOM      1  O   UNL     1      35.463 -22.943 -17.292  0.00  0.00    -0.270 OA
ATOM      2  N   UNL     1      33.149 -22.814 -17.322  0.00  0.00    -0.299 N 
ATOM      3  C   UNL     1      34.425 -22.469 -17.782  0.00  0.00    +0.246 C 
ATOM      4  H   UNL     1      32.368 -22.401 -17.757  0.00  0.00    +0.150 HD
ENDROOT
BRANCH   3   6
ATOM      5  C   UNL     1      34.634 -19.635 -20.936  0.00  0.00    +0.058 C 
ATOM      6  C   UNL     1      34.496 -21.497 -18.862  0.00  0.00    +0.053 C 
ATOM      7  C   UNL     1      33.393 -20.071 -20.470  0.00  0.00    +0.015 C 
ATOM      8  C   UNL     1      35.806 -20.130 -20.363  0.00  0.00    +0.015 C 
ATOM      9  C   UNL     1      33.324 -21.002 -19.434  0.00  0.00    +0.006 C 
ATOM     10  C   UNL     1      35.737 -21.062 -19.327  0.00  0.00    +0.006 C 
BRANCH   5  12
ATOM     11  O   UNL     1      35.276 -16.832 -20.628  0.00  0.00    -0.269 OA
ATOM     12  N   UNL     1      34.705 -18.668 -22.014  0.00  0.00    -0.233 N 
ATOM     13  C   UNL     1      35.071 -17.326 -21.737  0.00  0.00    +0.257 C 
ATOM     14  C   UNL     1      34.394 -19.043 -23.322  0.00  0.00    +0.072 C 
ATOM     15  C   UNL     1      35.167 -16.406 -22.912  0.00  0.00    +0.059 C 
ATOM     16  C   UNL     1      34.454 -18.192 -24.354  0.00  0.00    +0.017 C 
ATOM     17  C   UNL     1      34.860 -16.836 -24.139  0.00  0.00    +0.006 C 
ENDBRANCH   5  12
ENDBRANCH   3   6
BRANCH   2  18
ATOM     18  C   UNL     1      32.915 -23.746 -16.242  0.00  0.00    +0.111 C 
BRANCH  18  19
ATOM     19  C   UNL     1      33.387 -23.204 -14.904  0.00  0.00    +0.111 C 
BRANCH  19  21
ATOM     20  O   UNL     1      34.038 -24.263 -12.316  0.00  0.00    -0.270 OA
ATOM     21  N   UNL     1      34.643 -23.779 -14.503  0.00  0.00    -0.299 N 
ATOM     22  C   UNL     1      34.868 -24.269 -13.222  0.00  0.00    +0.252 C 
ATOM     23  H   UNL     1      35.372 -23.827 -15.163  0.00  0.00    +0.150 HD
BRANCH  22  26
ATOM     24 CL   UNL     1      40.128 -25.689 -13.776  0.00  0.00    -0.075 Cl
ATOM     25  S   UNL     1      37.374 -24.654 -14.182  0.00  0.00    -0.071 S 
ATOM     26  C   UNL     1      36.227 -24.807 -12.958  0.00  0.00    +0.084 C 
ATOM     27  C   UNL     1      36.649 -25.412 -11.837  0.00  0.00    +0.012 C 
ATOM     28  C   UNL     1      38.018 -25.788 -11.968  0.00  0.00    +0.019 C 
ATOM     29  C   UNL     1      38.536 -25.434 -13.195  0.00  0.00    +0.087 C 
ENDBRANCH  22  26
ENDBRANCH  19  21
ENDBRANCH  18  19
ENDBRANCH   2  18
TORSDOF 6
ENDMDL
MODEL 3
REMARK VINA RESULT:     -10.5      4.599     10.291
REMARK  Name = 10250490
REMARK  6 active torsions:
REMARK  status: ('A' for Active; 'I' for Inactive)
REMARK    1  A    between atoms: N_2  and  C_18
REMARK    2  A    between atoms: C_3  and  C_6
REMARK    3  A    between atoms: C_5  and  N_12
REMARK    4  A    between atoms: C_18  and  C_19
REMARK    5  A    between atoms: C_19  and  N_21
REMARK    6  A    between atoms: C_22  and  C_26
REMARK                            x       y       z     vdW  Elec       q    Type
REMARK                         _______ _______ _______ _____ _____    ______ ____
ROOT
ATOM      1  O   UNL     1      33.849 -21.676 -19.393  0.00  0.00    -0.270 OA
ATOM      2  N   UNL     1      35.825 -20.477 -19.575  0.00  0.00    -0.299 N 
ATOM      3  C   UNL     1      34.974 -21.392 -18.946  0.00  0.00    +0.246 C 
ATOM      4  H   UNL     1      36.704 -20.299 -19.167  0.00  0.00    +0.150 HD
ENDROOT
BRANCH   3   6
ATOM      5  C   UNL     1      36.369 -23.153 -15.344  0.00  0.00    +0.058 C 
ATOM      6  C   UNL     1      35.451 -21.997 -17.712  0.00  0.00    +0.053 C 
ATOM      7  C   UNL     1      35.043 -23.330 -15.741  0.00  0.00    +0.015 C 
ATOM      8  C   UNL     1      37.236 -22.397 -16.134  0.00  0.00    +0.015 C 
ATOM      9  C   UNL     1      34.585 -22.753 -16.924  0.00  0.00    +0.006 C 
ATOM     10  C   UNL     1      36.778 -21.819 -17.317  0.00  0.00    +0.006 C 
BRANCH   5  12
ATOM     11  O   UNL     1      37.120 -25.927 -15.018  0.00  0.00    -0.269 OA
ATOM     12  N   UNL     1      36.844 -23.753 -14.113  0.00  0.00    -0.233 N 
ATOM     13  C   UNL     1      37.220 -25.121 -14.092  0.00  0.00    +0.257 C 
ATOM     14  C   UNL     1      36.914 -23.001 -12.939  0.00  0.00    +0.072 C 
ATOM     15  C   UNL     1      37.745 -25.648 -12.794  0.00  0.00    +0.059 C 
ATOM     16  C   UNL     1      37.355 -23.504 -11.781  0.00  0.00    +0.017 C 
ATOM     17  C   UNL     1      37.789 -24.867 -11.712  0.00  0.00    +0.006 C 
ENDBRANCH   5  12
ENDBRANCH   3   6
BRANCH   2  18
ATOM     18  C   UNL     1      35.485 -19.777 -20.793  0.00  0.00    +0.111 C 
BRANCH  18  19
ATOM     19  C   UNL     1      36.482 -18.677 -21.121  0.00  0.00    +0.111 C 
BRANCH  19  21
ATOM     20  O   UNL     1      35.079 -16.297 -20.343  0.00  0.00    -0.270 OA
ATOM     21  N   UNL     1      35.921 -17.686 -21.999  0.00  0.00    -0.299 N 
ATOM     22  C   UNL     1      35.255 -16.560 -21.529  0.00  0.00    +0.252 C 
ATOM     23  H   UNL     1      36.012 -17.811 -22.971  0.00  0.00    +0.150 HD
BRANCH  22  26
ATOM     24 CL   UNL     1      33.327 -12.121 -24.091  0.00  0.00    -0.075 Cl
ATOM     25  S   UNL     1      34.415 -14.049 -22.112  0.00  0.00    -0.071 S 
ATOM     26  C   UNL     1      34.711 -15.644 -22.565  0.00  0.00    +0.084 C 
ATOM     27  C   UNL     1      34.424 -15.951 -23.840  0.00  0.00    +0.012 C 
ATOM     28  C   UNL     1      33.919 -14.803 -24.518  0.00  0.00    +0.019 C 
ATOM     29  C   UNL     1      33.863 -13.699 -23.695  0.00  0.00    +0.087 C 
ENDBRANCH  22  26
ENDBRANCH  19  21
ENDBRANCH  18  19
ENDBRANCH   2  18
TORSDOF 6
ENDMDL
MODEL 4
REMARK VINA RESULT:     -10.4      7.566     12.445
REMARK  Name = 10250490
REMARK  6 active torsions:
REMARK  status: ('A' for Active; 'I' for Inactive)
REMARK    1  A    between atoms: N_2  and  C_18
REMARK    2  A    between atoms: C_3  and  C_6
REMARK    3  A    between atoms: C_5  and  N_12
REMARK    4  A    between atoms: C_18  and  C_19
REMARK    5  A    between atoms: C_19  and  N_21
REMARK    6  A    between atoms: C_22  and  C_26
REMARK                            x       y       z     vdW  Elec       q    Type
REMARK                         _______ _______ _______ _____ _____    ______ ____
ROOT
ATOM      1  O   UNL     1      33.764 -14.129 -24.885  0.00  0.00    -0.270 OA
ATOM      2  N   UNL     1      34.428 -12.871 -23.055  0.00  0.00    -0.299 N 
ATOM      3  C   UNL     1      34.218 -14.078 -23.729  0.00  0.00    +0.246 C 
ATOM      4  H   UNL     1      34.791 -12.903 -22.140  0.00  0.00    +0.150 HD
ENDROOT
BRANCH   3   6
ATOM      5  C   UNL     1      35.143 -17.646 -21.623  0.00  0.00    +0.058 C 
ATOM      6  C   UNL     1      34.534 -15.301 -23.006  0.00  0.00    +0.053 C 
ATOM      7  C   UNL     1      34.967 -16.450 -20.927  0.00  0.00    +0.015 C 
ATOM      8  C   UNL     1      35.014 -17.669 -23.012  0.00  0.00    +0.015 C 
ATOM      9  C   UNL     1      34.663 -15.278 -21.618  0.00  0.00    +0.006 C 
ATOM     10  C   UNL     1      34.710 -16.496 -23.704  0.00  0.00    +0.006 C 
BRANCH   5  12
ATOM     11  O   UNL     1      37.812 -18.576 -21.006  0.00  0.00    -0.269 OA
ATOM     12  N   UNL     1      35.461 -18.864 -20.903  0.00  0.00    -0.233 N 
ATOM     13  C   UNL     1      36.814 -19.190 -20.628  0.00  0.00    +0.257 C 
ATOM     14  C   UNL     1      34.446 -19.732 -20.498  0.00  0.00    +0.072 C 
ATOM     15  C   UNL     1      37.051 -20.439 -19.839  0.00  0.00    +0.059 C 
ATOM     16  C   UNL     1      34.685 -20.862 -19.822  0.00  0.00    +0.017 C 
ATOM     17  C   UNL     1      36.029 -21.220 -19.479  0.00  0.00    +0.006 C 
ENDBRANCH   5  12
ENDBRANCH   3   6
BRANCH   2  18
ATOM     18  C   UNL     1      34.141 -11.575 -23.628  0.00  0.00    +0.111 C 
BRANCH  18  19
ATOM     19  C   UNL     1      32.715 -11.127 -23.350  0.00  0.00    +0.111 C 
BRANCH  19  21
ATOM     20  O   UNL     1      31.773 -10.147 -20.822  0.00  0.00    -0.270 OA
ATOM     21  N   UNL     1      32.655  -9.753 -22.930  0.00  0.00    -0.299 N 
ATOM     22  C   UNL     1      32.181  -9.371 -21.681  0.00  0.00    +0.252 C 
ATOM     23  H   UNL     1      32.961  -9.055 -23.554  0.00  0.00    +0.150 HD
BRANCH  22  26
ATOM     24 CL   UNL     1      30.984  -4.031 -21.895  0.00  0.00    -0.075 Cl
ATOM     25  S   UNL     1      31.121  -6.964 -22.341  0.00  0.00    -0.071 S 
ATOM     26  C   UNL     1      32.158  -7.910 -21.410  0.00  0.00    +0.084 C 
ATOM     27  C   UNL     1      32.883  -7.250 -20.493  0.00  0.00    +0.012 C 
ATOM     28  C   UNL     1      32.581  -5.858 -20.540  0.00  0.00    +0.019 C 
ATOM     29  C   UNL     1      31.638  -5.565 -21.500  0.00  0.00    +0.087 C 
ENDBRANCH  22  26
ENDBRANCH  19  21
ENDBRANCH  18  19
ENDBRANCH   2  18
TORSDOF 6
ENDMDL
MODEL 5
REMARK VINA RESULT:     -10.3      3.201      5.419
REMARK  Name = 10250490
REMARK  6 active torsions:
REMARK  status: ('A' for Active; 'I' for Inactive)
REMARK    1  A    between atoms: N_2  and  C_18
REMARK    2  A    between atoms: C_3  and  C_6
REMARK    3  A    between atoms: C_5  and  N_12
REMARK    4  A    between atoms: C_18  and  C_19
REMARK    5  A    between atoms: C_19  and  N_21
REMARK    6  A    between atoms: C_22  and  C_26
REMARK                            x       y       z     vdW  Elec       q    Type
REMARK                         _______ _______ _______ _____ _____    ______ ____
ROOT
ATOM      1  O   UNL     1      37.010 -18.369 -21.523  0.00  0.00    -0.270 OA
ATOM      2  N   UNL     1      34.985 -19.031 -20.610  0.00  0.00    -0.299 N 
ATOM      3  C   UNL     1      35.823 -18.115 -21.254  0.00  0.00    +0.246 C 
ATOM      4  H   UNL     1      34.055 -18.764 -20.427  0.00  0.00    +0.150 HD
ENDROOT
BRANCH   3   6
ATOM      5  C   UNL     1      34.158 -14.331 -22.220  0.00  0.00    +0.058 C 
ATOM      6  C   UNL     1      35.254 -16.818 -21.584  0.00  0.00    +0.053 C 
ATOM      7  C   UNL     1      34.376 -14.679 -20.887  0.00  0.00    +0.015 C 
ATOM      8  C   UNL     1      34.490 -15.228 -23.236  0.00  0.00    +0.015 C 
ATOM      9  C   UNL     1      34.923 -15.921 -20.569  0.00  0.00    +0.006 C 
ATOM     10  C   UNL     1      35.037 -16.472 -22.918  0.00  0.00    +0.006 C 
BRANCH   5  12
ATOM     11  O   UNL     1      31.776 -13.204 -21.030  0.00  0.00    -0.269 OA
ATOM     12  N   UNL     1      33.588 -13.040 -22.550  0.00  0.00    -0.233 N 
ATOM     13  C   UNL     1      32.434 -12.580 -21.863  0.00  0.00    +0.257 C 
ATOM     14  C   UNL     1      34.153 -12.252 -23.554  0.00  0.00    +0.072 C 
ATOM     15  C   UNL     1      31.939 -11.217 -22.231  0.00  0.00    +0.059 C 
ATOM     16  C   UNL     1      33.672 -11.049 -23.889  0.00  0.00    +0.017 C 
ATOM     17  C   UNL     1      32.535 -10.516 -23.199  0.00  0.00    +0.006 C 
ENDBRANCH   5  12
ENDBRANCH   3   6
BRANCH   2  18
ATOM     18  C   UNL     1      35.410 -20.349 -20.197  0.00  0.00    +0.111 C 
BRANCH  18  19
ATOM     19  C   UNL     1      34.237 -21.294 -19.996  0.00  0.00    +0.111 C 
BRANCH  19  21
ATOM     20  O   UNL     1      33.856 -23.924 -18.910  0.00  0.00    -0.270 OA
ATOM     21  N   UNL     1      34.047 -21.631 -18.611  0.00  0.00    -0.299 N 
ATOM     22  C   UNL     1      33.870 -22.939 -18.176  0.00  0.00    +0.252 C 
ATOM     23  H   UNL     1      34.043 -20.906 -17.945  0.00  0.00    +0.150 HD
BRANCH  22  26
ATOM     24 CL   UNL     1      31.522 -23.495 -13.260  0.00  0.00    -0.075 Cl
ATOM     25  S   UNL     1      32.072 -23.142 -16.156  0.00  0.00    -0.071 S 
ATOM     26  C   UNL     1      33.660 -23.118 -16.716  0.00  0.00    +0.084 C 
ATOM     27  C   UNL     1      34.610 -23.266 -15.779  0.00  0.00    +0.012 C 
ATOM     28  C   UNL     1      34.011 -23.411 -14.493  0.00  0.00    +0.019 C 
ATOM     29  C   UNL     1      32.636 -23.362 -14.555  0.00  0.00    +0.087 C 
ENDBRANCH  22  26
ENDBRANCH  19  21
ENDBRANCH  18  19
ENDBRANCH   2  18
TORSDOF 6
ENDMDL
MODEL 6
REMARK VINA RESULT:     -10.0      6.190      9.733
REMARK  Name = 10250490
REMARK  6 active torsions:
REMARK  status: ('A' for Active; 'I' for Inactive)
REMARK    1  A    between atoms: N_2  and  C_18
REMARK    2  A    between atoms: C_3  and  C_6
REMARK    3  A    between atoms: C_5  and  N_12
REMARK    4  A    between atoms: C_18  and  C_19
REMARK    5  A    between atoms: C_19  and  N_21
REMARK    6  A    between atoms: C_22  and  C_26
REMARK                            x       y       z     vdW  Elec       q    Type
REMARK                         _______ _______ _______ _____ _____    ______ ____
ROOT
ATOM      1  O   UNL     1      33.081 -14.578 -24.754  0.00  0.00    -0.270 OA
ATOM      2  N   UNL     1      34.206 -14.896 -22.753  0.00  0.00    -0.299 N 
ATOM      3  C   UNL     1      33.439 -14.141 -23.647  0.00  0.00    +0.246 C 
ATOM      4  H   UNL     1      34.455 -14.489 -21.891  0.00  0.00    +0.150 HD
ENDROOT
BRANCH   3   6
ATOM      5  C   UNL     1      32.413 -10.199 -22.453  0.00  0.00    +0.058 C 
ATOM      6  C   UNL     1      33.087 -12.791 -23.237  0.00  0.00    +0.053 C 
ATOM      7  C   UNL     1      31.766 -11.293 -21.878  0.00  0.00    +0.015 C 
ATOM      8  C   UNL     1      33.397 -10.402 -23.421  0.00  0.00    +0.015 C 
ATOM      9  C   UNL     1      32.104 -12.589 -22.269  0.00  0.00    +0.006 C 
ATOM     10  C   UNL     1      33.734 -11.697 -23.813  0.00  0.00    +0.006 C 
BRANCH   5  12
ATOM     11  O   UNL     1      31.035  -8.261 -24.101  0.00  0.00    -0.269 OA
ATOM     12  N   UNL     1      32.060  -8.853 -22.047  0.00  0.00    -0.233 N 
ATOM     13  C   UNL     1      31.347  -8.009 -22.937  0.00  0.00    +0.257 C 
ATOM     14  C   UNL     1      32.438  -8.370 -20.792  0.00  0.00    +0.072 C 
ATOM     15  C   UNL     1      30.982  -6.653 -22.420  0.00  0.00    +0.059 C 
ATOM     16  C   UNL     1      32.129  -7.141 -20.365  0.00  0.00    +0.017 C 
ATOM     17  C   UNL     1      31.372  -6.261 -21.205  0.00  0.00    +0.006 C 
ENDBRANCH   5  12
ENDBRANCH   3   6
BRANCH   2  18
ATOM     18  C   UNL     1      34.654 -16.244 -23.024  0.00  0.00    +0.111 C 
BRANCH  18  19
ATOM     19  C   UNL     1      35.689 -16.719 -22.018  0.00  0.00    +0.111 C 
BRANCH  19  21
ATOM     20  O   UNL     1      35.288 -19.480 -22.692  0.00  0.00    -0.270 OA
ATOM     21  N   UNL     1      35.170 -17.746 -21.156  0.00  0.00    -0.299 N 
ATOM     22  C   UNL     1      35.010 -19.063 -21.571  0.00  0.00    +0.252 C 
ATOM     23  H   UNL     1      34.918 -17.507 -20.235  0.00  0.00    +0.150 HD
BRANCH  22  26
ATOM     24 CL   UNL     1      34.494 -22.823 -17.624  0.00  0.00    -0.075 Cl
ATOM     25  S   UNL     1      35.516 -20.917 -19.659  0.00  0.00    -0.071 S 
ATOM     26  C   UNL     1      34.437 -19.998 -20.569  0.00  0.00    +0.084 C 
ATOM     27  C   UNL     1      33.136 -20.197 -20.306  0.00  0.00    +0.012 C 
ATOM     28  C   UNL     1      32.988 -21.176 -19.280  0.00  0.00    +0.019 C 
ATOM     29  C   UNL     1      34.203 -21.649 -18.838  0.00  0.00    +0.087 C 
ENDBRANCH  22  26
ENDBRANCH  19  21
ENDBRANCH  18  19
ENDBRANCH   2  18
TORSDOF 6
ENDMDL
MODEL 7
REMARK VINA RESULT:     -10.0      6.661     10.857
REMARK  Name = 10250490
REMARK  6 active torsions:
REMARK  status: ('A' for Active; 'I' for Inactive)
REMARK    1  A    between atoms: N_2  and  C_18
REMARK    2  A    between atoms: C_3  and  C_6
REMARK    3  A    between atoms: C_5  and  N_12
REMARK    4  A    between atoms: C_18  and  C_19
REMARK    5  A    between atoms: C_19  and  N_21
REMARK    6  A    between atoms: C_22  and  C_26
REMARK                            x       y       z     vdW  Elec       q    Type
REMARK                         _______ _______ _______ _____ _____    ______ ____
ROOT
ATOM      1  O   UNL     1      33.663 -14.505 -21.998  0.00  0.00    -0.270 OA
ATOM      2  N   UNL     1      33.154 -14.198 -24.239  0.00  0.00    -0.299 N 
ATOM      3  C   UNL     1      33.305 -13.753 -22.921  0.00  0.00    +0.246 C 
ATOM      4  H   UNL     1      32.868 -13.548 -24.921  0.00  0.00    +0.150 HD
ENDROOT
BRANCH   3   6
ATOM      5  C   UNL     1      32.411  -9.675 -22.153  0.00  0.00    +0.058 C 
ATOM      6  C   UNL     1      32.998 -12.356 -22.657  0.00  0.00    +0.053 C 
ATOM      7  C   UNL     1      31.866 -10.673 -21.345  0.00  0.00    +0.015 C 
ATOM      8  C   UNL     1      33.251 -10.018 -23.213  0.00  0.00    +0.015 C 
ATOM      9  C   UNL     1      32.160 -12.013 -21.597  0.00  0.00    +0.006 C 
ATOM     10  C   UNL     1      33.544 -11.358 -23.465  0.00  0.00    +0.006 C 
BRANCH   5  12
ATOM     11  O   UNL     1      30.426  -8.108 -23.557  0.00  0.00    -0.269 OA
ATOM     12  N   UNL     1      32.104  -8.282 -21.892  0.00  0.00    -0.233 N 
ATOM     13  C   UNL     1      31.076  -7.635 -22.625  0.00  0.00    +0.257 C 
ATOM     14  C   UNL     1      32.827  -7.565 -20.937  0.00  0.00    +0.072 C 
ATOM     15  C   UNL     1      30.792  -6.213 -22.259  0.00  0.00    +0.059 C 
ATOM     16  C   UNL     1      32.577  -6.282 -20.651  0.00  0.00    +0.017 C 
ATOM     17  C   UNL     1      31.522  -5.591 -21.330  0.00  0.00    +0.006 C 
ENDBRANCH   5  12
ENDBRANCH   3   6
BRANCH   2  18
ATOM     18  C   UNL     1      33.397 -15.561 -24.655  0.00  0.00    +0.111 C 
BRANCH  18  19
ATOM     19  C   UNL     1      34.880 -15.879 -24.741  0.00  0.00    +0.111 C 
BRANCH  19  21
ATOM     20  O   UNL     1      34.205 -18.613 -24.183  0.00  0.00    -0.270 OA
ATOM     21  N   UNL     1      35.329 -16.663 -23.622  0.00  0.00    -0.299 N 
ATOM     22  C   UNL     1      34.948 -17.986 -23.433  0.00  0.00    +0.252 C 
ATOM     23  H   UNL     1      35.930 -16.245 -22.963  0.00  0.00    +0.150 HD
BRANCH  22  26
ATOM     24 CL   UNL     1      35.440 -21.199 -19.026  0.00  0.00    -0.075 Cl
ATOM     25  S   UNL     1      34.497 -19.801 -21.470  0.00  0.00    -0.071 S 
ATOM     26  C   UNL     1      35.476 -18.650 -22.213  0.00  0.00    +0.084 C 
ATOM     27  C   UNL     1      36.664 -18.431 -21.628  0.00  0.00    +0.012 C 
ATOM     28  C   UNL     1      36.804 -19.261 -20.478  0.00  0.00    +0.019 C 
ATOM     29  C   UNL     1      35.698 -20.057 -20.277  0.00  0.00    +0.087 C 
ENDBRANCH  22  26
ENDBRANCH  19  21
ENDBRANCH  18  19
ENDBRANCH   2  18
TORSDOF 6
ENDMDL
MODEL 8
REMARK VINA RESULT:      -9.9      6.579     10.743
REMARK  Name = 10250490
REMARK  6 active torsions:
REMARK  status: ('A' for Active; 'I' for Inactive)
REMARK    1  A    between atoms: N_2  and  C_18
REMARK    2  A    between atoms: C_3  and  C_6
REMARK    3  A    between atoms: C_5  and  N_12
REMARK    4  A    between atoms: C_18  and  C_19
REMARK    5  A    between atoms: C_19  and  N_21
REMARK    6  A    between atoms: C_22  and  C_26
REMARK                            x       y       z     vdW  Elec       q    Type
REMARK                         _______ _______ _______ _____ _____    ______ ____
ROOT
ATOM      1  O   UNL     1      33.713 -14.501 -22.055  0.00  0.00    -0.270 OA
ATOM      2  N   UNL     1      33.113 -14.289 -24.284  0.00  0.00    -0.299 N 
ATOM      3  C   UNL     1      33.285 -13.797 -22.986  0.00  0.00    +0.246 C 
ATOM      4  H   UNL     1      32.771 -13.676 -24.975  0.00  0.00    +0.150 HD
ENDROOT
BRANCH   3   6
ATOM      5  C   UNL     1      32.210  -9.748 -22.300  0.00  0.00    +0.058 C 
ATOM      6  C   UNL     1      32.917 -12.409 -22.752  0.00  0.00    +0.053 C 
ATOM      7  C   UNL     1      33.184 -10.061 -23.249  0.00  0.00    +0.015 C 
ATOM      8  C   UNL     1      31.589 -10.767 -21.577  0.00  0.00    +0.015 C 
ATOM      9  C   UNL     1      33.537 -11.391 -23.475  0.00  0.00    +0.006 C 
ATOM     10  C   UNL     1      31.943 -12.098 -21.803  0.00  0.00    +0.006 C 
BRANCH   5  12
ATOM     11  O   UNL     1      32.949  -8.196 -19.974  0.00  0.00    -0.269 OA
ATOM     12  N   UNL     1      31.844  -8.365 -22.065  0.00  0.00    -0.233 N 
ATOM     13  C   UNL     1      32.305  -7.700 -20.899  0.00  0.00    +0.257 C 
ATOM     14  C   UNL     1      31.022  -7.687 -22.967  0.00  0.00    +0.072 C 
ATOM     15  C   UNL     1      31.922  -6.261 -20.758  0.00  0.00    +0.059 C 
ATOM     16  C   UNL     1      30.665  -6.408 -22.802  0.00  0.00    +0.017 C 
ATOM     17  C   UNL     1      31.136  -5.675 -21.665  0.00  0.00    +0.006 C 
ENDBRANCH   5  12
ENDBRANCH   3   6
BRANCH   2  18
ATOM     18  C   UNL     1      33.412 -15.650 -24.669  0.00  0.00    +0.111 C 
BRANCH  18  19
ATOM     19  C   UNL     1      34.906 -15.918 -24.721  0.00  0.00    +0.111 C 
BRANCH  19  21
ATOM     20  O   UNL     1      34.249 -18.657 -24.170  0.00  0.00    -0.270 OA
ATOM     21  N   UNL     1      35.353 -16.699 -23.599  0.00  0.00    -0.299 N 
ATOM     22  C   UNL     1      34.981 -18.025 -23.413  0.00  0.00    +0.252 C 
ATOM     23  H   UNL     1      35.946 -16.276 -22.936  0.00  0.00    +0.150 HD
BRANCH  22  26
ATOM     24 CL   UNL     1      35.457 -21.218 -18.991  0.00  0.00    -0.075 Cl
ATOM     25  S   UNL     1      34.521 -19.828 -21.442  0.00  0.00    -0.071 S 
ATOM     26  C   UNL     1      35.506 -18.685 -22.190  0.00  0.00    +0.084 C 
ATOM     27  C   UNL     1      36.695 -18.469 -21.607  0.00  0.00    +0.012 C 
ATOM     28  C   UNL     1      36.831 -19.295 -20.452  0.00  0.00    +0.019 C 
ATOM     29  C   UNL     1      35.721 -20.084 -20.247  0.00  0.00    +0.087 C 
ENDBRANCH  22  26
ENDBRANCH  19  21
ENDBRANCH  18  19
ENDBRANCH   2  18
TORSDOF 6
ENDMDL
MODEL 9
REMARK VINA RESULT:      -9.9      4.380      9.569
REMARK  Name = 10250490
REMARK  6 active torsions:
REMARK  status: ('A' for Active; 'I' for Inactive)
REMARK    1  A    between atoms: N_2  and  C_18
REMARK    2  A    between atoms: C_3  and  C_6
REMARK    3  A    between atoms: C_5  and  N_12
REMARK    4  A    between atoms: C_18  and  C_19
REMARK    5  A    between atoms: C_19  and  N_21
REMARK    6  A    between atoms: C_22  and  C_26
REMARK                            x       y       z     vdW  Elec       q    Type
REMARK                         _______ _______ _______ _____ _____    ______ ____
ROOT
ATOM      1  O   UNL     1      36.759 -18.631 -22.465  0.00  0.00    -0.270 OA
ATOM      2  N   UNL     1      34.473 -18.457 -22.809  0.00  0.00    -0.299 N 
ATOM      3  C   UNL     1      35.600 -18.909 -22.113  0.00  0.00    +0.246 C 
ATOM      4  H   UNL     1      33.583 -18.715 -22.475  0.00  0.00    +0.150 HD
ENDROOT
BRANCH   3   6
ATOM      5  C   UNL     1      34.912 -21.374 -18.726  0.00  0.00    +0.058 C 
ATOM      6  C   UNL     1      35.363 -19.754 -20.953  0.00  0.00    +0.053 C 
ATOM      7  C   UNL     1      33.837 -20.930 -19.497  0.00  0.00    +0.015 C 
ATOM      8  C   UNL     1      36.214 -21.007 -19.070  0.00  0.00    +0.015 C 
ATOM      9  C   UNL     1      34.063 -20.121 -20.610  0.00  0.00    +0.006 C 
ATOM     10  C   UNL     1      36.439 -20.197 -20.183  0.00  0.00    +0.006 C 
BRANCH   5  12
ATOM     11  O   UNL     1      32.374 -22.560 -18.010  0.00  0.00    -0.269 OA
ATOM     12  N   UNL     1      34.677 -22.214 -17.568  0.00  0.00    -0.233 N 
ATOM     13  C   UNL     1      33.390 -22.770 -17.348  0.00  0.00    +0.257 C 
ATOM     14  C   UNL     1      35.702 -22.463 -16.654  0.00  0.00    +0.072 C 
ATOM     15  C   UNL     1      33.246 -23.664 -16.157  0.00  0.00    +0.059 C 
ATOM     16  C   UNL     1      35.540 -23.239 -15.576  0.00  0.00    +0.017 C 
ATOM     17  C   UNL     1      34.274 -23.862 -15.328  0.00  0.00    +0.006 C 
ENDBRANCH   5  12
ENDBRANCH   3   6
BRANCH   2  18
ATOM     18  C   UNL     1      34.544 -17.630 -23.993  0.00  0.00    +0.111 C 
BRANCH  18  19
ATOM     19  C   UNL     1      35.273 -16.322 -23.736  0.00  0.00    +0.111 C 
BRANCH  19  21
ATOM     20  O   UNL     1      34.915 -15.714 -20.954  0.00  0.00    -0.270 OA
ATOM     21  N   UNL     1      34.403 -15.320 -23.181  0.00  0.00    -0.299 N 
ATOM     22  C   UNL     1      34.295 -15.096 -21.815  0.00  0.00    +0.252 C 
ATOM     23  H   UNL     1      33.863 -14.771 -23.796  0.00  0.00    +0.150 HD
BRANCH  22  26
ATOM     24 CL   UNL     1      30.741 -10.930 -21.908  0.00  0.00    -0.075 Cl
ATOM     25  S   UNL     1      32.676 -13.071 -22.609  0.00  0.00    -0.071 S 
ATOM     26  C   UNL     1      33.333 -14.042 -21.400  0.00  0.00    +0.084 C 
ATOM     27  C   UNL     1      32.923 -13.774 -20.150  0.00  0.00    +0.012 C 
ATOM     28  C   UNL     1      31.997 -12.690 -20.161  0.00  0.00    +0.019 C 
ATOM     29  C   UNL     1      31.773 -12.213 -21.434  0.00  0.00    +0.087 C 
ENDBRANCH  22  26
ENDBRANCH  19  21
ENDBRANCH  18  19
ENDBRANCH   2  18
TORSDOF 6
ENDMDL
