MODEL 1
REMARK VINA RESULT:     -12.0      0.000      0.000
REMARK  Name = 44129603
REMARK  3 active torsions:
REMARK  status: ('A' for Active; 'I' for Inactive)
REMARK    1  A    between atoms: N_5  and  C_17
REMARK    2  A    between atoms: C_12  and  C_24
REMARK    3  A    between atoms: C_24  and  O_25
REMARK                            x       y       z     vdW  Elec       q    Type
REMARK                         _______ _______ _______ _____ _____    ______ ____
ROOT
ATOM      1  N   UNL     1      36.658 -22.935 -14.744  0.00  0.00    -0.246 N 
ATOM      2  N   UNL     1      37.627 -23.022 -13.810  0.00  0.00    -0.163 NA
ATOM      3  N   UNL     1      34.074 -22.831 -16.198  0.00  0.00    -0.336 NA
ATOM      4  N   UNL     1      31.756 -23.511 -16.229  0.00  0.00    -0.170 NA
ATOM      5  N   UNL     1      32.700 -22.344 -18.034  0.00  0.00    -0.247 N 
ATOM      6  C   UNL     1      34.476 -24.122 -12.118  0.00  0.00    +0.035 C 
ATOM      7  C   UNL     1      35.612 -23.678 -12.969  0.00  0.00    +0.024 A 
ATOM      8  C   UNL     1      33.320 -24.706 -12.974  0.00  0.00    +0.035 C 
ATOM      9  C   UNL     1      35.436 -23.324 -14.288  0.00  0.00    +0.106 A 
ATOM     10  C   UNL     1      33.117 -24.022 -14.310  0.00  0.00    +0.030 C 
ATOM     11  C   UNL     1      34.169 -23.391 -14.978  0.00  0.00    +0.158 C 
ATOM     12  C   UNL     1      36.980 -23.472 -12.727  0.00  0.00    +0.174 A 
ATOM     13  C   UNL     1      31.924 -24.058 -15.005  0.00  0.00    +0.110 C 
ATOM     14  C   UNL     1      37.007 -22.440 -16.055  0.00  0.00    +0.154 C 
ATOM     15  C   UNL     1      32.852 -22.925 -16.756  0.00  0.00    +0.149 C 
ATOM     16  H   UNL     1      31.792 -22.434 -18.404  0.00  0.00    +0.165 HD
ENDROOT
BRANCH   5  17
ATOM     17  C   UNL     1      33.590 -21.662 -18.883  0.00  0.00    +0.058 C 
ATOM     18  C   UNL     1      33.128 -20.621 -19.688  0.00  0.00    +0.015 C 
ATOM     19  C   UNL     1      34.936 -22.028 -18.919  0.00  0.00    +0.015 C 
ATOM     20  C   UNL     1      34.013 -19.944 -20.529  0.00  0.00    +0.001 C 
ATOM     21  C   UNL     1      35.820 -21.351 -19.760  0.00  0.00    +0.001 C 
ATOM     22  C   UNL     1      35.358 -20.310 -20.565  0.00  0.00    +0.000 C 
ENDBRANCH   5  17
BRANCH  12  24
ATOM     23  O   UNL     1      37.654 -24.720 -10.801  0.00  0.00    -0.243 OA
ATOM     24  C   UNL     1      37.703 -23.695 -11.508  0.00  0.00    +0.357 C 
BRANCH  24  25
ATOM     25  O   UNL     1      38.501 -22.641 -11.153  0.00  0.00    -0.476 OA
ATOM     26  H   UNL     1      38.128 -21.788 -11.039  0.00  0.00    +0.295 HD
ENDBRANCH  24  25
ENDBRANCH  12  24
TORSDOF 3
ENDMDL
MODEL 2
REMARK VINA RESULT:      -9.9     11.417     14.411
REMARK  Name = 44129603
REMARK  3 active torsions:
REMARK  status: ('A' for Active; 'I' for Inactive)
REMARK    1  A    between atoms: N_5  and  C_17
REMARK    2  A    between atoms: C_12  and  C_24
REMARK    3  A    between atoms: C_24  and  O_25
REMARK                            x       y       z     vdW  Elec       q    Type
REMARK                         _______ _______ _______ _____ _____    ______ ____
ROOT
ATOM      1  N   UNL     1      33.253 -12.165 -23.633  0.00  0.00    -0.246 N 
ATOM      2  N   UNL     1      33.773 -13.231 -24.273  0.00  0.00    -0.163 NA
ATOM      3  N   UNL     1      32.302 -10.212 -21.611  0.00  0.00    -0.336 NA
ATOM      4  N   UNL     1      31.468  -9.888 -19.367  0.00  0.00    -0.170 NA
ATOM      5  N   UNL     1      31.600  -8.098 -20.880  0.00  0.00    -0.247 N 
ATOM      6  C   UNL     1      33.405 -14.265 -20.696  0.00  0.00    +0.035 C 
ATOM      7  C   UNL     1      33.451 -13.674 -22.060  0.00  0.00    +0.024 A 
ATOM      8  C   UNL     1      32.339 -13.564 -19.810  0.00  0.00    +0.035 C 
ATOM      9  C   UNL     1      33.036 -12.385 -22.308  0.00  0.00    +0.106 A 
ATOM     10  C   UNL     1      32.190 -12.078 -20.059  0.00  0.00    +0.030 C 
ATOM     11  C   UNL     1      32.481 -11.510 -21.301  0.00  0.00    +0.158 C 
ATOM     12  C   UNL     1      33.896 -14.149 -23.305  0.00  0.00    +0.174 A 
ATOM     13  C   UNL     1      31.668 -11.203 -19.126  0.00  0.00    +0.110 C 
ATOM     14  C   UNL     1      33.016 -10.955 -24.388  0.00  0.00    +0.154 C 
ATOM     15  C   UNL     1      31.800  -9.469 -20.606  0.00  0.00    +0.149 C 
ATOM     16  H   UNL     1      31.233  -7.592 -20.119  0.00  0.00    +0.165 HD
ENDROOT
BRANCH   5  17
ATOM     17  C   UNL     1      31.822  -7.313 -22.026  0.00  0.00    +0.058 C 
ATOM     18  C   UNL     1      33.056  -6.693 -22.218  0.00  0.00    +0.015 C 
ATOM     19  C   UNL     1      30.807  -7.155 -22.970  0.00  0.00    +0.015 C 
ATOM     20  C   UNL     1      33.277  -5.915 -23.356  0.00  0.00    +0.001 C 
ATOM     21  C   UNL     1      31.028  -6.377 -24.107  0.00  0.00    +0.001 C 
ATOM     22  C   UNL     1      32.262  -5.758 -24.300  0.00  0.00    +0.000 C 
ENDBRANCH   5  17
BRANCH  12  24
ATOM     23  O   UNL     1      33.912 -16.286 -24.379  0.00  0.00    -0.243 OA
ATOM     24  C   UNL     1      34.426 -15.445 -23.616  0.00  0.00    +0.357 C 
BRANCH  24  25
ATOM     25  O   UNL     1      35.609 -15.712 -22.980  0.00  0.00    -0.476 OA
ATOM     26  H   UNL     1      36.416 -15.403 -23.342  0.00  0.00    +0.295 HD
ENDBRANCH  24  25
ENDBRANCH  12  24
TORSDOF 3
ENDMDL
MODEL 3
REMARK VINA RESULT:      -9.6      3.645      6.698
REMARK  Name = 44129603
REMARK  3 active torsions:
REMARK  status: ('A' for Active; 'I' for Inactive)
REMARK    1  A    between atoms: N_5  and  C_17
REMARK    2  A    between atoms: C_12  and  C_24
REMARK    3  A    between atoms: C_24  and  O_25
REMARK                            x       y       z     vdW  Elec       q    Type
REMARK                         _______ _______ _______ _____ _____    ______ ____
ROOT
ATOM      1  N   UNL     1      36.435 -21.660 -17.702  0.00  0.00    -0.246 N 
ATOM      2  N   UNL     1      36.791 -20.869 -18.734  0.00  0.00    -0.163 NA
ATOM      3  N   UNL     1      35.029 -23.502 -15.849  0.00  0.00    -0.336 NA
ATOM      4  N   UNL     1      32.897 -24.338 -15.079  0.00  0.00    -0.170 NA
ATOM      5  N   UNL     1      34.900 -24.993 -14.044  0.00  0.00    -0.247 N 
ATOM      6  C   UNL     1      33.150 -21.589 -19.209  0.00  0.00    +0.035 C 
ATOM      7  C   UNL     1      34.578 -21.406 -18.834  0.00  0.00    +0.024 A 
ATOM      8  C   UNL     1      32.281 -21.948 -17.973  0.00  0.00    +0.035 C 
ATOM      9  C   UNL     1      35.118 -22.001 -17.716  0.00  0.00    +0.106 A 
ATOM     10  C   UNL     1      32.972 -22.822 -16.948  0.00  0.00    +0.030 C 
ATOM     11  C   UNL     1      34.360 -22.807 -16.787  0.00  0.00    +0.158 C 
ATOM     12  C   UNL     1      35.653 -20.721 -19.424  0.00  0.00    +0.174 A 
ATOM     13  C   UNL     1      32.289 -23.610 -16.042  0.00  0.00    +0.110 C 
ATOM     14  C   UNL     1      37.450 -22.056 -16.753  0.00  0.00    +0.154 C 
ATOM     15  C   UNL     1      34.243 -24.239 -15.041  0.00  0.00    +0.149 C 
ATOM     16  H   UNL     1      34.289 -25.518 -13.477  0.00  0.00    +0.165 HD
ENDROOT
BRANCH   5  17
ATOM     17  C   UNL     1      36.256 -25.142 -13.701  0.00  0.00    +0.058 C 
ATOM     18  C   UNL     1      36.785 -24.433 -12.623  0.00  0.00    +0.015 C 
ATOM     19  C   UNL     1      37.071 -26.001 -14.439  0.00  0.00    +0.015 C 
ATOM     20  C   UNL     1      38.130 -24.582 -12.282  0.00  0.00    +0.001 C 
ATOM     21  C   UNL     1      38.416 -26.150 -14.098  0.00  0.00    +0.001 C 
ATOM     22  C   UNL     1      38.945 -25.441 -13.020  0.00  0.00    +0.000 C 
ENDBRANCH   5  17
BRANCH  12  24
ATOM     23  O   UNL     1      34.946 -20.124 -21.630  0.00  0.00    -0.243 OA
ATOM     24  C   UNL     1      35.642 -19.922 -20.616  0.00  0.00    +0.357 C 
BRANCH  24  25
ATOM     25  O   UNL     1      36.501 -18.858 -20.560  0.00  0.00    -0.476 OA
ATOM     26  H   UNL     1      37.277 -18.854 -21.086  0.00  0.00    +0.295 HD
ENDBRANCH  24  25
ENDBRANCH  12  24
TORSDOF 3
ENDMDL
MODEL 4
REMARK VINA RESULT:      -9.6      7.933     11.441
REMARK  Name = 44129603
REMARK  3 active torsions:
REMARK  status: ('A' for Active; 'I' for Inactive)
REMARK    1  A    between atoms: N_5  and  C_17
REMARK    2  A    between atoms: C_12  and  C_24
REMARK    3  A    between atoms: C_24  and  O_25
REMARK                            x       y       z     vdW  Elec       q    Type
REMARK                         _______ _______ _______ _____ _____    ______ ____
ROOT
ATOM      1  N   UNL     1      34.944 -15.710 -20.790  0.00  0.00    -0.246 N 
ATOM      2  N   UNL     1      35.566 -16.768 -20.231  0.00  0.00    -0.163 NA
ATOM      3  N   UNL     1      33.426 -13.882 -22.566  0.00  0.00    -0.336 NA
ATOM      4  N   UNL     1      32.756 -13.378 -24.832  0.00  0.00    -0.170 NA
ATOM      5  N   UNL     1      32.222 -11.931 -23.062  0.00  0.00    -0.247 N 
ATOM      6  C   UNL     1      34.856 -17.752 -23.770  0.00  0.00    +0.035 C 
ATOM      7  C   UNL     1      35.064 -17.168 -22.418  0.00  0.00    +0.024 A 
ATOM      8  C   UNL     1      34.703 -16.645 -24.849  0.00  0.00    +0.035 C 
ATOM      9  C   UNL     1      34.631 -15.901 -22.100  0.00  0.00    +0.106 A 
ATOM     10  C   UNL     1      33.976 -15.403 -24.379  0.00  0.00    +0.030 C 
ATOM     11  C   UNL     1      33.987 -15.010 -23.038  0.00  0.00    +0.158 C 
ATOM     12  C   UNL     1      35.632 -17.657 -21.230  0.00  0.00    +0.174 A 
ATOM     13  C   UNL     1      33.346 -14.524 -25.238  0.00  0.00    +0.110 C 
ATOM     14  C   UNL     1      34.673 -14.555 -19.965  0.00  0.00    +0.154 C 
ATOM     15  C   UNL     1      32.833 -13.123 -23.508  0.00  0.00    +0.149 C 
ATOM     16  H   UNL     1      31.800 -11.409 -23.782  0.00  0.00    +0.165 HD
ENDROOT
BRANCH   5  17
ATOM     17  C   UNL     1      32.098 -11.343 -21.790  0.00  0.00    +0.058 C 
ATOM     18  C   UNL     1      32.061 -12.146 -20.651  0.00  0.00    +0.015 C 
ATOM     19  C   UNL     1      32.012  -9.956 -21.669  0.00  0.00    +0.015 C 
ATOM     20  C   UNL     1      31.939 -11.562 -19.389  0.00  0.00    +0.001 C 
ATOM     21  C   UNL     1      31.890  -9.372 -20.408  0.00  0.00    +0.001 C 
ATOM     22  C   UNL     1      31.854 -10.175 -19.268  0.00  0.00    +0.000 C 
ENDBRANCH   5  17
BRANCH  12  24
ATOM     23  O   UNL     1      35.666 -20.039 -21.010  0.00  0.00    -0.243 OA
ATOM     24  C   UNL     1      36.245 -18.935 -21.006  0.00  0.00    +0.357 C 
BRANCH  24  25
ATOM     25  O   UNL     1      37.592 -18.854 -20.774  0.00  0.00    -0.476 OA
ATOM     26  H   UNL     1      38.166 -18.546 -21.448  0.00  0.00    +0.295 HD
ENDBRANCH  24  25
ENDBRANCH  12  24
TORSDOF 3
ENDMDL
MODEL 5
REMARK VINA RESULT:      -9.4      8.317     11.741
REMARK  Name = 44129603
REMARK  3 active torsions:
REMARK  status: ('A' for Active; 'I' for Inactive)
REMARK    1  A    between atoms: N_5  and  C_17
REMARK    2  A    between atoms: C_12  and  C_24
REMARK    3  A    between atoms: C_24  and  O_25
REMARK                            x       y       z     vdW  Elec       q    Type
REMARK                         _______ _______ _______ _____ _____    ______ ____
ROOT
ATOM      1  N   UNL     1      33.077 -14.213 -20.431  0.00  0.00    -0.246 N 
ATOM      2  N   UNL     1      32.571 -13.222 -19.669  0.00  0.00    -0.163 NA
ATOM      3  N   UNL     1      34.280 -15.833 -22.606  0.00  0.00    -0.336 NA
ATOM      4  N   UNL     1      34.616 -16.068 -24.986  0.00  0.00    -0.170 NA
ATOM      5  N   UNL     1      35.344 -17.726 -23.492  0.00  0.00    -0.247 N 
ATOM      6  C   UNL     1      32.817 -11.826 -23.132  0.00  0.00    +0.035 C 
ATOM      7  C   UNL     1      32.779 -12.566 -21.843  0.00  0.00    +0.024 A 
ATOM      8  C   UNL     1      32.787 -12.796 -24.344  0.00  0.00    +0.035 C 
ATOM      9  C   UNL     1      33.213 -13.869 -21.740  0.00  0.00    +0.106 A 
ATOM     10  C   UNL     1      33.533 -14.096 -24.131  0.00  0.00    +0.030 C 
ATOM     11  C   UNL     1      33.694 -14.648 -22.858  0.00  0.00    +0.158 C 
ATOM     12  C   UNL     1      32.396 -12.217 -20.538  0.00  0.00    +0.174 A 
ATOM     13  C   UNL     1      34.012 -14.873 -25.168  0.00  0.00    +0.110 C 
ATOM     14  C   UNL     1      33.424 -15.463 -19.795  0.00  0.00    +0.154 C 
ATOM     15  C   UNL     1      34.715 -16.480 -23.705  0.00  0.00    +0.149 C 
ATOM     16  H   UNL     1      35.647 -18.163 -24.321  0.00  0.00    +0.165 HD
ENDROOT
BRANCH   5  17
ATOM     17  C   UNL     1      35.624 -18.466 -22.329  0.00  0.00    +0.058 C 
ATOM     18  C   UNL     1      34.656 -19.315 -21.793  0.00  0.00    +0.015 C 
ATOM     19  C   UNL     1      36.869 -18.349 -21.712  0.00  0.00    +0.015 C 
ATOM     20  C   UNL     1      34.934 -20.049 -20.639  0.00  0.00    +0.001 C 
ATOM     21  C   UNL     1      37.147 -19.084 -20.558  0.00  0.00    +0.001 C 
ATOM     22  C   UNL     1      36.180 -19.933 -20.022  0.00  0.00    +0.000 C 
ENDBRANCH   5  17
BRANCH  12  24
ATOM     23  O   UNL     1      31.152 -10.185 -20.744  0.00  0.00    -0.243 OA
ATOM     24  C   UNL     1      31.858 -10.968 -20.081  0.00  0.00    +0.357 C 
BRANCH  24  25
ATOM     25  O   UNL     1      32.195 -10.676 -18.786  0.00  0.00    -0.476 OA
ATOM     26  H   UNL     1      31.524 -10.561 -18.142  0.00  0.00    +0.295 HD
ENDBRANCH  24  25
ENDBRANCH  12  24
TORSDOF 3
ENDMDL
MODEL 6
REMARK VINA RESULT:      -9.3      3.184      6.177
REMARK  Name = 44129603
REMARK  3 active torsions:
REMARK  status: ('A' for Active; 'I' for Inactive)
REMARK    1  A    between atoms: N_5  and  C_17
REMARK    2  A    between atoms: C_12  and  C_24
REMARK    3  A    between atoms: C_24  and  O_25
REMARK                            x       y       z     vdW  Elec       q    Type
REMARK                         _______ _______ _______ _____ _____    ______ ____
ROOT
ATOM      1  N   UNL     1      34.230 -22.395 -17.631  0.00  0.00    -0.246 N 
ATOM      2  N   UNL     1      34.725 -21.794 -18.732  0.00  0.00    -0.163 NA
ATOM      3  N   UNL     1      33.770 -23.442 -14.892  0.00  0.00    -0.336 NA
ATOM      4  N   UNL     1      34.782 -24.175 -12.825  0.00  0.00    -0.170 NA
ATOM      5  N   UNL     1      32.465 -24.338 -13.163  0.00  0.00    -0.247 N 
ATOM      6  C   UNL     1      37.520 -21.831 -16.244  0.00  0.00    +0.035 C 
ATOM      7  C   UNL     1      36.301 -21.933 -17.090  0.00  0.00    +0.024 A 
ATOM      8  C   UNL     1      37.531 -22.917 -15.133  0.00  0.00    +0.035 C 
ATOM      9  C   UNL     1      35.139 -22.507 -16.624  0.00  0.00    +0.106 A 
ATOM     10  C   UNL     1      36.169 -23.248 -14.561  0.00  0.00    +0.030 C 
ATOM     11  C   UNL     1      35.001 -23.098 -15.313  0.00  0.00    +0.158 C 
ATOM     12  C   UNL     1      35.989 -21.511 -18.393  0.00  0.00    +0.174 A 
ATOM     13  C   UNL     1      35.989 -23.812 -13.313  0.00  0.00    +0.110 C 
ATOM     14  C   UNL     1      32.846 -22.812 -17.635  0.00  0.00    +0.154 C 
ATOM     15  C   UNL     1      33.736 -23.967 -13.652  0.00  0.00    +0.149 C 
ATOM     16  H   UNL     1      32.486 -24.714 -12.253  0.00  0.00    +0.165 HD
ENDROOT
BRANCH   5  17
ATOM     17  C   UNL     1      31.174 -24.274 -13.719  0.00  0.00    +0.058 C 
ATOM     18  C   UNL     1      30.650 -23.048 -14.127  0.00  0.00    +0.015 C 
ATOM     19  C   UNL     1      30.420 -25.439 -13.862  0.00  0.00    +0.015 C 
ATOM     20  C   UNL     1      29.370 -22.986 -14.679  0.00  0.00    +0.001 C 
ATOM     21  C   UNL     1      29.140 -25.377 -14.415  0.00  0.00    +0.001 C 
ATOM     22  C   UNL     1      28.615 -24.151 -14.823  0.00  0.00    +0.000 C 
ENDBRANCH   5  17
BRANCH  12  24
ATOM     23  O   UNL     1      37.254 -21.330 -20.415  0.00  0.00    -0.243 OA
ATOM     24  C   UNL     1      36.848 -20.855 -19.336  0.00  0.00    +0.357 C 
BRANCH  24  25
ATOM     25  O   UNL     1      37.215 -19.594 -18.948  0.00  0.00    -0.476 OA
ATOM     26  H   UNL     1      38.118 -19.346 -18.954  0.00  0.00    +0.295 HD
ENDBRANCH  24  25
ENDBRANCH  12  24
TORSDOF 3
ENDMDL
