MODEL 1
REMARK VINA RESULT:     -11.6      0.000      0.000
REMARK  Name = 5243
REMARK  7 active torsions:
REMARK  status: ('A' for Active; 'I' for Inactive)
REMARK    1  A    between atoms: C_1  and  C_3
REMARK    2  A    between atoms: C_1  and  C_8
REMARK    3  A    between atoms: C_1  and  C_19
REMARK    4  A    between atoms: C_13  and  O_14
REMARK    5  A    between atoms: O_14  and  S_15
REMARK    6  A    between atoms: C_24  and  O_25
REMARK    7  A    between atoms: O_25  and  S_26
REMARK                            x       y       z     vdW  Elec       q    Type
REMARK                         _______ _______ _______ _____ _____    ______ ____
ROOT
ATOM      1  C   UNL     1      33.795 -23.333 -16.771  0.00  0.00    +0.085 C 
ENDROOT
BRANCH   1   3
ATOM      2  N   UNL     1      31.383 -23.167 -16.896  0.00  0.00    -0.248 NA
ATOM      3  C   UNL     1      32.432 -23.087 -16.085  0.00  0.00    +0.067 C 
ATOM      4  C   UNL     1      32.442 -22.819 -14.751  0.00  0.00    +0.015 C 
ATOM      5  C   UNL     1      31.200 -22.602 -14.164  0.00  0.00    +0.003 C 
ATOM      6  C   UNL     1      30.194 -22.950 -16.291  0.00  0.00    +0.098 C 
ATOM      7  C   UNL     1      30.050 -22.667 -14.942  0.00  0.00    +0.021 C 
ENDBRANCH   1   3
BRANCH   1   8
ATOM      8  C   UNL     1      34.955 -23.520 -15.852  0.00  0.00    -0.013 C 
ATOM      9  C   UNL     1      35.130 -24.733 -15.188  0.00  0.00    -0.000 C 
ATOM     10  C   UNL     1      35.864 -22.479 -15.658  0.00  0.00    -0.000 C 
ATOM     11  C   UNL     1      36.215 -24.906 -14.328  0.00  0.00    +0.040 C 
ATOM     12  C   UNL     1      36.949 -22.653 -14.798  0.00  0.00    +0.040 C 
ATOM     13  C   UNL     1      37.124 -23.867 -14.133  0.00  0.00    +0.176 C 
BRANCH  13  14
ATOM     14  O   UNL     1      38.182 -24.037 -13.294  0.00  0.00    -0.322 OA
BRANCH  14  15
ATOM     15  S   UNL     1      37.927 -23.983 -11.670  0.00  0.00    +0.282 S 
ATOM     16  O   UNL     1      36.547 -23.124 -11.519  0.00  0.00    -0.105 OA
ATOM     17  O   UNL     1      37.671 -25.328 -11.188  0.00  0.00    -0.012 OA
ATOM     18  O   UNL     1      38.995 -23.194 -11.083  0.00  0.00    -0.105 OA
ENDBRANCH  14  15
ENDBRANCH  13  14
ENDBRANCH   1   8
BRANCH   1  19
ATOM     19  C   UNL     1      34.036 -22.378 -17.963  0.00  0.00    -0.013 C 
ATOM     20  C   UNL     1      35.299 -22.310 -18.486  0.00  0.00    -0.000 C 
ATOM     21  C   UNL     1      32.975 -21.651 -18.429  0.00  0.00    -0.000 C 
ATOM     22  C   UNL     1      35.517 -21.448 -19.561  0.00  0.00    +0.040 C 
ATOM     23  C   UNL     1      33.192 -20.789 -19.504  0.00  0.00    +0.040 C 
ATOM     24  C   UNL     1      34.464 -20.687 -20.070  0.00  0.00    +0.176 C 
BRANCH  24  25
ATOM     25  O   UNL     1      34.677 -19.846 -21.119  0.00  0.00    -0.322 OA
BRANCH  25  26
ATOM     26  S   UNL     1      35.786 -18.641 -20.960  0.00  0.00    +0.282 S 
ATOM     27  O   UNL     1      36.423 -18.499 -22.456  0.00  0.00    -0.105 OA
ATOM     28  O   UNL     1      35.095 -17.403 -20.649  0.00  0.00    -0.012 OA
ATOM     29  O   UNL     1      36.837 -19.123 -20.084  0.00  0.00    -0.105 OA
ENDBRANCH  25  26
ENDBRANCH  24  25
ENDBRANCH   1  19
TORSDOF 7
ENDMDL
MODEL 2
REMARK VINA RESULT:     -11.5      4.115      5.819
REMARK  Name = 5243
REMARK  7 active torsions:
REMARK  status: ('A' for Active; 'I' for Inactive)
REMARK    1  A    between atoms: C_1  and  C_3
REMARK    2  A    between atoms: C_1  and  C_8
REMARK    3  A    between atoms: C_1  and  C_19
REMARK    4  A    between atoms: C_13  and  O_14
REMARK    5  A    between atoms: O_14  and  S_15
REMARK    6  A    between atoms: C_24  and  O_25
REMARK    7  A    between atoms: O_25  and  S_26
REMARK                            x       y       z     vdW  Elec       q    Type
REMARK                         _______ _______ _______ _____ _____    ______ ____
ROOT
ATOM      1  C   UNL     1      34.405 -23.035 -15.074  0.00  0.00    +0.085 C 
ENDROOT
BRANCH   1   3
ATOM      2  N   UNL     1      35.597 -25.124 -15.349  0.00  0.00    -0.248 NA
ATOM      3  C   UNL     1      35.283 -24.162 -14.487  0.00  0.00    +0.067 C 
ATOM      4  C   UNL     1      35.639 -24.062 -13.178  0.00  0.00    +0.015 C 
ATOM      5  C   UNL     1      36.429 -25.093 -12.680  0.00  0.00    +0.003 C 
ATOM      6  C   UNL     1      36.364 -26.109 -14.830  0.00  0.00    +0.098 C 
ATOM      7  C   UNL     1      36.803 -26.139 -13.516  0.00  0.00    +0.021 C 
ENDBRANCH   1   3
BRANCH   1   8
ATOM      8  C   UNL     1      32.932 -23.246 -14.974  0.00  0.00    -0.013 C 
ATOM      9  C   UNL     1      32.306 -24.193 -15.783  0.00  0.00    -0.000 C 
ATOM     10  C   UNL     1      32.181 -22.495 -14.069  0.00  0.00    -0.000 C 
ATOM     11  C   UNL     1      30.929 -24.389 -15.689  0.00  0.00    +0.040 C 
ATOM     12  C   UNL     1      30.803 -22.692 -13.975  0.00  0.00    +0.040 C 
ATOM     13  C   UNL     1      30.177 -23.639 -14.785  0.00  0.00    +0.176 C 
BRANCH  13  14
ATOM     14  O   UNL     1      28.833 -23.831 -14.694  0.00  0.00    -0.322 OA
BRANCH  14  15
ATOM     15  S   UNL     1      27.863 -23.260 -15.894  0.00  0.00    +0.282 S 
ATOM     16  O   UNL     1      28.733 -22.048 -16.556  0.00  0.00    -0.105 OA
ATOM     17  O   UNL     1      27.700 -24.293 -16.900  0.00  0.00    -0.012 OA
ATOM     18  O   UNL     1      26.696 -22.665 -15.270  0.00  0.00    -0.105 OA
ENDBRANCH  14  15
ENDBRANCH  13  14
ENDBRANCH   1   8
BRANCH   1  19
ATOM     19  C   UNL     1      34.916 -22.545 -16.449  0.00  0.00    -0.013 C 
ATOM     20  C   UNL     1      36.171 -22.003 -16.512  0.00  0.00    -0.000 C 
ATOM     21  C   UNL     1      34.085 -22.679 -17.528  0.00  0.00    -0.000 C 
ATOM     22  C   UNL     1      36.631 -21.561 -17.753  0.00  0.00    +0.040 C 
ATOM     23  C   UNL     1      34.545 -22.237 -18.768  0.00  0.00    +0.040 C 
ATOM     24  C   UNL     1      35.819 -21.677 -18.881  0.00  0.00    +0.176 C 
BRANCH  24  25
ATOM     25  O   UNL     1      36.268 -21.245 -20.091  0.00  0.00    -0.322 OA
BRANCH  25  26
ATOM     26  S   UNL     1      35.942 -19.702 -20.557  0.00  0.00    +0.282 S 
ATOM     27  O   UNL     1      36.005 -19.766 -22.187  0.00  0.00    -0.105 OA
ATOM     28  O   UNL     1      34.581 -19.372 -20.175  0.00  0.00    -0.012 OA
ATOM     29  O   UNL     1      37.041 -18.866 -20.112  0.00  0.00    -0.105 OA
ENDBRANCH  25  26
ENDBRANCH  24  25
ENDBRANCH   1  19
TORSDOF 7
ENDMDL
MODEL 3
REMARK VINA RESULT:     -11.5      2.082      7.479
REMARK  Name = 5243
REMARK  7 active torsions:
REMARK  status: ('A' for Active; 'I' for Inactive)
REMARK    1  A    between atoms: C_1  and  C_3
REMARK    2  A    between atoms: C_1  and  C_8
REMARK    3  A    between atoms: C_1  and  C_19
REMARK    4  A    between atoms: C_13  and  O_14
REMARK    5  A    between atoms: O_14  and  S_15
REMARK    6  A    between atoms: C_24  and  O_25
REMARK    7  A    between atoms: O_25  and  S_26
REMARK                            x       y       z     vdW  Elec       q    Type
REMARK                         _______ _______ _______ _____ _____    ______ ____
ROOT
ATOM      1  C   UNL     1      34.901 -23.094 -15.014  0.00  0.00    +0.085 C 
ENDROOT
BRANCH   1   3
ATOM      2  N   UNL     1      33.565 -24.718 -13.815  0.00  0.00    -0.248 NA
ATOM      3  C   UNL     1      33.524 -23.593 -14.522  0.00  0.00    +0.067 C 
ATOM      4  C   UNL     1      32.434 -22.850 -14.853  0.00  0.00    +0.015 C 
ATOM      5  C   UNL     1      31.210 -23.327 -14.395  0.00  0.00    +0.003 C 
ATOM      6  C   UNL     1      32.358 -25.151 -13.388  0.00  0.00    +0.098 C 
ATOM      7  C   UNL     1      31.163 -24.498 -13.648  0.00  0.00    +0.021 C 
ENDBRANCH   1   3
BRANCH   1   8
ATOM      8  C   UNL     1      34.957 -22.658 -16.439  0.00  0.00    -0.013 C 
ATOM      9  C   UNL     1      33.857 -22.855 -17.273  0.00  0.00    -0.000 C 
ATOM     10  C   UNL     1      36.111 -22.053 -16.938  0.00  0.00    -0.000 C 
ATOM     11  C   UNL     1      33.910 -22.448 -18.606  0.00  0.00    +0.040 C 
ATOM     12  C   UNL     1      36.164 -21.645 -18.272  0.00  0.00    +0.040 C 
ATOM     13  C   UNL     1      35.063 -21.843 -19.105  0.00  0.00    +0.176 C 
BRANCH  13  14
ATOM     14  O   UNL     1      35.115 -21.447 -20.406  0.00  0.00    -0.322 OA
BRANCH  14  15
ATOM     15  S   UNL     1      34.816 -19.871 -20.771  0.00  0.00    +0.282 S 
ATOM     16  O   UNL     1      34.852 -19.835 -22.403  0.00  0.00    -0.105 OA
ATOM     17  O   UNL     1      33.470 -19.535 -20.346  0.00  0.00    -0.012 OA
ATOM     18  O   UNL     1      35.943 -19.089 -20.296  0.00  0.00    -0.105 OA
ENDBRANCH  14  15
ENDBRANCH  13  14
ENDBRANCH   1   8
BRANCH   1  19
ATOM     19  C   UNL     1      36.060 -24.007 -14.551  0.00  0.00    -0.013 C 
ATOM     20  C   UNL     1      36.966 -23.494 -13.663  0.00  0.00    -0.000 C 
ATOM     21  C   UNL     1      36.117 -25.278 -15.054  0.00  0.00    -0.000 C 
ATOM     22  C   UNL     1      38.012 -24.317 -13.245  0.00  0.00    +0.040 C 
ATOM     23  C   UNL     1      37.163 -26.101 -14.637  0.00  0.00    +0.040 C 
ATOM     24  C   UNL     1      38.110 -25.621 -13.732  0.00  0.00    +0.176 C 
BRANCH  24  25
ATOM     25  O   UNL     1      39.131 -26.423 -13.324  0.00  0.00    -0.322 OA
BRANCH  25  26
ATOM     26  S   UNL     1      40.652 -26.118 -13.872  0.00  0.00    +0.282 S 
ATOM     27  O   UNL     1      40.499 -26.170 -15.496  0.00  0.00    -0.105 OA
ATOM     28  O   UNL     1      41.024 -24.765 -13.501  0.00  0.00    -0.012 OA
ATOM     29  O   UNL     1      41.493 -27.234 -13.479  0.00  0.00    -0.105 OA
ENDBRANCH  25  26
ENDBRANCH  24  25
ENDBRANCH   1  19
TORSDOF 7
ENDMDL
MODEL 4
REMARK VINA RESULT:     -11.1      4.220      5.906
REMARK  Name = 5243
REMARK  7 active torsions:
REMARK  status: ('A' for Active; 'I' for Inactive)
REMARK    1  A    between atoms: C_1  and  C_3
REMARK    2  A    between atoms: C_1  and  C_8
REMARK    3  A    between atoms: C_1  and  C_19
REMARK    4  A    between atoms: C_13  and  O_14
REMARK    5  A    between atoms: O_14  and  S_15
REMARK    6  A    between atoms: C_24  and  O_25
REMARK    7  A    between atoms: O_25  and  S_26
REMARK                            x       y       z     vdW  Elec       q    Type
REMARK                         _______ _______ _______ _____ _____    ______ ____
ROOT
ATOM      1  C   UNL     1      35.022 -22.559 -15.887  0.00  0.00    +0.085 C 
ENDROOT
BRANCH   1   3
ATOM      2  N   UNL     1      34.187 -22.105 -18.113  0.00  0.00    -0.248 NA
ATOM      3  C   UNL     1      35.267 -22.089 -17.339  0.00  0.00    +0.067 C 
ATOM      4  C   UNL     1      36.532 -21.717 -17.671  0.00  0.00    +0.015 C 
ATOM      5  C   UNL     1      36.719 -21.300 -18.985  0.00  0.00    +0.003 C 
ATOM      6  C   UNL     1      34.407 -21.695 -19.383  0.00  0.00    +0.098 C 
ATOM      7  C   UNL     1      35.641 -21.286 -19.863  0.00  0.00    +0.021 C 
ENDBRANCH   1   3
BRANCH   1   8
ATOM      8  C   UNL     1      36.043 -23.494 -15.331  0.00  0.00    -0.013 C 
ATOM      9  C   UNL     1      37.336 -23.041 -15.072  0.00  0.00    -0.000 C 
ATOM     10  C   UNL     1      35.702 -24.822 -15.072  0.00  0.00    -0.000 C 
ATOM     11  C   UNL     1      38.290 -23.917 -14.553  0.00  0.00    +0.040 C 
ATOM     12  C   UNL     1      36.657 -25.697 -14.552  0.00  0.00    +0.040 C 
ATOM     13  C   UNL     1      37.951 -25.244 -14.293  0.00  0.00    +0.176 C 
BRANCH  13  14
ATOM     14  O   UNL     1      38.882 -26.098 -13.787  0.00  0.00    -0.322 OA
BRANCH  14  15
ATOM     15  S   UNL     1      40.458 -25.903 -14.216  0.00  0.00    +0.282 S 
ATOM     16  O   UNL     1      41.224 -27.127 -13.455  0.00  0.00    -0.105 OA
ATOM     17  O   UNL     1      40.587 -26.116 -15.645  0.00  0.00    -0.012 OA
ATOM     18  O   UNL     1      40.925 -24.663 -13.622  0.00  0.00    -0.105 OA
ENDBRANCH  14  15
ENDBRANCH  13  14
ENDBRANCH   1   8
BRANCH   1  19
ATOM     19  C   UNL     1      33.549 -22.954 -15.635  0.00  0.00    -0.013 C 
ATOM     20  C   UNL     1      32.878 -23.601 -16.637  0.00  0.00    -0.000 C 
ATOM     21  C   UNL     1      32.995 -22.636 -14.425  0.00  0.00    -0.000 C 
ATOM     22  C   UNL     1      31.548 -23.958 -16.411  0.00  0.00    +0.040 C 
ATOM     23  C   UNL     1      31.666 -22.992 -14.199  0.00  0.00    +0.040 C 
ATOM     24  C   UNL     1      30.942 -23.654 -15.192  0.00  0.00    +0.176 C 
BRANCH  24  25
ATOM     25  O   UNL     1      29.645 -24.001 -14.971  0.00  0.00    -0.322 OA
BRANCH  25  26
ATOM     26  S   UNL     1      28.476 -23.372 -15.942  0.00  0.00    +0.282 S 
ATOM     27  O   UNL     1      27.297 -22.936 -14.900  0.00  0.00    -0.105 OA
ATOM     28  O   UNL     1      28.983 -22.166 -16.571  0.00  0.00    -0.012 OA
ATOM     29  O   UNL     1      27.955 -24.451 -16.760  0.00  0.00    -0.105 OA
ENDBRANCH  25  26
ENDBRANCH  24  25
ENDBRANCH   1  19
TORSDOF 7
ENDMDL
MODEL 5
REMARK VINA RESULT:     -10.8      4.206      7.437
REMARK  Name = 5243
REMARK  7 active torsions:
REMARK  status: ('A' for Active; 'I' for Inactive)
REMARK    1  A    between atoms: C_1  and  C_3
REMARK    2  A    between atoms: C_1  and  C_8
REMARK    3  A    between atoms: C_1  and  C_19
REMARK    4  A    between atoms: C_13  and  O_14
REMARK    5  A    between atoms: O_14  and  S_15
REMARK    6  A    between atoms: C_24  and  O_25
REMARK    7  A    between atoms: O_25  and  S_26
REMARK                            x       y       z     vdW  Elec       q    Type
REMARK                         _______ _______ _______ _____ _____    ______ ____
ROOT
ATOM      1  C   UNL     1      34.199 -23.762 -16.176  0.00  0.00    +0.085 C 
ENDROOT
BRANCH   1   3
ATOM      2  N   UNL     1      35.696 -25.257 -14.999  0.00  0.00    -0.248 NA
ATOM      3  C   UNL     1      35.128 -24.055 -14.977  0.00  0.00    +0.067 C 
ATOM      4  C   UNL     1      35.270 -23.078 -14.042  0.00  0.00    +0.015 C 
ATOM      5  C   UNL     1      36.113 -23.373 -12.975  0.00  0.00    +0.003 C 
ATOM      6  C   UNL     1      36.507 -25.508 -13.947  0.00  0.00    +0.098 C 
ATOM      7  C   UNL     1      36.747 -24.609 -12.920  0.00  0.00    +0.021 C 
ENDBRANCH   1   3
BRANCH   1   8
ATOM      8  C   UNL     1      34.771 -22.882 -17.235  0.00  0.00    -0.013 C 
ATOM      9  C   UNL     1      34.148 -22.791 -18.479  0.00  0.00    -0.000 C 
ATOM     10  C   UNL     1      35.931 -22.149 -16.980  0.00  0.00    -0.000 C 
ATOM     11  C   UNL     1      34.684 -21.968 -19.469  0.00  0.00    +0.040 C 
ATOM     12  C   UNL     1      36.467 -21.325 -17.971  0.00  0.00    +0.040 C 
ATOM     13  C   UNL     1      35.843 -21.235 -19.216  0.00  0.00    +0.176 C 
BRANCH  13  14
ATOM     14  O   UNL     1      36.365 -20.432 -20.182  0.00  0.00    -0.322 OA
BRANCH  14  15
ATOM     15  S   UNL     1      35.375 -19.375 -20.961  0.00  0.00    +0.282 S 
ATOM     16  O   UNL     1      36.136 -17.939 -20.804  0.00  0.00    -0.105 OA
ATOM     17  O   UNL     1      35.344 -19.711 -22.373  0.00  0.00    -0.012 OA
ATOM     18  O   UNL     1      34.137 -19.295 -20.207  0.00  0.00    -0.105 OA
ENDBRANCH  14  15
ENDBRANCH  13  14
ENDBRANCH   1   8
BRANCH   1  19
ATOM     19  C   UNL     1      32.756 -23.424 -15.735  0.00  0.00    -0.013 C 
ATOM     20  C   UNL     1      32.382 -23.748 -14.459  0.00  0.00    -0.000 C 
ATOM     21  C   UNL     1      31.932 -22.819 -16.644  0.00  0.00    -0.000 C 
ATOM     22  C   UNL     1      31.080 -23.443 -14.062  0.00  0.00    +0.040 C 
ATOM     23  C   UNL     1      30.630 -22.514 -16.246  0.00  0.00    +0.040 C 
ATOM     24  C   UNL     1      30.204 -22.826 -14.955  0.00  0.00    +0.176 C 
BRANCH  24  25
ATOM     25  O   UNL     1      28.934 -22.529 -14.566  0.00  0.00    -0.322 OA
BRANCH  25  26
ATOM     26  S   UNL     1      27.698 -22.779 -15.623  0.00  0.00    +0.282 S 
ATOM     27  O   UNL     1      26.360 -22.490 -14.734  0.00  0.00    -0.105 OA
ATOM     28  O   UNL     1      27.763 -21.777 -16.670  0.00  0.00    -0.012 OA
ATOM     29  O   UNL     1      27.694 -24.188 -15.969  0.00  0.00    -0.105 OA
ENDBRANCH  25  26
ENDBRANCH  24  25
ENDBRANCH   1  19
TORSDOF 7
ENDMDL
MODEL 6
REMARK VINA RESULT:      -8.6      1.464      7.492
REMARK  Name = 5243
REMARK  7 active torsions:
REMARK  status: ('A' for Active; 'I' for Inactive)
REMARK    1  A    between atoms: C_1  and  C_3
REMARK    2  A    between atoms: C_1  and  C_8
REMARK    3  A    between atoms: C_1  and  C_19
REMARK    4  A    between atoms: C_13  and  O_14
REMARK    5  A    between atoms: O_14  and  S_15
REMARK    6  A    between atoms: C_24  and  O_25
REMARK    7  A    between atoms: O_25  and  S_26
REMARK                            x       y       z     vdW  Elec       q    Type
REMARK                         _______ _______ _______ _____ _____    ______ ____
ROOT
ATOM      1  C   UNL     1      33.035 -22.823 -15.624  0.00  0.00    +0.085 C 
ENDROOT
BRANCH   1   3
ATOM      2  N   UNL     1      30.706 -22.539 -16.219  0.00  0.00    -0.248 NA
ATOM      3  C   UNL     1      31.590 -23.367 -15.672  0.00  0.00    +0.067 C 
ATOM      4  C   UNL     1      31.371 -24.608 -15.160  0.00  0.00    +0.015 C 
ATOM      5  C   UNL     1      30.060 -25.068 -15.219  0.00  0.00    +0.003 C 
ATOM      6  C   UNL     1      29.443 -23.020 -16.258  0.00  0.00    +0.098 C 
ATOM      7  C   UNL     1      29.071 -24.265 -15.776  0.00  0.00    +0.021 C 
ENDBRANCH   1   3
BRANCH   1   8
ATOM      8  C   UNL     1      33.616 -22.419 -16.937  0.00  0.00    -0.013 C 
ATOM      9  C   UNL     1      34.997 -22.295 -17.080  0.00  0.00    -0.000 C 
ATOM     10  C   UNL     1      32.776 -22.165 -18.021  0.00  0.00    -0.000 C 
ATOM     11  C   UNL     1      35.539 -21.917 -18.308  0.00  0.00    +0.040 C 
ATOM     12  C   UNL     1      33.319 -21.787 -19.250  0.00  0.00    +0.040 C 
ATOM     13  C   UNL     1      34.701 -21.663 -19.393  0.00  0.00    +0.176 C 
BRANCH  13  14
ATOM     14  O   UNL     1      35.231 -21.294 -20.591  0.00  0.00    -0.322 OA
BRANCH  14  15
ATOM     15  S   UNL     1      35.313 -19.695 -20.967  0.00  0.00    +0.282 S 
ATOM     16  O   UNL     1      36.715 -19.206 -20.289  0.00  0.00    -0.105 OA
ATOM     17  O   UNL     1      35.440 -19.555 -22.405  0.00  0.00    -0.012 OA
ATOM     18  O   UNL     1      34.234 -19.022 -20.265  0.00  0.00    -0.105 OA
ENDBRANCH  14  15
ENDBRANCH  13  14
ENDBRANCH   1   8
BRANCH   1  19
ATOM     19  C   UNL     1      33.957 -23.675 -14.721  0.00  0.00    -0.013 C 
ATOM     20  C   UNL     1      33.893 -23.477 -13.368  0.00  0.00    -0.000 C 
ATOM     21  C   UNL     1      34.787 -24.581 -15.323  0.00  0.00    -0.000 C 
ATOM     22  C   UNL     1      34.725 -24.245 -12.554  0.00  0.00    +0.040 C 
ATOM     23  C   UNL     1      35.619 -25.349 -14.509  0.00  0.00    +0.040 C 
ATOM     24  C   UNL     1      35.587 -25.182 -13.124  0.00  0.00    +0.176 C 
BRANCH  24  25
ATOM     25  O   UNL     1      36.399 -25.931 -12.328  0.00  0.00    -0.322 OA
BRANCH  25  26
ATOM     26  S   UNL     1      38.028 -25.829 -12.531  0.00  0.00    +0.282 S 
ATOM     27  O   UNL     1      38.632 -26.391 -11.123  0.00  0.00    -0.105 OA
ATOM     28  O   UNL     1      38.431 -26.741 -13.586  0.00  0.00    -0.012 OA
ATOM     29  O   UNL     1      38.373 -24.422 -12.621  0.00  0.00    -0.105 OA
ENDBRANCH  25  26
ENDBRANCH  24  25
ENDBRANCH   1  19
TORSDOF 7
ENDMDL
MODEL 7
REMARK VINA RESULT:      -8.6     14.856     17.850
REMARK  Name = 5243
REMARK  7 active torsions:
REMARK  status: ('A' for Active; 'I' for Inactive)
REMARK    1  A    between atoms: C_1  and  C_3
REMARK    2  A    between atoms: C_1  and  C_8
REMARK    3  A    between atoms: C_1  and  C_19
REMARK    4  A    between atoms: C_13  and  O_14
REMARK    5  A    between atoms: O_14  and  S_15
REMARK    6  A    between atoms: C_24  and  O_25
REMARK    7  A    between atoms: O_25  and  S_26
REMARK                            x       y       z     vdW  Elec       q    Type
REMARK                         _______ _______ _______ _____ _____    ______ ____
ROOT
ATOM      1  C   UNL     1      31.867  -5.724 -23.209  0.00  0.00    +0.085 C 
ENDROOT
BRANCH   1   3
ATOM      2  N   UNL     1      30.400  -4.198 -22.034  0.00  0.00    -0.248 NA
ATOM      3  C   UNL     1      31.467  -4.283 -22.823  0.00  0.00    +0.067 C 
ATOM      4  C   UNL     1      32.227  -3.268 -23.317  0.00  0.00    +0.015 C 
ATOM      5  C   UNL     1      31.840  -1.984 -22.950  0.00  0.00    +0.003 C 
ATOM      6  C   UNL     1      30.054  -2.934 -21.700  0.00  0.00    +0.098 C 
ATOM      7  C   UNL     1      30.734  -1.805 -22.127  0.00  0.00    +0.021 C 
ENDBRANCH   1   3
BRANCH   1   8
ATOM      8  C   UNL     1      32.104  -6.655 -22.068  0.00  0.00    -0.013 C 
ATOM      9  C   UNL     1      31.763  -8.002 -22.184  0.00  0.00    -0.000 C 
ATOM     10  C   UNL     1      32.667  -6.176 -20.884  0.00  0.00    -0.000 C 
ATOM     11  C   UNL     1      31.985  -8.871 -21.116  0.00  0.00    +0.040 C 
ATOM     12  C   UNL     1      32.889  -7.046 -19.816  0.00  0.00    +0.040 C 
ATOM     13  C   UNL     1      32.547  -8.394 -19.932  0.00  0.00    +0.176 C 
BRANCH  13  14
ATOM     14  O   UNL     1      32.763  -9.243 -18.891  0.00  0.00    -0.322 OA
BRANCH  14  15
ATOM     15  S   UNL     1      31.676 -10.443 -18.603  0.00  0.00    +0.282 S 
ATOM     16  O   UNL     1      31.815 -10.719 -17.000  0.00  0.00    -0.105 OA
ATOM     17  O   UNL     1      30.339  -9.938 -18.854  0.00  0.00    -0.012 OA
ATOM     18  O   UNL     1      32.143 -11.633 -19.290  0.00  0.00    -0.105 OA
ENDBRANCH  14  15
ENDBRANCH  13  14
ENDBRANCH   1   8
BRANCH   1  19
ATOM     19  C   UNL     1      32.930  -5.761 -24.331  0.00  0.00    -0.013 C 
ATOM     20  C   UNL     1      34.239  -5.934 -23.970  0.00  0.00    -0.000 C 
ATOM     21  C   UNL     1      32.506  -5.617 -25.624  0.00  0.00    -0.000 C 
ATOM     22  C   UNL     1      35.198  -5.966 -24.982  0.00  0.00    +0.040 C 
ATOM     23  C   UNL     1      33.465  -5.649 -26.636  0.00  0.00    +0.040 C 
ATOM     24  C   UNL     1      34.812  -5.824 -26.315  0.00  0.00    +0.176 C 
BRANCH  24  25
ATOM     25  O   UNL     1      35.749  -5.855 -27.302  0.00  0.00    -0.322 OA
BRANCH  25  26
ATOM     26  S   UNL     1      36.239  -4.439 -27.979  0.00  0.00    +0.282 S 
ATOM     27  O   UNL     1      35.174  -4.198 -29.192  0.00  0.00    -0.105 OA
ATOM     28  O   UNL     1      36.066  -3.369 -27.014  0.00  0.00    -0.012 OA
ATOM     29  O   UNL     1      37.539  -4.667 -28.582  0.00  0.00    -0.105 OA
ENDBRANCH  25  26
ENDBRANCH  24  25
ENDBRANCH   1  19
TORSDOF 7
ENDMDL
