MODEL 1
REMARK VINA RESULT:     -11.7      0.000      0.000
REMARK  Name = 9909438
REMARK  10 active torsions:
REMARK  status: ('A' for Active; 'I' for Inactive)
REMARK    1  A    between atoms: C_1  and  C_2
REMARK    2  A    between atoms: C_1  and  C_18
REMARK    3  A    between atoms: C_2  and  C_7
REMARK    4  A    between atoms: N_4  and  C_10
REMARK    5  A    between atoms: C_10  and  C_11
REMARK    6  A    between atoms: C_18  and  C_19
REMARK    7  A    between atoms: C_22  and  O_25
REMARK    8  A    between atoms: O_25  and  C_26
REMARK    9  A    between atoms: C_26  and  C_30
REMARK   10  A    between atoms: C_30  and  O_31
REMARK                            x       y       z     vdW  Elec       q    Type
REMARK                         _______ _______ _______ _____ _____    ______ ____
ROOT
ATOM      1  C   UNL     1      34.196 -22.591 -18.704  0.00  0.00    +0.014 C 
ENDROOT
BRANCH   1   2
ATOM      2  C   UNL     1      33.564 -21.424 -19.459  0.00  0.00    +0.078 C 
BRANCH   2   7
ATOM      3  O   UNL     1      37.572 -19.030 -20.158  0.00  0.00    -0.191 OA
ATOM      4  N   UNL     1      35.598 -19.166 -21.381  0.00  0.00    -0.151 N 
ATOM      5  N   UNL     1      34.431 -19.840 -21.191  0.00  0.00    -0.229 N 
ATOM      6  N   UNL     1      35.780 -20.344 -19.466  0.00  0.00    -0.308 NA
ATOM      7  C   UNL     1      34.607 -20.524 -20.026  0.00  0.00    +0.187 C 
ATOM      8  C   UNL     1      36.439 -19.462 -20.323  0.00  0.00    +0.286 C 
ATOM      9  H   UNL     1      33.634 -19.835 -21.769  0.00  0.00    +0.173 HD
BRANCH   4  10
ATOM     10  C   UNL     1      35.783 -18.316 -22.523  0.00  0.00    +0.152 C 
BRANCH  10  11
ATOM     11  C   UNL     1      35.222 -16.942 -22.298  0.00  0.00    +0.000 C 
ATOM     12  C   UNL     1      35.070 -16.467 -21.000  0.00  0.00    -0.003 C 
ATOM     13  C   UNL     1      34.860 -16.159 -23.387  0.00  0.00    -0.003 C 
ATOM     14  C   UNL     1      34.183 -14.398 -21.878  0.00  0.00    -0.022 C 
ATOM     15  C   UNL     1      34.548 -15.189 -20.790  0.00  0.00    -0.005 C 
ATOM     16  C   UNL     1      34.339 -14.883 -23.177  0.00  0.00    -0.005 C 
ATOM     17  C   UNL     1      33.625 -13.033 -21.653  0.00  0.00    +0.031 C 
ENDBRANCH  10  11
ENDBRANCH   4  10
ENDBRANCH   2   7
ENDBRANCH   1   2
BRANCH   1  18
ATOM     18  C   UNL     1      33.805 -22.609 -17.222  0.00  0.00    +0.027 C 
BRANCH  18  19
ATOM     19  C   UNL     1      34.980 -22.950 -16.342  0.00  0.00    -0.022 C 
ATOM     20  C   UNL     1      36.221 -22.397 -16.619  0.00  0.00    -0.001 C 
ATOM     21  C   UNL     1      34.800 -23.809 -15.269  0.00  0.00    -0.001 C 
ATOM     22  C   UNL     1      37.142 -23.574 -14.721  0.00  0.00    +0.139 C 
ATOM     23  C   UNL     1      37.309 -22.711 -15.805  0.00  0.00    +0.037 C 
ATOM     24  C   UNL     1      35.888 -24.124 -14.454  0.00  0.00    +0.037 C 
BRANCH  22  25
ATOM     25  O   UNL     1      38.203 -23.883 -13.927  0.00  0.00    -0.472 OA
BRANCH  25  26
ATOM     26  C   UNL     1      38.628 -25.245 -13.911  0.00  0.00    +0.221 C 
ATOM     27  C   UNL     1      38.608 -25.729 -12.464  0.00  0.00    +0.055 C 
ATOM     28  C   UNL     1      37.683 -26.045 -14.803  0.00  0.00    +0.055 C 
BRANCH  26  30
ATOM     29  O   UNL     1      41.002 -24.708 -13.925  0.00  0.00    -0.246 OA
ATOM     30  C   UNL     1      40.043 -25.239 -14.472  0.00  0.00    +0.350 C 
BRANCH  30  31
ATOM     31  O   UNL     1      40.154 -25.888 -15.660  0.00  0.00    -0.478 OA
ATOM     32  H   UNL     1      40.281 -26.815 -15.677  0.00  0.00    +0.295 HD
ENDBRANCH  30  31
ENDBRANCH  26  30
ENDBRANCH  25  26
ENDBRANCH  22  25
ENDBRANCH  18  19
ENDBRANCH   1  18
TORSDOF 10
ENDMDL
MODEL 2
REMARK VINA RESULT:     -11.5      1.314      1.892
REMARK  Name = 9909438
REMARK  10 active torsions:
REMARK  status: ('A' for Active; 'I' for Inactive)
REMARK    1  A    between atoms: C_1  and  C_2
REMARK    2  A    between atoms: C_1  and  C_18
REMARK    3  A    between atoms: C_2  and  C_7
REMARK    4  A    between atoms: N_4  and  C_10
REMARK    5  A    between atoms: C_10  and  C_11
REMARK    6  A    between atoms: C_18  and  C_19
REMARK    7  A    between atoms: C_22  and  O_25
REMARK    8  A    between atoms: O_25  and  C_26
REMARK    9  A    between atoms: C_26  and  C_30
REMARK   10  A    between atoms: C_30  and  O_31
REMARK                            x       y       z     vdW  Elec       q    Type
REMARK                         _______ _______ _______ _____ _____    ______ ____
ROOT
ATOM      1  C   UNL     1      34.026 -22.373 -18.826  0.00  0.00    +0.014 C 
ENDROOT
BRANCH   1   2
ATOM      2  C   UNL     1      33.455 -21.126 -19.497  0.00  0.00    +0.078 C 
BRANCH   2   7
ATOM      3  O   UNL     1      37.565 -19.015 -20.465  0.00  0.00    -0.191 OA
ATOM      4  N   UNL     1      35.557 -19.139 -21.633  0.00  0.00    -0.151 N 
ATOM      5  N   UNL     1      34.361 -19.732 -21.366  0.00  0.00    -0.229 N 
ATOM      6  N   UNL     1      35.724 -20.172 -19.635  0.00  0.00    -0.308 NA
ATOM      7  C   UNL     1      34.529 -20.331 -20.154  0.00  0.00    +0.187 C 
ATOM      8  C   UNL     1      36.407 -19.397 -20.572  0.00  0.00    +0.286 C 
ATOM      9  H   UNL     1      33.551 -19.729 -21.926  0.00  0.00    +0.173 HD
BRANCH   4  10
ATOM     10  C   UNL     1      35.758 -18.391 -22.842  0.00  0.00    +0.152 C 
BRANCH  10  11
ATOM     11  C   UNL     1      35.183 -17.008 -22.750  0.00  0.00    +0.000 C 
ATOM     12  C   UNL     1      35.179 -16.346 -21.529  0.00  0.00    -0.003 C 
ATOM     13  C   UNL     1      34.659 -16.404 -23.887  0.00  0.00    -0.003 C 
ATOM     14  C   UNL     1      34.117 -14.447 -22.579  0.00  0.00    -0.022 C 
ATOM     15  C   UNL     1      34.644 -15.060 -21.443  0.00  0.00    -0.005 C 
ATOM     16  C   UNL     1      34.125 -15.119 -23.801  0.00  0.00    -0.005 C 
ATOM     17  C   UNL     1      33.545 -13.072 -22.487  0.00  0.00    +0.031 C 
ENDBRANCH  10  11
ENDBRANCH   4  10
ENDBRANCH   2   7
ENDBRANCH   1   2
BRANCH   1  18
ATOM     18  C   UNL     1      33.332 -22.692 -17.497  0.00  0.00    +0.027 C 
BRANCH  18  19
ATOM     19  C   UNL     1      34.331 -22.947 -16.397  0.00  0.00    -0.022 C 
ATOM     20  C   UNL     1      33.899 -23.501 -15.201  0.00  0.00    -0.001 C 
ATOM     21  C   UNL     1      35.664 -22.624 -16.598  0.00  0.00    -0.001 C 
ATOM     22  C   UNL     1      36.167 -23.419 -14.373  0.00  0.00    +0.139 C 
ATOM     23  C   UNL     1      34.822 -23.739 -14.183  0.00  0.00    +0.037 C 
ATOM     24  C   UNL     1      36.588 -22.860 -15.580  0.00  0.00    +0.037 C 
BRANCH  22  25
ATOM     25  O   UNL     1      37.068 -23.648 -13.379  0.00  0.00    -0.472 OA
BRANCH  25  26
ATOM     26  C   UNL     1      37.566 -24.979 -13.250  0.00  0.00    +0.221 C 
ATOM     27  C   UNL     1      36.711 -25.891 -14.124  0.00  0.00    +0.055 C 
ATOM     28  C   UNL     1      39.032 -24.978 -13.674  0.00  0.00    +0.055 C 
BRANCH  26  30
ATOM     29  O   UNL     1      37.794 -24.617 -10.853  0.00  0.00    -0.246 OA
ATOM     30  C   UNL     1      37.418 -25.330 -11.775  0.00  0.00    +0.350 C 
BRANCH  30  31
ATOM     31  O   UNL     1      36.820 -26.531 -11.565  0.00  0.00    -0.478 OA
ATOM     32  H   UNL     1      37.338 -27.309 -11.512  0.00  0.00    +0.295 HD
ENDBRANCH  30  31
ENDBRANCH  26  30
ENDBRANCH  25  26
ENDBRANCH  22  25
ENDBRANCH  18  19
ENDBRANCH   1  18
TORSDOF 10
ENDMDL
MODEL 3
REMARK VINA RESULT:     -11.4      2.780      4.594
REMARK  Name = 9909438
REMARK  10 active torsions:
REMARK  status: ('A' for Active; 'I' for Inactive)
REMARK    1  A    between atoms: C_1  and  C_2
REMARK    2  A    between atoms: C_1  and  C_18
REMARK    3  A    between atoms: C_2  and  C_7
REMARK    4  A    between atoms: N_4  and  C_10
REMARK    5  A    between atoms: C_10  and  C_11
REMARK    6  A    between atoms: C_18  and  C_19
REMARK    7  A    between atoms: C_22  and  O_25
REMARK    8  A    between atoms: O_25  and  C_26
REMARK    9  A    between atoms: C_26  and  C_30
REMARK   10  A    between atoms: C_30  and  O_31
REMARK                            x       y       z     vdW  Elec       q    Type
REMARK                         _______ _______ _______ _____ _____    ______ ____
ROOT
ATOM      1  C   UNL     1      35.294 -19.637 -21.683  0.00  0.00    +0.014 C 
ENDROOT
BRANCH   1   2
ATOM      2  C   UNL     1      34.836 -19.645 -23.139  0.00  0.00    +0.078 C 
BRANCH   2   7
ATOM      3  O   UNL     1      33.355 -15.913 -25.623  0.00  0.00    -0.191 OA
ATOM      4  N   UNL     1      34.760 -16.107 -23.779  0.00  0.00    -0.151 N 
ATOM      5  N   UNL     1      35.207 -17.171 -23.058  0.00  0.00    -0.229 N 
ATOM      6  N   UNL     1      33.859 -17.974 -24.667  0.00  0.00    -0.308 NA
ATOM      7  C   UNL     1      34.631 -18.258 -23.644  0.00  0.00    +0.187 C 
ATOM      8  C   UNL     1      33.932 -16.586 -24.779  0.00  0.00    +0.286 C 
ATOM      9  H   UNL     1      35.813 -17.159 -22.283  0.00  0.00    +0.173 HD
BRANCH   4  10
ATOM     10  C   UNL     1      35.172 -14.770 -23.456  0.00  0.00    +0.152 C 
BRANCH  10  11
ATOM     11  C   UNL     1      34.143 -14.048 -22.634  0.00  0.00    +0.000 C 
ATOM     12  C   UNL     1      33.226 -13.214 -23.261  0.00  0.00    -0.003 C 
ATOM     13  C   UNL     1      34.119 -14.221 -21.255  0.00  0.00    -0.003 C 
ATOM     14  C   UNL     1      32.238 -12.712 -21.115  0.00  0.00    -0.022 C 
ATOM     15  C   UNL     1      32.269 -12.543 -22.498  0.00  0.00    -0.005 C 
ATOM     16  C   UNL     1      33.163 -13.551 -20.493  0.00  0.00    -0.005 C 
ATOM     17  C   UNL     1      31.216 -11.994 -20.299  0.00  0.00    +0.031 C 
ENDBRANCH  10  11
ENDBRANCH   4  10
ENDBRANCH   2   7
ENDBRANCH   1   2
BRANCH   1  18
ATOM     18  C   UNL     1      34.118 -19.603 -20.700  0.00  0.00    +0.027 C 
BRANCH  18  19
ATOM     19  C   UNL     1      34.211 -20.713 -19.685  0.00  0.00    -0.022 C 
ATOM     20  C   UNL     1      33.047 -21.257 -19.163  0.00  0.00    -0.001 C 
ATOM     21  C   UNL     1      35.458 -21.171 -19.289  0.00  0.00    -0.001 C 
ATOM     22  C   UNL     1      34.380 -22.756 -17.817  0.00  0.00    +0.139 C 
ATOM     23  C   UNL     1      33.131 -22.285 -18.224  0.00  0.00    +0.037 C 
ATOM     24  C   UNL     1      35.543 -22.199 -18.349  0.00  0.00    +0.037 C 
BRANCH  22  25
ATOM     25  O   UNL     1      34.464 -23.758 -16.900  0.00  0.00    -0.472 OA
BRANCH  25  26
ATOM     26  C   UNL     1      34.646 -23.376 -15.537  0.00  0.00    +0.221 C 
ATOM     27  C   UNL     1      35.661 -22.239 -15.496  0.00  0.00    +0.055 C 
ATOM     28  C   UNL     1      33.288 -22.960 -14.978  0.00  0.00    +0.055 C 
BRANCH  26  30
ATOM     29  O   UNL     1      36.222 -25.184 -15.122  0.00  0.00    -0.246 OA
ATOM     30  C   UNL     1      35.176 -24.616 -14.831  0.00  0.00    +0.350 C 
BRANCH  30  31
ATOM     31  O   UNL     1      34.372 -25.050 -13.827  0.00  0.00    -0.478 OA
ATOM     32  H   UNL     1      34.524 -25.886 -13.432  0.00  0.00    +0.295 HD
ENDBRANCH  30  31
ENDBRANCH  26  30
ENDBRANCH  25  26
ENDBRANCH  22  25
ENDBRANCH  18  19
ENDBRANCH   1  18
TORSDOF 10
ENDMDL
MODEL 4
REMARK VINA RESULT:     -11.2      5.645     13.132
REMARK  Name = 9909438
REMARK  10 active torsions:
REMARK  status: ('A' for Active; 'I' for Inactive)
REMARK    1  A    between atoms: C_1  and  C_2
REMARK    2  A    between atoms: C_1  and  C_18
REMARK    3  A    between atoms: C_2  and  C_7
REMARK    4  A    between atoms: N_4  and  C_10
REMARK    5  A    between atoms: C_10  and  C_11
REMARK    6  A    between atoms: C_18  and  C_19
REMARK    7  A    between atoms: C_22  and  O_25
REMARK    8  A    between atoms: O_25  and  C_26
REMARK    9  A    between atoms: C_26  and  C_30
REMARK   10  A    between atoms: C_30  and  O_31
REMARK                            x       y       z     vdW  Elec       q    Type
REMARK                         _______ _______ _______ _____ _____    ______ ____
ROOT
ATOM      1  C   UNL     1      32.998 -13.837 -20.875  0.00  0.00    +0.014 C 
ENDROOT
BRANCH   1   2
ATOM      2  C   UNL     1      34.181 -14.571 -20.249  0.00  0.00    +0.078 C 
BRANCH   2   7
ATOM      3  O   UNL     1      35.171 -17.257 -24.004  0.00  0.00    -0.191 OA
ATOM      4  N   UNL     1      35.561 -17.544 -21.728  0.00  0.00    -0.151 N 
ATOM      5  N   UNL     1      35.275 -16.789 -20.633  0.00  0.00    -0.229 N 
ATOM      6  N   UNL     1      34.513 -15.674 -22.429  0.00  0.00    -0.308 NA
ATOM      7  C   UNL     1      34.646 -15.685 -21.123  0.00  0.00    +0.187 C 
ATOM      8  C   UNL     1      35.093 -16.873 -22.844  0.00  0.00    +0.286 C 
ATOM      9  H   UNL     1      35.478 -16.995 -19.691  0.00  0.00    +0.173 HD
BRANCH   4  10
ATOM     10  C   UNL     1      36.228 -18.810 -21.599  0.00  0.00    +0.152 C 
BRANCH  10  11
ATOM     11  C   UNL     1      35.477 -19.752 -20.703  0.00  0.00    +0.000 C 
ATOM     12  C   UNL     1      36.177 -20.558 -19.814  0.00  0.00    -0.003 C 
ATOM     13  C   UNL     1      34.090 -19.809 -20.773  0.00  0.00    -0.003 C 
ATOM     14  C   UNL     1      34.089 -21.497 -19.045  0.00  0.00    -0.022 C 
ATOM     15  C   UNL     1      35.480 -21.434 -18.981  0.00  0.00    -0.005 C 
ATOM     16  C   UNL     1      33.393 -20.684 -19.941  0.00  0.00    -0.005 C 
ATOM     17  C   UNL     1      33.343 -22.433 -18.155  0.00  0.00    +0.031 C 
ENDBRANCH  10  11
ENDBRANCH   4  10
ENDBRANCH   2   7
ENDBRANCH   1   2
BRANCH   1  18
ATOM     18  C   UNL     1      32.160 -13.085 -19.835  0.00  0.00    +0.027 C 
BRANCH  18  19
ATOM     19  C   UNL     1      31.990 -11.633 -20.205  0.00  0.00    -0.022 C 
ATOM     20  C   UNL     1      31.896 -10.682 -19.200  0.00  0.00    -0.001 C 
ATOM     21  C   UNL     1      31.930 -11.273 -21.542  0.00  0.00    -0.001 C 
ATOM     22  C   UNL     1      31.678  -8.963 -20.883  0.00  0.00    +0.139 C 
ATOM     23  C   UNL     1      31.740  -9.338 -19.540  0.00  0.00    +0.037 C 
ATOM     24  C   UNL     1      31.772  -9.930 -21.884  0.00  0.00    +0.037 C 
BRANCH  22  25
ATOM     25  O   UNL     1      31.524  -7.652 -21.216  0.00  0.00    -0.472 OA
BRANCH  25  26
ATOM     26  C   UNL     1      32.699  -6.843 -21.229  0.00  0.00    +0.221 C 
ATOM     27  C   UNL     1      33.180  -6.686 -19.790  0.00  0.00    +0.055 C 
ATOM     28  C   UNL     1      33.735  -7.528 -22.115  0.00  0.00    +0.055 C 
BRANCH  26  30
ATOM     29  O   UNL     1      31.985  -5.325 -22.994  0.00  0.00    -0.246 OA
ATOM     30  C   UNL     1      32.269  -5.505 -21.816  0.00  0.00    +0.350 C 
BRANCH  30  31
ATOM     31  O   UNL     1      32.225  -4.504 -20.899  0.00  0.00    -0.478 OA
ATOM     32  H   UNL     1      32.985  -3.979 -20.742  0.00  0.00    +0.295 HD
ENDBRANCH  30  31
ENDBRANCH  26  30
ENDBRANCH  25  26
ENDBRANCH  22  25
ENDBRANCH  18  19
ENDBRANCH   1  18
TORSDOF 10
ENDMDL
MODEL 5
REMARK VINA RESULT:     -11.1      2.287      3.209
REMARK  Name = 9909438
REMARK  10 active torsions:
REMARK  status: ('A' for Active; 'I' for Inactive)
REMARK    1  A    between atoms: C_1  and  C_2
REMARK    2  A    between atoms: C_1  and  C_18
REMARK    3  A    between atoms: C_2  and  C_7
REMARK    4  A    between atoms: N_4  and  C_10
REMARK    5  A    between atoms: C_10  and  C_11
REMARK    6  A    between atoms: C_18  and  C_19
REMARK    7  A    between atoms: C_22  and  O_25
REMARK    8  A    between atoms: O_25  and  C_26
REMARK    9  A    between atoms: C_26  and  C_30
REMARK   10  A    between atoms: C_30  and  O_31
REMARK                            x       y       z     vdW  Elec       q    Type
REMARK                         _______ _______ _______ _____ _____    ______ ____
ROOT
ATOM      1  C   UNL     1      34.356 -20.650 -19.810  0.00  0.00    +0.014 C 
ENDROOT
BRANCH   1   2
ATOM      2  C   UNL     1      35.639 -20.086 -20.414  0.00  0.00    +0.078 C 
BRANCH   2   7
ATOM      3  O   UNL     1      34.070 -18.346 -24.513  0.00  0.00    -0.191 OA
ATOM      4  N   UNL     1      35.229 -17.377 -22.743  0.00  0.00    -0.151 N 
ATOM      5  N   UNL     1      35.698 -17.864 -21.562  0.00  0.00    -0.229 N 
ATOM      6  N   UNL     1      34.684 -19.563 -22.626  0.00  0.00    -0.308 NA
ATOM      7  C   UNL     1      35.339 -19.178 -21.556  0.00  0.00    +0.187 C 
ATOM      8  C   UNL     1      34.606 -18.414 -23.414  0.00  0.00    +0.286 C 
ATOM      9  H   UNL     1      36.189 -17.373 -20.863  0.00  0.00    +0.173 HD
BRANCH   4  10
ATOM     10  C   UNL     1      35.431 -16.004 -23.110  0.00  0.00    +0.152 C 
BRANCH  10  11
ATOM     11  C   UNL     1      34.500 -15.083 -22.376  0.00  0.00    +0.000 C 
ATOM     12  C   UNL     1      33.621 -14.281 -23.093  0.00  0.00    -0.003 C 
ATOM     13  C   UNL     1      34.528 -15.041 -20.987  0.00  0.00    -0.003 C 
ATOM     14  C   UNL     1      32.776 -13.377 -21.018  0.00  0.00    -0.022 C 
ATOM     15  C   UNL     1      32.755 -13.425 -22.411  0.00  0.00    -0.005 C 
ATOM     16  C   UNL     1      33.662 -14.185 -20.306  0.00  0.00    -0.005 C 
ATOM     17  C   UNL     1      31.851 -12.462 -20.290  0.00  0.00    +0.031 C 
ENDBRANCH  10  11
ENDBRANCH   4  10
ENDBRANCH   2   7
ENDBRANCH   1   2
BRANCH   1  18
ATOM     18  C   UNL     1      34.469 -22.144 -19.486  0.00  0.00    +0.027 C 
BRANCH  18  19
ATOM     19  C   UNL     1      34.715 -22.378 -18.018  0.00  0.00    -0.022 C 
ATOM     20  C   UNL     1      35.953 -22.062 -17.477  0.00  0.00    -0.001 C 
ATOM     21  C   UNL     1      33.701 -22.903 -17.232  0.00  0.00    -0.001 C 
ATOM     22  C   UNL     1      35.170 -22.804 -15.316  0.00  0.00    +0.139 C 
ATOM     23  C   UNL     1      36.182 -22.276 -16.118  0.00  0.00    +0.037 C 
ATOM     24  C   UNL     1      33.930 -23.118 -15.872  0.00  0.00    +0.037 C 
BRANCH  22  25
ATOM     25  O   UNL     1      35.392 -23.015 -13.990  0.00  0.00    -0.472 OA
BRANCH  25  26
ATOM     26  C   UNL     1      36.053 -24.227 -13.627  0.00  0.00    +0.221 C 
ATOM     27  C   UNL     1      35.678 -25.294 -14.651  0.00  0.00    +0.055 C 
ATOM     28  C   UNL     1      37.554 -23.955 -13.597  0.00  0.00    +0.055 C 
BRANCH  26  30
ATOM     29  O   UNL     1      34.656 -23.957 -11.652  0.00  0.00    -0.246 OA
ATOM     30  C   UNL     1      35.529 -24.581 -12.243  0.00  0.00    +0.350 C 
BRANCH  30  31
ATOM     31  O   UNL     1      36.126 -25.676 -11.705  0.00  0.00    -0.478 OA
ATOM     32  H   UNL     1      36.716 -26.189 -12.221  0.00  0.00    +0.295 HD
ENDBRANCH  30  31
ENDBRANCH  26  30
ENDBRANCH  25  26
ENDBRANCH  22  25
ENDBRANCH  18  19
ENDBRANCH   1  18
TORSDOF 10
ENDMDL
MODEL 6
REMARK VINA RESULT:     -10.9      5.161     12.929
REMARK  Name = 9909438
REMARK  10 active torsions:
REMARK  status: ('A' for Active; 'I' for Inactive)
REMARK    1  A    between atoms: C_1  and  C_2
REMARK    2  A    between atoms: C_1  and  C_18
REMARK    3  A    between atoms: C_2  and  C_7
REMARK    4  A    between atoms: N_4  and  C_10
REMARK    5  A    between atoms: C_10  and  C_11
REMARK    6  A    between atoms: C_18  and  C_19
REMARK    7  A    between atoms: C_22  and  O_25
REMARK    8  A    between atoms: O_25  and  C_26
REMARK    9  A    between atoms: C_26  and  C_30
REMARK   10  A    between atoms: C_30  and  O_31
REMARK                            x       y       z     vdW  Elec       q    Type
REMARK                         _______ _______ _______ _____ _____    ______ ____
ROOT
ATOM      1  C   UNL     1      33.003 -13.879 -24.131  0.00  0.00    +0.014 C 
ENDROOT
BRANCH   1   2
ATOM      2  C   UNL     1      33.862 -15.075 -24.532  0.00  0.00    +0.078 C 
BRANCH   2   7
ATOM      3  O   UNL     1      35.121 -16.108 -20.100  0.00  0.00    -0.191 OA
ATOM      4  N   UNL     1      35.606 -17.117 -22.140  0.00  0.00    -0.151 N 
ATOM      5  N   UNL     1      35.262 -16.828 -23.425  0.00  0.00    -0.229 N 
ATOM      6  N   UNL     1      34.298 -15.279 -22.114  0.00  0.00    -0.308 NA
ATOM      7  C   UNL     1      34.481 -15.716 -23.338  0.00  0.00    +0.187 C 
ATOM      8  C   UNL     1      35.024 -16.167 -21.319  0.00  0.00    +0.286 C 
ATOM      9  H   UNL     1      35.521 -17.317 -24.240  0.00  0.00    +0.173 HD
BRANCH   4  10
ATOM     10  C   UNL     1      36.448 -18.239 -21.834  0.00  0.00    +0.152 C 
BRANCH  10  11
ATOM     11  C   UNL     1      35.736 -19.265 -21.002  0.00  0.00    +0.000 C 
ATOM     12  C   UNL     1      34.372 -19.464 -21.175  0.00  0.00    -0.003 C 
ATOM     13  C   UNL     1      36.449 -20.007 -20.066  0.00  0.00    -0.003 C 
ATOM     14  C   UNL     1      34.417 -21.166 -19.461  0.00  0.00    -0.022 C 
ATOM     15  C   UNL     1      33.710 -20.419 -20.402  0.00  0.00    -0.005 C 
ATOM     16  C   UNL     1      35.787 -20.961 -19.294  0.00  0.00    -0.005 C 
ATOM     17  C   UNL     1      33.710 -22.186 -18.635  0.00  0.00    +0.031 C 
ENDBRANCH  10  11
ENDBRANCH   4  10
ENDBRANCH   2   7
ENDBRANCH   1   2
BRANCH   1  18
ATOM     18  C   UNL     1      33.677 -12.541 -24.454  0.00  0.00    +0.027 C 
BRANCH  18  19
ATOM     19  C   UNL     1      33.081 -11.411 -23.654  0.00  0.00    -0.022 C 
ATOM     20  C   UNL     1      32.571 -11.668 -22.390  0.00  0.00    -0.001 C 
ATOM     21  C   UNL     1      33.055 -10.134 -24.193  0.00  0.00    -0.001 C 
ATOM     22  C   UNL     1      31.987  -9.333 -22.179  0.00  0.00    +0.139 C 
ATOM     23  C   UNL     1      32.020 -10.623 -21.648  0.00  0.00    +0.037 C 
ATOM     24  C   UNL     1      32.503  -9.089 -23.451  0.00  0.00    +0.037 C 
BRANCH  22  25
ATOM     25  O   UNL     1      31.449  -8.313 -21.456  0.00  0.00    -0.472 OA
BRANCH  25  26
ATOM     26  C   UNL     1      32.339  -7.289 -21.015  0.00  0.00    +0.221 C 
ATOM     27  C   UNL     1      33.602  -7.362 -21.868  0.00  0.00    +0.055 C 
ATOM     28  C   UNL     1      31.623  -5.949 -21.154  0.00  0.00    +0.055 C 
BRANCH  26  30
ATOM     29  O   UNL     1      31.974  -8.366 -18.863  0.00  0.00    -0.246 OA
ATOM     30  C   UNL     1      32.639  -7.607 -19.557  0.00  0.00    +0.350 C 
BRANCH  30  31
ATOM     31  O   UNL     1      33.734  -6.960 -19.079  0.00  0.00    -0.478 OA
ATOM     32  H   UNL     1      34.196  -7.305 -18.341  0.00  0.00    +0.295 HD
ENDBRANCH  30  31
ENDBRANCH  26  30
ENDBRANCH  25  26
ENDBRANCH  22  25
ENDBRANCH  18  19
ENDBRANCH   1  18
TORSDOF 10
ENDMDL
MODEL 7
REMARK VINA RESULT:     -10.8      1.499      2.208
REMARK  Name = 9909438
REMARK  10 active torsions:
REMARK  status: ('A' for Active; 'I' for Inactive)
REMARK    1  A    between atoms: C_1  and  C_2
REMARK    2  A    between atoms: C_1  and  C_18
REMARK    3  A    between atoms: C_2  and  C_7
REMARK    4  A    between atoms: N_4  and  C_10
REMARK    5  A    between atoms: C_10  and  C_11
REMARK    6  A    between atoms: C_18  and  C_19
REMARK    7  A    between atoms: C_22  and  O_25
REMARK    8  A    between atoms: O_25  and  C_26
REMARK    9  A    between atoms: C_26  and  C_30
REMARK   10  A    between atoms: C_30  and  O_31
REMARK                            x       y       z     vdW  Elec       q    Type
REMARK                         _______ _______ _______ _____ _____    ______ ____
ROOT
ATOM      1  C   UNL     1      36.113 -21.459 -19.732  0.00  0.00    +0.014 C 
ENDROOT
BRANCH   1   2
ATOM      2  C   UNL     1      36.528 -19.990 -19.749  0.00  0.00    +0.078 C 
BRANCH   2   7
ATOM      3  O   UNL     1      34.045 -18.961 -23.631  0.00  0.00    -0.191 OA
ATOM      4  N   UNL     1      35.491 -17.697 -22.317  0.00  0.00    -0.151 N 
ATOM      5  N   UNL     1      36.222 -17.978 -21.205  0.00  0.00    -0.229 N 
ATOM      6  N   UNL     1      35.105 -19.847 -21.758  0.00  0.00    -0.308 NA
ATOM      7  C   UNL     1      35.947 -19.282 -20.924  0.00  0.00    +0.187 C 
ATOM      8  C   UNL     1      34.801 -18.841 -22.675  0.00  0.00    +0.286 C 
ATOM      9  H   UNL     1      36.820 -17.371 -20.710  0.00  0.00    +0.173 HD
BRANCH   4  10
ATOM     10  C   UNL     1      35.535 -16.395 -22.922  0.00  0.00    +0.152 C 
BRANCH  10  11
ATOM     11  C   UNL     1      34.650 -15.414 -22.210  0.00  0.00    +0.000 C 
ATOM     12  C   UNL     1      34.676 -15.348 -20.822  0.00  0.00    -0.003 C 
ATOM     13  C   UNL     1      33.813 -14.582 -22.945  0.00  0.00    -0.003 C 
ATOM     14  C   UNL     1      33.012 -13.598 -20.889  0.00  0.00    -0.022 C 
ATOM     15  C   UNL     1      33.854 -14.435 -20.159  0.00  0.00    -0.005 C 
ATOM     16  C   UNL     1      32.992 -13.671 -22.282  0.00  0.00    -0.005 C 
ATOM     17  C   UNL     1      32.133 -12.623 -20.181  0.00  0.00    +0.031 C 
ENDBRANCH  10  11
ENDBRANCH   4  10
ENDBRANCH   2   7
ENDBRANCH   1   2
BRANCH   1  18
ATOM     18  C   UNL     1      34.948 -21.726 -18.773  0.00  0.00    +0.027 C 
BRANCH  18  19
ATOM     19  C   UNL     1      35.432 -22.232 -17.438  0.00  0.00    -0.022 C 
ATOM     20  C   UNL     1      34.538 -22.857 -16.582  0.00  0.00    -0.001 C 
ATOM     21  C   UNL     1      36.763 -22.065 -17.089  0.00  0.00    -0.001 C 
ATOM     22  C   UNL     1      36.322 -23.165 -14.983  0.00  0.00    +0.139 C 
ATOM     23  C   UNL     1      34.985 -23.327 -15.347  0.00  0.00    +0.037 C 
ATOM     24  C   UNL     1      37.211 -22.534 -15.853  0.00  0.00    +0.037 C 
BRANCH  22  25
ATOM     25  O   UNL     1      36.759 -23.622 -13.778  0.00  0.00    -0.472 OA
BRANCH  25  26
ATOM     26  C   UNL     1      37.030 -25.018 -13.672  0.00  0.00    +0.221 C 
ATOM     27  C   UNL     1      36.706 -25.455 -12.246  0.00  0.00    +0.055 C 
ATOM     28  C   UNL     1      36.178 -25.745 -14.708  0.00  0.00    +0.055 C 
BRANCH  26  30
ATOM     29  O   UNL     1      39.413 -24.694 -13.290  0.00  0.00    -0.246 OA
ATOM     30  C   UNL     1      38.515 -25.172 -13.972  0.00  0.00    +0.350 C 
BRANCH  30  31
ATOM     31  O   UNL     1      38.765 -25.903 -15.090  0.00  0.00    -0.478 OA
ATOM     32  H   UNL     1      38.442 -26.779 -15.158  0.00  0.00    +0.295 HD
ENDBRANCH  30  31
ENDBRANCH  26  30
ENDBRANCH  25  26
ENDBRANCH  22  25
ENDBRANCH  18  19
ENDBRANCH   1  18
TORSDOF 10
ENDMDL
MODEL 8
REMARK VINA RESULT:     -10.5      5.288     13.044
REMARK  Name = 9909438
REMARK  10 active torsions:
REMARK  status: ('A' for Active; 'I' for Inactive)
REMARK    1  A    between atoms: C_1  and  C_2
REMARK    2  A    between atoms: C_1  and  C_18
REMARK    3  A    between atoms: C_2  and  C_7
REMARK    4  A    between atoms: N_4  and  C_10
REMARK    5  A    between atoms: C_10  and  C_11
REMARK    6  A    between atoms: C_18  and  C_19
REMARK    7  A    between atoms: C_22  and  O_25
REMARK    8  A    between atoms: O_25  and  C_26
REMARK    9  A    between atoms: C_26  and  C_30
REMARK   10  A    between atoms: C_30  and  O_31
REMARK                            x       y       z     vdW  Elec       q    Type
REMARK                         _______ _______ _______ _____ _____    ______ ____
ROOT
ATOM      1  C   UNL     1      33.328 -14.673 -23.811  0.00  0.00    +0.014 C 
ENDROOT
BRANCH   1   2
ATOM      2  C   UNL     1      34.114 -15.552 -24.781  0.00  0.00    +0.078 C 
BRANCH   2   7
ATOM      3  O   UNL     1      34.840 -20.114 -23.808  0.00  0.00    -0.191 OA
ATOM      4  N   UNL     1      35.500 -18.161 -22.731  0.00  0.00    -0.151 N 
ATOM      5  N   UNL     1      35.292 -16.841 -22.989  0.00  0.00    -0.229 N 
ATOM      6  N   UNL     1      34.266 -18.007 -24.613  0.00  0.00    -0.308 NA
ATOM      7  C   UNL     1      34.545 -16.820 -24.128  0.00  0.00    +0.187 C 
ATOM      8  C   UNL     1      34.869 -18.894 -23.720  0.00  0.00    +0.286 C 
ATOM      9  H   UNL     1      35.612 -16.069 -22.467  0.00  0.00    +0.173 HD
BRANCH   4  10
ATOM     10  C   UNL     1      36.253 -18.580 -21.582  0.00  0.00    +0.152 C 
BRANCH  10  11
ATOM     11  C   UNL     1      35.494 -19.563 -20.740  0.00  0.00    +0.000 C 
ATOM     12  C   UNL     1      34.107 -19.498 -20.691  0.00  0.00    -0.003 C 
ATOM     13  C   UNL     1      36.185 -20.529 -20.018  0.00  0.00    -0.003 C 
ATOM     14  C   UNL     1      34.087 -21.384 -19.181  0.00  0.00    -0.022 C 
ATOM     15  C   UNL     1      33.400 -20.412 -19.908  0.00  0.00    -0.005 C 
ATOM     16  C   UNL     1      35.479 -21.443 -19.237  0.00  0.00    -0.005 C 
ATOM     17  C   UNL     1      33.331 -22.361 -18.345  0.00  0.00    +0.031 C 
ENDBRANCH  10  11
ENDBRANCH   4  10
ENDBRANCH   2   7
ENDBRANCH   1   2
BRANCH   1  18
ATOM     18  C   UNL     1      34.198 -13.586 -23.170  0.00  0.00    +0.027 C 
BRANCH  18  19
ATOM     19  C   UNL     1      33.420 -12.315 -22.943  0.00  0.00    -0.022 C 
ATOM     20  C   UNL     1      32.616 -12.201 -21.818  0.00  0.00    -0.001 C 
ATOM     21  C   UNL     1      33.522 -11.281 -23.860  0.00  0.00    -0.001 C 
ATOM     22  C   UNL     1      31.991  -9.976 -22.522  0.00  0.00    +0.139 C 
ATOM     23  C   UNL     1      31.897 -11.025 -21.606  0.00  0.00    +0.037 C 
ATOM     24  C   UNL     1      32.802 -10.104 -23.649  0.00  0.00    +0.037 C 
BRANCH  22  25
ATOM     25  O   UNL     1      31.289  -8.829 -22.317  0.00  0.00    -0.472 OA
BRANCH  25  26
ATOM     26  C   UNL     1      31.974  -7.753 -21.676  0.00  0.00    +0.221 C 
ATOM     27  C   UNL     1      31.884  -7.968 -20.168  0.00  0.00    +0.055 C 
ATOM     28  C   UNL     1      33.416  -7.748 -22.175  0.00  0.00    +0.055 C 
BRANCH  26  30
ATOM     29  O   UNL     1      30.887  -6.244 -23.246  0.00  0.00    -0.246 OA
ATOM     30  C   UNL     1      31.239  -6.489 -22.099  0.00  0.00    +0.350 C 
BRANCH  30  31
ATOM     31  O   UNL     1      31.001  -5.635 -21.070  0.00  0.00    -0.478 OA
ATOM     32  H   UNL     1      30.373  -4.947 -21.168  0.00  0.00    +0.295 HD
ENDBRANCH  30  31
ENDBRANCH  26  30
ENDBRANCH  25  26
ENDBRANCH  22  25
ENDBRANCH  18  19
ENDBRANCH   1  18
TORSDOF 10
ENDMDL
MODEL 9
REMARK VINA RESULT:     -10.5      3.965     10.002
REMARK  Name = 9909438
REMARK  10 active torsions:
REMARK  status: ('A' for Active; 'I' for Inactive)
REMARK    1  A    between atoms: C_1  and  C_2
REMARK    2  A    between atoms: C_1  and  C_18
REMARK    3  A    between atoms: C_2  and  C_7
REMARK    4  A    between atoms: N_4  and  C_10
REMARK    5  A    between atoms: C_10  and  C_11
REMARK    6  A    between atoms: C_18  and  C_19
REMARK    7  A    between atoms: C_22  and  O_25
REMARK    8  A    between atoms: O_25  and  C_26
REMARK    9  A    between atoms: C_26  and  C_30
REMARK   10  A    between atoms: C_30  and  O_31
REMARK                            x       y       z     vdW  Elec       q    Type
REMARK                         _______ _______ _______ _____ _____    ______ ____
ROOT
ATOM      1  C   UNL     1      34.249 -22.690 -16.799  0.00  0.00    +0.014 C 
ENDROOT
BRANCH   1   2
ATOM      2  C   UNL     1      35.308 -23.244 -15.849  0.00  0.00    +0.078 C 
BRANCH   2   7
ATOM      3  O   UNL     1      34.592 -24.858 -11.470  0.00  0.00    -0.191 OA
ATOM      4  N   UNL     1      33.177 -24.623 -13.302  0.00  0.00    -0.151 N 
ATOM      5  N   UNL     1      33.366 -24.172 -14.572  0.00  0.00    -0.229 N 
ATOM      6  N   UNL     1      35.337 -24.009 -13.505  0.00  0.00    -0.308 NA
ATOM      7  C   UNL     1      34.682 -23.822 -14.626  0.00  0.00    +0.187 C 
ATOM      8  C   UNL     1      34.384 -24.535 -12.632  0.00  0.00    +0.286 C 
ATOM      9  H   UNL     1      32.699 -24.111 -15.293  0.00  0.00    +0.173 HD
BRANCH   4  10
ATOM     10  C   UNL     1      31.891 -25.096 -12.870  0.00  0.00    +0.152 C 
BRANCH  10  11
ATOM     11  C   UNL     1      30.775 -24.517 -13.689  0.00  0.00    +0.000 C 
ATOM     12  C   UNL     1      29.903 -25.367 -14.359  0.00  0.00    -0.003 C 
ATOM     13  C   UNL     1      30.624 -23.138 -13.769  0.00  0.00    -0.003 C 
ATOM     14  C   UNL     1      28.707 -23.447 -15.206  0.00  0.00    -0.022 C 
ATOM     15  C   UNL     1      28.865 -24.829 -15.121  0.00  0.00    -0.005 C 
ATOM     16  C   UNL     1      29.586 -22.601 -14.530  0.00  0.00    -0.005 C 
ATOM     17  C   UNL     1      27.597 -22.872 -16.021  0.00  0.00    +0.031 C 
ENDBRANCH  10  11
ENDBRANCH   4  10
ENDBRANCH   2   7
ENDBRANCH   1   2
BRANCH   1  18
ATOM     18  C   UNL     1      34.557 -23.006 -18.266  0.00  0.00    +0.027 C 
BRANCH  18  19
ATOM     19  C   UNL     1      34.580 -21.758 -19.111  0.00  0.00    -0.022 C 
ATOM     20  C   UNL     1      33.384 -21.214 -19.554  0.00  0.00    -0.001 C 
ATOM     21  C   UNL     1      35.796 -21.174 -19.430  0.00  0.00    -0.001 C 
ATOM     22  C   UNL     1      34.620 -19.460 -20.663  0.00  0.00    +0.139 C 
ATOM     23  C   UNL     1      33.403 -20.058 -20.334  0.00  0.00    +0.037 C 
ATOM     24  C   UNL     1      35.817 -20.018 -20.212  0.00  0.00    +0.037 C 
BRANCH  22  25
ATOM     25  O   UNL     1      34.641 -18.333 -21.426  0.00  0.00    -0.472 OA
BRANCH  25  26
ATOM     26  C   UNL     1      35.390 -18.385 -22.639  0.00  0.00    +0.221 C 
ATOM     27  C   UNL     1      36.869 -18.486 -22.278  0.00  0.00    +0.055 C 
ATOM     28  C   UNL     1      34.906 -19.589 -23.442  0.00  0.00    +0.055 C 
BRANCH  26  30
ATOM     29  O   UNL     1      34.384 -16.991 -24.364  0.00  0.00    -0.246 OA
ATOM     30  C   UNL     1      35.086 -17.081 -23.364  0.00  0.00    +0.350 C 
BRANCH  30  31
ATOM     31  O   UNL     1      35.674 -15.998 -22.793  0.00  0.00    -0.478 OA
ATOM     32  H   UNL     1      36.352 -15.539 -23.248  0.00  0.00    +0.295 HD
ENDBRANCH  30  31
ENDBRANCH  26  30
ENDBRANCH  25  26
ENDBRANCH  22  25
ENDBRANCH  18  19
ENDBRANCH   1  18
TORSDOF 10
ENDMDL
