MODEL 1
REMARK VINA RESULT:     -11.5      0.000      0.000
REMARK  Name = 11653652
REMARK  5 active torsions:
REMARK  status: ('A' for Active; 'I' for Inactive)
REMARK    1  A    between atoms: N_1  and  C_19
REMARK    2  A    between atoms: C_4  and  C_7
REMARK    3  A    between atoms: C_5  and  C_27
REMARK    4  A    between atoms: N_6  and  C_13
REMARK    5  A    between atoms: N_6  and  O_16
REMARK                            x       y       z     vdW  Elec       q    Type
REMARK                         _______ _______ _______ _____ _____    ______ ____
ROOT
ATOM      1  N   UNL     1      33.666 -22.308 -17.939  0.00  0.00    -0.212 N 
ATOM      2  N   UNL     1      32.380 -22.603 -17.685  0.00  0.00    -0.178 NA
ATOM      3  C   UNL     1      34.520 -22.644 -16.930  0.00  0.00    +0.085 C 
ATOM      4  C   UNL     1      33.736 -23.195 -15.950  0.00  0.00    +0.032 C 
ATOM      5  C   UNL     1      32.430 -23.145 -16.464  0.00  0.00    +0.100 C 
ENDROOT
BRANCH   4   6
ATOM      6  C   UNL     1      34.256 -23.685 -14.703  0.00  0.00    -0.015 C 
ATOM      7  C   UNL     1      35.956 -24.832 -13.469  0.00  0.00    -0.016 C 
ATOM      8  C   UNL     1      37.227 -25.583 -13.223  0.00  0.00    -0.002 C 
ATOM      9  C   UNL     1      35.224 -24.609 -12.308  0.00  0.00    +0.016 C 
ATOM     10  C   UNL     1      37.231 -25.828 -11.704  0.00  0.00    +0.021 C 
ATOM     11  C   UNL     1      35.476 -24.368 -14.683  0.00  0.00    +0.053 C 
ATOM     12  C   UNL     1      35.958 -25.196 -11.206  0.00  0.00    +0.107 C 
ATOM     13  C   UNL     1      33.532 -23.471 -13.518  0.00  0.00    -0.004 C 
ATOM     14  C   UNL     1      34.017 -23.937 -12.296  0.00  0.00    +0.001 C 
BRANCH  12  15
ATOM     15  N   UNL     1      35.615 -25.205  -9.964  0.00  0.00    -0.135 NA
BRANCH  15  16
ATOM     16  O   UNL     1      36.292 -24.172  -9.311  0.00  0.00    -0.265 OA
ATOM     17  H   UNL     1      36.285 -24.125  -8.376  0.00  0.00    +0.247 HD
ENDBRANCH  15  16
ENDBRANCH  12  15
ENDBRANCH   4   6
BRANCH   1  19
ATOM     18  N   UNL     1      34.819 -19.425 -20.893  0.00  0.00    +0.384 N 
ATOM     19  C   UNL     1      34.030 -21.684 -19.216  0.00  0.00    +0.092 C 
ATOM     20  C   UNL     1      33.031 -20.600 -19.653  0.00  0.00    -0.002 C 
ATOM     21  C   UNL     1      35.462 -21.127 -19.217  0.00  0.00    -0.002 C 
ATOM     22  C   UNL     1      33.461 -19.962 -20.973  0.00  0.00    -0.080 C 
ATOM     23  C   UNL     1      35.791 -20.467 -20.556  0.00  0.00    -0.080 C 
ATOM     24  H   UNL     1      34.848 -18.701 -20.174  0.00  0.00    -0.085 HD
ATOM     25  H   UNL     1      35.066 -19.041 -21.805  0.00  0.00    -0.085 HD
ENDBRANCH   1  19
BRANCH   5  27
ATOM     26  N   UNL     1      28.880 -24.484 -14.592  0.00  0.00    -0.242 NA
ATOM     27  C   UNL     1      31.221 -23.601 -15.827  0.00  0.00    +0.022 C 
ATOM     28  C   UNL     1      31.135 -24.904 -15.356  0.00  0.00    +0.022 C 
ATOM     29  C   UNL     1      30.144 -22.737 -15.685  0.00  0.00    +0.022 C 
ATOM     30  C   UNL     1      29.952 -25.294 -14.751  0.00  0.00    +0.099 C 
ATOM     31  C   UNL     1      29.005 -23.224 -15.065  0.00  0.00    +0.099 C 
ENDBRANCH   5  27
TORSDOF 5
ENDMDL
MODEL 2
REMARK VINA RESULT:     -10.3      1.140      1.817
REMARK  Name = 11653652
REMARK  5 active torsions:
REMARK  status: ('A' for Active; 'I' for Inactive)
REMARK    1  A    between atoms: N_1  and  C_19
REMARK    2  A    between atoms: C_4  and  C_7
REMARK    3  A    between atoms: C_5  and  C_27
REMARK    4  A    between atoms: N_6  and  C_13
REMARK    5  A    between atoms: N_6  and  O_16
REMARK                            x       y       z     vdW  Elec       q    Type
REMARK                         _______ _______ _______ _____ _____    ______ ____
ROOT
ATOM      1  N   UNL     1      33.836 -22.273 -18.080  0.00  0.00    -0.212 N 
ATOM      2  N   UNL     1      32.583 -22.522 -17.663  0.00  0.00    -0.178 NA
ATOM      3  C   UNL     1      34.801 -22.723 -17.227  0.00  0.00    +0.085 C 
ATOM      4  C   UNL     1      34.130 -23.304 -16.183  0.00  0.00    +0.032 C 
ATOM      5  C   UNL     1      32.770 -23.154 -16.500  0.00  0.00    +0.100 C 
ENDROOT
BRANCH   4   6
ATOM      6  C   UNL     1      34.789 -23.909 -15.058  0.00  0.00    -0.015 C 
ATOM      7  C   UNL     1      35.333 -23.917 -12.728  0.00  0.00    -0.016 C 
ATOM      8  C   UNL     1      35.357 -23.454 -11.304  0.00  0.00    -0.002 C 
ATOM      9  C   UNL     1      36.059 -25.086 -12.929  0.00  0.00    +0.016 C 
ATOM     10  C   UNL     1      36.218 -24.503 -10.581  0.00  0.00    +0.021 C 
ATOM     11  C   UNL     1      34.687 -23.316 -13.796  0.00  0.00    +0.053 C 
ATOM     12  C   UNL     1      36.618 -25.483 -11.654  0.00  0.00    +0.107 C 
ATOM     13  C   UNL     1      35.529 -25.090 -15.240  0.00  0.00    -0.004 C 
ATOM     14  C   UNL     1      36.177 -25.695 -14.164  0.00  0.00    +0.001 C 
BRANCH  12  15
ATOM     15  N   UNL     1      37.355 -26.513 -11.417  0.00  0.00    -0.135 NA
BRANCH  15  16
ATOM     16  O   UNL     1      38.571 -26.348 -12.084  0.00  0.00    -0.265 OA
ATOM     17  H   UNL     1      38.718 -25.586 -12.610  0.00  0.00    +0.247 HD
ENDBRANCH  15  16
ENDBRANCH  12  15
ENDBRANCH   4   6
BRANCH   1  19
ATOM     18  N   UNL     1      34.567 -19.207 -20.983  0.00  0.00    +0.384 N 
ATOM     19  C   UNL     1      34.053 -21.577 -19.352  0.00  0.00    +0.092 C 
ATOM     20  C   UNL     1      32.960 -20.539 -19.656  0.00  0.00    -0.002 C 
ATOM     21  C   UNL     1      35.446 -20.933 -19.445  0.00  0.00    -0.002 C 
ATOM     22  C   UNL     1      33.239 -19.823 -20.976  0.00  0.00    -0.080 C 
ATOM     23  C   UNL     1      35.621 -20.201 -20.775  0.00  0.00    -0.080 C 
ATOM     24  H   UNL     1      34.614 -18.513 -20.237  0.00  0.00    -0.085 HD
ATOM     25  H   UNL     1      34.713 -18.772 -21.894  0.00  0.00    -0.085 HD
ENDBRANCH   1  19
BRANCH   5  27
ATOM     26  N   UNL     1      29.444 -24.449 -14.229  0.00  0.00    -0.242 NA
ATOM     27  C   UNL     1      31.637 -23.595 -15.727  0.00  0.00    +0.022 C 
ATOM     28  C   UNL     1      30.444 -22.889 -15.782  0.00  0.00    +0.022 C 
ATOM     29  C   UNL     1      31.742 -24.725 -14.928  0.00  0.00    +0.022 C 
ATOM     30  C   UNL     1      29.384 -23.353 -15.020  0.00  0.00    +0.099 C 
ATOM     31  C   UNL     1      30.624 -25.107 -14.204  0.00  0.00    +0.099 C 
ENDBRANCH   5  27
TORSDOF 5
ENDMDL
MODEL 3
REMARK VINA RESULT:      -9.8      2.128      5.296
REMARK  Name = 11653652
REMARK  5 active torsions:
REMARK  status: ('A' for Active; 'I' for Inactive)
REMARK    1  A    between atoms: N_1  and  C_19
REMARK    2  A    between atoms: C_4  and  C_7
REMARK    3  A    between atoms: C_5  and  C_27
REMARK    4  A    between atoms: N_6  and  C_13
REMARK    5  A    between atoms: N_6  and  O_16
REMARK                            x       y       z     vdW  Elec       q    Type
REMARK                         _______ _______ _______ _____ _____    ______ ____
ROOT
ATOM      1  N   UNL     1      31.408 -23.494 -15.561  0.00  0.00    -0.212 N 
ATOM      2  N   UNL     1      31.999 -22.898 -16.611  0.00  0.00    -0.178 NA
ATOM      3  C   UNL     1      32.285 -24.038 -14.669  0.00  0.00    +0.085 C 
ATOM      4  C   UNL     1      33.533 -23.779 -15.173  0.00  0.00    +0.032 C 
ATOM      5  C   UNL     1      33.300 -23.076 -16.367  0.00  0.00    +0.100 C 
ENDROOT
BRANCH   4   6
ATOM      6  C   UNL     1      34.748 -24.189 -14.525  0.00  0.00    -0.015 C 
ATOM      7  C   UNL     1      36.406 -23.874 -12.829  0.00  0.00    -0.016 C 
ATOM      8  C   UNL     1      37.097 -23.242 -11.660  0.00  0.00    -0.002 C 
ATOM      9  C   UNL     1      37.071 -24.998 -13.308  0.00  0.00    +0.016 C 
ATOM     10  C   UNL     1      38.334 -24.126 -11.432  0.00  0.00    +0.021 C 
ATOM     11  C   UNL     1      35.232 -23.459 -13.435  0.00  0.00    +0.053 C 
ATOM     12  C   UNL     1      38.251 -25.193 -12.492  0.00  0.00    +0.107 C 
ATOM     13  C   UNL     1      35.436 -25.322 -14.994  0.00  0.00    -0.004 C 
ATOM     14  C   UNL     1      36.617 -25.740 -14.381  0.00  0.00    +0.001 C 
BRANCH  12  15
ATOM     15  N   UNL     1      39.132 -26.125 -12.612  0.00  0.00    -0.135 NA
BRANCH  15  16
ATOM     16  O   UNL     1      40.064 -25.730 -13.576  0.00  0.00    -0.265 OA
ATOM     17  H   UNL     1      40.976 -25.899 -13.441  0.00  0.00    +0.247 HD
ENDBRANCH  15  16
ENDBRANCH  12  15
ENDBRANCH   4   6
BRANCH   1  19
ATOM     18  N   UNL     1      27.282 -22.374 -15.871  0.00  0.00    +0.384 N 
ATOM     19  C   UNL     1      29.944 -23.509 -15.463  0.00  0.00    +0.092 C 
ATOM     20  C   UNL     1      29.396 -22.371 -14.587  0.00  0.00    -0.002 C 
ATOM     21  C   UNL     1      29.258 -23.508 -16.838  0.00  0.00    -0.002 C 
ATOM     22  C   UNL     1      27.870 -22.411 -14.532  0.00  0.00    -0.080 C 
ATOM     23  C   UNL     1      27.737 -23.501 -16.689  0.00  0.00    -0.080 C 
ATOM     24  H   UNL     1      27.554 -21.504 -16.328  0.00  0.00    -0.085 HD
ATOM     25  H   UNL     1      26.269 -22.436 -15.778  0.00  0.00    -0.085 HD
ENDBRANCH   1  19
BRANCH   5  27
ATOM     26  N   UNL     1      36.190 -21.579 -19.071  0.00  0.00    -0.242 NA
ATOM     27  C   UNL     1      34.285 -22.566 -17.288  0.00  0.00    +0.022 C 
ATOM     28  C   UNL     1      35.567 -22.281 -16.843  0.00  0.00    +0.022 C 
ATOM     29  C   UNL     1      33.947 -22.362 -18.619  0.00  0.00    +0.022 C 
ATOM     30  C   UNL     1      36.477 -21.792 -17.767  0.00  0.00    +0.099 C 
ATOM     31  C   UNL     1      34.929 -21.870 -19.463  0.00  0.00    +0.099 C 
ENDBRANCH   5  27
TORSDOF 5
ENDMDL
MODEL 4
REMARK VINA RESULT:      -9.6      3.329      7.899
REMARK  Name = 11653652
REMARK  5 active torsions:
REMARK  status: ('A' for Active; 'I' for Inactive)
REMARK    1  A    between atoms: N_1  and  C_19
REMARK    2  A    between atoms: C_4  and  C_7
REMARK    3  A    between atoms: C_5  and  C_27
REMARK    4  A    between atoms: N_6  and  C_13
REMARK    5  A    between atoms: N_6  and  O_16
REMARK                            x       y       z     vdW  Elec       q    Type
REMARK                         _______ _______ _______ _____ _____    ______ ____
ROOT
ATOM      1  N   UNL     1      32.198 -23.730 -16.136  0.00  0.00    -0.212 N 
ATOM      2  N   UNL     1      33.223 -24.084 -15.343  0.00  0.00    -0.178 NA
ATOM      3  C   UNL     1      32.553 -22.908 -17.165  0.00  0.00    +0.085 C 
ATOM      4  C   UNL     1      33.903 -22.712 -17.033  0.00  0.00    +0.032 C 
ATOM      5  C   UNL     1      34.265 -23.457 -15.897  0.00  0.00    +0.100 C 
ENDROOT
BRANCH   4   6
ATOM      6  C   UNL     1      34.675 -21.897 -17.929  0.00  0.00    -0.015 C 
ATOM      7  C   UNL     1      34.823 -20.529 -19.887  0.00  0.00    -0.016 C 
ATOM      8  C   UNL     1      34.367 -19.815 -21.122  0.00  0.00    -0.002 C 
ATOM      9  C   UNL     1      36.176 -20.345 -19.623  0.00  0.00    +0.016 C 
ATOM     10  C   UNL     1      35.635 -19.120 -21.644  0.00  0.00    +0.021 C 
ATOM     11  C   UNL     1      34.056 -21.310 -19.037  0.00  0.00    +0.053 C 
ATOM     12  C   UNL     1      36.716 -19.495 -20.664  0.00  0.00    +0.107 C 
ATOM     13  C   UNL     1      36.044 -21.698 -17.680  0.00  0.00    -0.004 C 
ATOM     14  C   UNL     1      36.814 -20.911 -18.536  0.00  0.00    +0.001 C 
BRANCH  12  15
ATOM     15  N   UNL     1      37.933 -19.091 -20.780  0.00  0.00    -0.135 NA
BRANCH  15  16
ATOM     16  O   UNL     1      38.134 -18.667 -22.097  0.00  0.00    -0.265 OA
ATOM     17  H   UNL     1      38.471 -19.265 -22.735  0.00  0.00    +0.247 HD
ENDBRANCH  15  16
ENDBRANCH  12  15
ENDBRANCH   4   6
BRANCH   1  19
ATOM     18  N   UNL     1      28.342 -24.284 -14.347  0.00  0.00    +0.384 N 
ATOM     19  C   UNL     1      30.850 -24.232 -15.847  0.00  0.00    +0.092 C 
ATOM     20  C   UNL     1      30.741 -24.877 -14.456  0.00  0.00    -0.002 C 
ATOM     21  C   UNL     1      29.766 -23.157 -16.028  0.00  0.00    -0.002 C 
ATOM     22  C   UNL     1      29.318 -25.363 -14.190  0.00  0.00    -0.080 C 
ATOM     23  C   UNL     1      28.382 -23.716 -15.696  0.00  0.00    -0.080 C 
ATOM     24  H   UNL     1      28.550 -23.548 -13.672  0.00  0.00    -0.085 HD
ATOM     25  H   UNL     1      27.411 -24.668 -14.190  0.00  0.00    -0.085 HD
ENDBRANCH   1  19
BRANCH   5  27
ATOM     26  N   UNL     1      38.124 -23.849 -14.207  0.00  0.00    -0.242 NA
ATOM     27  C   UNL     1      35.579 -23.590 -15.322  0.00  0.00    +0.022 C 
ATOM     28  C   UNL     1      36.313 -22.457 -15.001  0.00  0.00    +0.022 C 
ATOM     29  C   UNL     1      36.108 -24.852 -15.089  0.00  0.00    +0.022 C 
ATOM     30  C   UNL     1      37.571 -22.638 -14.450  0.00  0.00    +0.099 C 
ATOM     31  C   UNL     1      37.375 -24.927 -14.534  0.00  0.00    +0.099 C 
ENDBRANCH   5  27
TORSDOF 5
ENDMDL
MODEL 5
REMARK VINA RESULT:      -9.6     11.982     16.707
REMARK  Name = 11653652
REMARK  5 active torsions:
REMARK  status: ('A' for Active; 'I' for Inactive)
REMARK    1  A    between atoms: N_1  and  C_19
REMARK    2  A    between atoms: C_4  and  C_7
REMARK    3  A    between atoms: C_5  and  C_27
REMARK    4  A    between atoms: N_6  and  C_13
REMARK    5  A    between atoms: N_6  and  O_16
REMARK                            x       y       z     vdW  Elec       q    Type
REMARK                         _______ _______ _______ _____ _____    ______ ____
ROOT
ATOM      1  N   UNL     1      33.154 -12.755 -22.871  0.00  0.00    -0.212 N 
ATOM      2  N   UNL     1      32.772 -12.387 -21.637  0.00  0.00    -0.178 NA
ATOM      3  C   UNL     1      33.238 -11.719 -23.755  0.00  0.00    +0.085 C 
ATOM      4  C   UNL     1      32.885 -10.600 -23.048  0.00  0.00    +0.032 C 
ATOM      5  C   UNL     1      32.607 -11.066 -21.752  0.00  0.00    +0.100 C 
ENDROOT
BRANCH   4   6
ATOM      6  C   UNL     1      32.844  -9.283 -23.621  0.00  0.00    -0.015 C 
ATOM      7  C   UNL     1      33.949  -7.251 -24.236  0.00  0.00    -0.016 C 
ATOM      8  C   UNL     1      35.070  -6.271 -24.395  0.00  0.00    -0.002 C 
ATOM      9  C   UNL     1      32.737  -6.771 -24.720  0.00  0.00    +0.016 C 
ATOM     10  C   UNL     1      34.413  -5.054 -25.067  0.00  0.00    +0.021 C 
ATOM     11  C   UNL     1      34.014  -8.518 -23.680  0.00  0.00    +0.053 C 
ATOM     12  C   UNL     1      32.966  -5.438 -25.237  0.00  0.00    +0.107 C 
ATOM     13  C   UNL     1      31.629  -8.779 -24.116  0.00  0.00    -0.004 C 
ATOM     14  C   UNL     1      31.566  -7.503 -24.676  0.00  0.00    +0.001 C 
BRANCH  12  15
ATOM     15  N   UNL     1      32.095  -4.653 -25.771  0.00  0.00    -0.135 NA
BRANCH  15  16
ATOM     16  O   UNL     1      31.387  -4.017 -24.749  0.00  0.00    -0.265 OA
ATOM     17  H   UNL     1      30.514  -4.288 -24.545  0.00  0.00    +0.247 HD
ENDBRANCH  15  16
ENDBRANCH  12  15
ENDBRANCH   4   6
BRANCH   1  19
ATOM     18  N   UNL     1      35.050 -16.342 -24.254  0.00  0.00    +0.384 N 
ATOM     19  C   UNL     1      33.439 -14.166 -23.154  0.00  0.00    +0.092 C 
ATOM     20  C   UNL     1      33.480 -14.474 -24.659  0.00  0.00    -0.002 C 
ATOM     21  C   UNL     1      34.722 -14.661 -22.468  0.00  0.00    -0.002 C 
ATOM     22  C   UNL     1      33.801 -15.947 -24.907  0.00  0.00    -0.080 C 
ATOM     23  C   UNL     1      34.991 -16.127 -22.807  0.00  0.00    -0.080 C 
ATOM     24  H   UNL     1      35.815 -15.788 -24.640  0.00  0.00    -0.085 HD
ATOM     25  H   UNL     1      35.199 -17.336 -24.424  0.00  0.00    -0.085 HD
ENDBRANCH   1  19
BRANCH   5  27
ATOM     26  N   UNL     1      31.380  -8.781 -18.409  0.00  0.00    -0.242 NA
ATOM     27  C   UNL     1      32.190 -10.288 -20.613  0.00  0.00    +0.022 C 
ATOM     28  C   UNL     1      31.609 -10.916 -19.521  0.00  0.00    +0.022 C 
ATOM     29  C   UNL     1      32.368  -8.911 -20.612  0.00  0.00    +0.022 C 
ATOM     30  C   UNL     1      31.224 -10.124 -18.451  0.00  0.00    +0.099 C 
ATOM     31  C   UNL     1      31.949  -8.209 -19.494  0.00  0.00    +0.099 C 
ENDBRANCH   5  27
TORSDOF 5
ENDMDL
MODEL 6
REMARK VINA RESULT:      -9.3      2.451      5.416
REMARK  Name = 11653652
REMARK  5 active torsions:
REMARK  status: ('A' for Active; 'I' for Inactive)
REMARK    1  A    between atoms: N_1  and  C_19
REMARK    2  A    between atoms: C_4  and  C_7
REMARK    3  A    between atoms: C_5  and  C_27
REMARK    4  A    between atoms: N_6  and  C_13
REMARK    5  A    between atoms: N_6  and  O_16
REMARK                            x       y       z     vdW  Elec       q    Type
REMARK                         _______ _______ _______ _____ _____    ______ ____
ROOT
ATOM      1  N   UNL     1      35.252 -21.710 -18.467  0.00  0.00    -0.212 N 
ATOM      2  N   UNL     1      36.134 -22.126 -17.544  0.00  0.00    -0.178 NA
ATOM      3  C   UNL     1      33.954 -21.996 -18.160  0.00  0.00    +0.085 C 
ATOM      4  C   UNL     1      33.994 -22.643 -16.953  0.00  0.00    +0.032 C 
ATOM      5  C   UNL     1      35.358 -22.697 -16.618  0.00  0.00    +0.100 C 
ENDROOT
BRANCH   4   6
ATOM      6  C   UNL     1      32.822 -23.118 -16.271  0.00  0.00    -0.015 C 
ATOM      7  C   UNL     1      30.445 -23.140 -15.996  0.00  0.00    -0.016 C 
ATOM      8  C   UNL     1      29.012 -22.790 -16.255  0.00  0.00    -0.002 C 
ATOM      9  C   UNL     1      30.601 -24.043 -14.951  0.00  0.00    +0.016 C 
ATOM     10  C   UNL     1      28.231 -23.607 -15.212  0.00  0.00    +0.021 C 
ATOM     11  C   UNL     1      31.559 -22.668 -16.670  0.00  0.00    +0.053 C 
ATOM     12  C   UNL     1      29.283 -24.359 -14.440  0.00  0.00    +0.107 C 
ATOM     13  C   UNL     1      32.958 -24.031 -15.211  0.00  0.00    -0.004 C 
ATOM     14  C   UNL     1      31.835 -24.507 -14.535  0.00  0.00    +0.001 C 
BRANCH  12  15
ATOM     15  N   UNL     1      28.999 -25.157 -13.470  0.00  0.00    -0.135 NA
BRANCH  15  16
ATOM     16  O   UNL     1      28.742 -26.424 -14.001  0.00  0.00    -0.265 OA
ATOM     17  H   UNL     1      28.043 -26.943 -13.655  0.00  0.00    +0.247 HD
ENDBRANCH  15  16
ENDBRANCH  12  15
ENDBRANCH   4   6
BRANCH   1  19
ATOM     18  N   UNL     1      36.186 -18.645 -21.314  0.00  0.00    +0.384 N 
ATOM     19  C   UNL     1      35.730 -21.016 -19.669  0.00  0.00    +0.092 C 
ATOM     20  C   UNL     1      34.597 -20.331 -20.449  0.00  0.00    -0.002 C 
ATOM     21  C   UNL     1      36.857 -20.016 -19.367  0.00  0.00    -0.002 C 
ATOM     22  C   UNL     1      35.142 -19.603 -21.677  0.00  0.00    -0.080 C 
ATOM     23  C   UNL     1      37.308 -19.302 -20.641  0.00  0.00    -0.080 C 
ATOM     24  H   UNL     1      35.790 -17.943 -20.688  0.00  0.00    -0.085 HD
ATOM     25  H   UNL     1      36.536 -18.213 -22.169  0.00  0.00    -0.085 HD
ENDBRANCH   1  19
BRANCH   5  27
ATOM     26  N   UNL     1      37.087 -24.403 -13.155  0.00  0.00    -0.242 NA
ATOM     27  C   UNL     1      35.947 -23.278 -15.439  0.00  0.00    +0.022 C 
ATOM     28  C   UNL     1      36.402 -22.458 -14.416  0.00  0.00    +0.022 C 
ATOM     29  C   UNL     1      36.058 -24.657 -15.328  0.00  0.00    +0.022 C 
ATOM     30  C   UNL     1      36.960 -23.065 -13.303  0.00  0.00    +0.099 C 
ATOM     31  C   UNL     1      36.631 -25.166 -14.174  0.00  0.00    +0.099 C 
ENDBRANCH   5  27
TORSDOF 5
ENDMDL
MODEL 7
REMARK VINA RESULT:      -9.1     12.327     16.976
REMARK  Name = 11653652
REMARK  5 active torsions:
REMARK  status: ('A' for Active; 'I' for Inactive)
REMARK    1  A    between atoms: N_1  and  C_19
REMARK    2  A    between atoms: C_4  and  C_7
REMARK    3  A    between atoms: C_5  and  C_27
REMARK    4  A    between atoms: N_6  and  C_13
REMARK    5  A    between atoms: N_6  and  O_16
REMARK                            x       y       z     vdW  Elec       q    Type
REMARK                         _______ _______ _______ _____ _____    ______ ____
ROOT
ATOM      1  N   UNL     1      33.085 -12.553 -22.980  0.00  0.00    -0.212 N 
ATOM      2  N   UNL     1      32.665 -12.231 -21.745  0.00  0.00    -0.178 NA
ATOM      3  C   UNL     1      33.280 -11.476 -23.794  0.00  0.00    +0.085 C 
ATOM      4  C   UNL     1      32.966 -10.377 -23.037  0.00  0.00    +0.032 C 
ATOM      5  C   UNL     1      32.594 -10.898 -21.786  0.00  0.00    +0.100 C 
ENDROOT
BRANCH   4   6
ATOM      6  C   UNL     1      33.041  -9.030 -23.530  0.00  0.00    -0.015 C 
ATOM      7  C   UNL     1      31.963  -7.037 -24.301  0.00  0.00    -0.016 C 
ATOM      8  C   UNL     1      30.841  -6.121 -24.680  0.00  0.00    -0.002 C 
ATOM      9  C   UNL     1      33.216  -6.457 -24.469  0.00  0.00    +0.016 C 
ATOM     10  C   UNL     1      31.545  -4.830 -25.129  0.00  0.00    +0.021 C 
ATOM     11  C   UNL     1      31.864  -8.335 -23.827  0.00  0.00    +0.053 C 
ATOM     12  C   UNL     1      33.016  -5.114 -24.971  0.00  0.00    +0.107 C 
ATOM     13  C   UNL     1      34.298  -8.425 -23.707  0.00  0.00    -0.004 C 
ATOM     14  C   UNL     1      34.396  -7.118 -24.183  0.00  0.00    +0.001 C 
BRANCH  12  15
ATOM     15  N   UNL     1      33.927  -4.249 -25.257  0.00  0.00    -0.135 NA
BRANCH  15  16
ATOM     16  O   UNL     1      33.304  -3.046 -25.598  0.00  0.00    -0.265 OA
ATOM     17  H   UNL     1      33.170  -2.827 -26.499  0.00  0.00    +0.247 HD
ENDBRANCH  15  16
ENDBRANCH  12  15
ENDBRANCH   4   6
BRANCH   1  19
ATOM     18  N   UNL     1      34.736 -16.153 -24.617  0.00  0.00    +0.384 N 
ATOM     19  C   UNL     1      33.290 -13.961 -23.334  0.00  0.00    +0.092 C 
ATOM     20  C   UNL     1      33.227 -14.207 -24.850  0.00  0.00    -0.002 C 
ATOM     21  C   UNL     1      34.589 -14.536 -22.750  0.00  0.00    -0.002 C 
ATOM     22  C   UNL     1      33.469 -15.680 -25.175  0.00  0.00    -0.080 C 
ATOM     23  C   UNL     1      34.774 -15.997 -23.161  0.00  0.00    -0.080 C 
ATOM     24  H   UNL     1      35.500 -15.615 -25.027  0.00  0.00    -0.085 HD
ATOM     25  H   UNL     1      34.832 -17.144 -24.834  0.00  0.00    -0.085 HD
ENDBRANCH   1  19
BRANCH   5  27
ATOM     26  N   UNL     1      31.352  -8.731 -18.371  0.00  0.00    -0.242 NA
ATOM     27  C   UNL     1      32.171 -10.160 -20.623  0.00  0.00    +0.022 C 
ATOM     28  C   UNL     1      32.373  -8.789 -20.562  0.00  0.00    +0.022 C 
ATOM     29  C   UNL     1      31.562 -10.823 -19.566  0.00  0.00    +0.022 C 
ATOM     30  C   UNL     1      31.949  -8.124 -19.422  0.00  0.00    +0.099 C 
ATOM     31  C   UNL     1      31.175 -10.068 -18.471  0.00  0.00    +0.099 C 
ENDBRANCH   5  27
TORSDOF 5
ENDMDL
MODEL 8
REMARK VINA RESULT:      -8.6      3.605      8.194
REMARK  Name = 11653652
REMARK  5 active torsions:
REMARK  status: ('A' for Active; 'I' for Inactive)
REMARK    1  A    between atoms: N_1  and  C_19
REMARK    2  A    between atoms: C_4  and  C_7
REMARK    3  A    between atoms: C_5  and  C_27
REMARK    4  A    between atoms: N_6  and  C_13
REMARK    5  A    between atoms: N_6  and  O_16
REMARK                            x       y       z     vdW  Elec       q    Type
REMARK                         _______ _______ _______ _____ _____    ______ ____
ROOT
ATOM      1  N   UNL     1      32.247 -23.612 -16.219  0.00  0.00    -0.212 N 
ATOM      2  N   UNL     1      33.423 -23.722 -15.577  0.00  0.00    -0.178 NA
ATOM      3  C   UNL     1      32.302 -22.842 -17.344  0.00  0.00    +0.085 C 
ATOM      4  C   UNL     1      33.603 -22.422 -17.441  0.00  0.00    +0.032 C 
ATOM      5  C   UNL     1      34.249 -22.991 -16.331  0.00  0.00    +0.100 C 
ENDROOT
BRANCH   4   6
ATOM      6  C   UNL     1      34.085 -21.581 -18.501  0.00  0.00    -0.015 C 
ATOM      7  C   UNL     1      35.894 -20.504 -19.640  0.00  0.00    -0.016 C 
ATOM      8  C   UNL     1      37.304 -20.097 -19.937  0.00  0.00    -0.002 C 
ATOM      9  C   UNL     1      34.976 -19.970 -20.537  0.00  0.00    +0.016 C 
ATOM     10  C   UNL     1      37.182 -19.201 -21.181  0.00  0.00    +0.021 C 
ATOM     11  C   UNL     1      35.455 -21.320 -18.610  0.00  0.00    +0.053 C 
ATOM     12  C   UNL     1      35.709 -19.169 -21.494  0.00  0.00    +0.107 C 
ATOM     13  C   UNL     1      33.173 -21.030 -19.418  0.00  0.00    -0.004 C 
ATOM     14  C   UNL     1      33.617 -20.210 -20.456  0.00  0.00    +0.001 C 
BRANCH  12  15
ATOM     15  N   UNL     1      35.222 -18.506 -22.486  0.00  0.00    -0.135 NA
BRANCH  15  16
ATOM     16  O   UNL     1      35.892 -17.282 -22.570  0.00  0.00    -0.265 OA
ATOM     17  H   UNL     1      35.409 -16.494 -22.725  0.00  0.00    +0.247 HD
ENDBRANCH  15  16
ENDBRANCH  12  15
ENDBRANCH   4   6
BRANCH   1  19
ATOM     18  N   UNL     1      28.815 -24.577 -13.840  0.00  0.00    +0.384 N 
ATOM     19  C   UNL     1      31.062 -24.293 -15.687  0.00  0.00    +0.092 C 
ATOM     20  C   UNL     1      31.249 -24.765 -14.236  0.00  0.00    -0.002 C 
ATOM     21  C   UNL     1      29.785 -23.450 -15.818  0.00  0.00    -0.002 C 
ATOM     22  C   UNL     1      29.985 -25.447 -13.716  0.00  0.00    -0.080 C 
ATOM     23  C   UNL     1      28.581 -24.188 -15.232  0.00  0.00    -0.080 C 
ATOM     24  H   UNL     1      28.966 -23.737 -13.282  0.00  0.00    -0.085 HD
ATOM     25  H   UNL     1      27.998 -25.090 -13.511  0.00  0.00    -0.085 HD
ENDBRANCH   1  19
BRANCH   5  27
ATOM     26  N   UNL     1      38.322 -22.604 -15.253  0.00  0.00    -0.242 NA
ATOM     27  C   UNL     1      35.636 -22.859 -15.963  0.00  0.00    +0.022 C 
ATOM     28  C   UNL     1      36.321 -21.688 -16.254  0.00  0.00    +0.022 C 
ATOM     29  C   UNL     1      36.285 -23.905 -15.320  0.00  0.00    +0.022 C 
ATOM     30  C   UNL     1      37.653 -21.611 -15.881  0.00  0.00    +0.099 C 
ATOM     31  C   UNL     1      37.618 -23.728 -14.989  0.00  0.00    +0.099 C 
ENDBRANCH   5  27
TORSDOF 5
ENDMDL
