MODEL 1
REMARK VINA RESULT:     -12.4      0.000      0.000
REMARK  Name = 5288711
REMARK  4 active torsions:
REMARK  status: ('A' for Active; 'I' for Inactive)
REMARK    1  A    between atoms: C_1  and  S_7
REMARK    2  A    between atoms: C_2  and  N_17
REMARK    3  A    between atoms: S_7  and  N_11
REMARK    4  A    between atoms: N_17  and  C_25
REMARK                            x       y       z     vdW  Elec       q    Type
REMARK                         _______ _______ _______ _____ _____    ______ ____
ROOT
ATOM      1  C   UNL     1      34.477 -21.762 -18.924  0.00  0.00    +0.125 C 
ATOM      2  C   UNL     1      35.486 -19.770 -20.606  0.00  0.00    +0.048 C 
ATOM      3  C   UNL     1      35.852 -21.540 -18.996  0.00  0.00    +0.021 C 
ATOM      4  C   UNL     1      33.605 -20.989 -19.691  0.00  0.00    +0.021 C 
ATOM      5  C   UNL     1      36.355 -20.546 -19.835  0.00  0.00    +0.016 C 
ATOM      6  C   UNL     1      34.108 -19.995 -20.530  0.00  0.00    +0.016 C 
ENDROOT
BRANCH   1   7
ATOM      7  S   UNL     1      33.846 -23.006 -17.874  0.00  0.00    +0.075 S 
ATOM      8  O   UNL     1      33.687 -24.229 -18.651  0.00  0.00    -0.150 OA
ATOM      9  O   UNL     1      34.664 -23.024 -16.668  0.00  0.00    -0.150 OA
BRANCH   7  11
ATOM     10  S   UNL     1      30.050 -23.172 -16.077  0.00  0.00    -0.050 S 
ATOM     11  N   UNL     1      32.288 -22.376 -17.511  0.00  0.00    -0.194 N 
ATOM     12  N   UNL     1      32.446 -22.892 -15.148  0.00  0.00    -0.221 NA
ATOM     13  C   UNL     1      31.707 -22.797 -16.217  0.00  0.00    +0.179 C 
ATOM     14  C   UNL     1      30.310 -23.504 -14.414  0.00  0.00    +0.059 C 
ATOM     15  C   UNL     1      31.639 -23.300 -14.104  0.00  0.00    +0.108 C 
ATOM     16  H   UNL     1      31.813 -21.772 -18.125  0.00  0.00    +0.176 HD
ENDBRANCH   7  11
ENDBRANCH   1   7
BRANCH   2  17
ATOM     17  N   UNL     1      35.993 -18.769 -21.451  0.00  0.00    -0.311 N 
ATOM     18  H   UNL     1      36.729 -19.044 -22.045  0.00  0.00    +0.152 HD
BRANCH  17  25
ATOM     19  O   UNL     1      34.864 -18.767 -24.122  0.00  0.00    -0.270 OA
ATOM     20  N   UNL     1      34.063 -16.611 -24.661  0.00  0.00    -0.280 N 
ATOM     21  C   UNL     1      34.584 -15.488 -22.723  0.00  0.00    +0.019 C 
ATOM     22  C   UNL     1      35.008 -16.878 -22.594  0.00  0.00    +0.069 C 
ATOM     23  C   UNL     1      34.017 -15.380 -23.996  0.00  0.00    +0.051 C 
ATOM     24  C   UNL     1      34.661 -17.595 -23.866  0.00  0.00    +0.251 C 
ATOM     25  C   UNL     1      35.604 -17.474 -21.558  0.00  0.00    +0.066 C 
ATOM     26  C   UNL     1      34.648 -14.392 -21.883  0.00  0.00    +0.001 C 
ATOM     27  C   UNL     1      33.500 -14.194 -24.477  0.00  0.00    +0.015 C 
ATOM     28  C   UNL     1      34.129 -13.179 -22.351  0.00  0.00    +0.000 C 
ATOM     29  C   UNL     1      33.561 -13.082 -23.634  0.00  0.00    +0.001 C 
ATOM     30  H   UNL     1      33.720 -16.764 -25.570  0.00  0.00    +0.155 HD
ENDBRANCH  17  25
ENDBRANCH   2  17
TORSDOF 4
ENDMDL
MODEL 2
REMARK VINA RESULT:     -12.2      1.391      1.781
REMARK  Name = 5288711
REMARK  4 active torsions:
REMARK  status: ('A' for Active; 'I' for Inactive)
REMARK    1  A    between atoms: C_1  and  S_7
REMARK    2  A    between atoms: C_2  and  N_17
REMARK    3  A    between atoms: S_7  and  N_11
REMARK    4  A    between atoms: N_17  and  C_25
REMARK                            x       y       z     vdW  Elec       q    Type
REMARK                         _______ _______ _______ _____ _____    ______ ____
ROOT
ATOM      1  C   UNL     1      34.626 -21.630 -19.097  0.00  0.00    +0.125 C 
ATOM      2  C   UNL     1      35.654 -19.479 -20.557  0.00  0.00    +0.048 C 
ATOM      3  C   UNL     1      35.998 -21.377 -19.095  0.00  0.00    +0.021 C 
ATOM      4  C   UNL     1      33.767 -20.809 -19.827  0.00  0.00    +0.021 C 
ATOM      5  C   UNL     1      36.510 -20.304 -19.823  0.00  0.00    +0.016 C 
ATOM      6  C   UNL     1      34.279 -19.735 -20.556  0.00  0.00    +0.016 C 
ENDROOT
BRANCH   1   7
ATOM      7  S   UNL     1      33.983 -22.973 -18.185  0.00  0.00    +0.075 S 
ATOM      8  O   UNL     1      33.774 -24.091 -19.097  0.00  0.00    -0.150 OA
ATOM      9  O   UNL     1      34.826 -23.154 -17.010  0.00  0.00    -0.150 OA
BRANCH   7  11
ATOM     10  S   UNL     1      30.326 -23.160 -16.123  0.00  0.00    -0.050 S 
ATOM     11  N   UNL     1      32.452 -22.352 -17.712  0.00  0.00    -0.194 N 
ATOM     12  N   UNL     1      32.779 -22.865 -15.366  0.00  0.00    -0.221 NA
ATOM     13  C   UNL     1      31.966 -22.775 -16.381  0.00  0.00    +0.179 C 
ATOM     14  C   UNL     1      30.704 -23.490 -14.483  0.00  0.00    +0.059 C 
ATOM     15  C   UNL     1      32.050 -23.278 -14.268  0.00  0.00    +0.108 C 
ATOM     16  H   UNL     1      31.931 -21.750 -18.291  0.00  0.00    +0.176 HD
ENDBRANCH   7  11
ENDBRANCH   1   7
BRANCH   2  17
ATOM     17  N   UNL     1      36.170 -18.398 -21.291  0.00  0.00    -0.311 N 
ATOM     18  H   UNL     1      37.071 -18.097 -21.030  0.00  0.00    +0.152 HD
BRANCH  17  25
ATOM     19  O   UNL     1      35.238 -16.035 -19.894  0.00  0.00    -0.270 OA
ATOM     20  N   UNL     1      34.153 -14.577 -21.404  0.00  0.00    -0.280 N 
ATOM     21  C   UNL     1      34.361 -15.782 -23.352  0.00  0.00    +0.019 C 
ATOM     22  C   UNL     1      34.985 -16.528 -22.264  0.00  0.00    +0.069 C 
ATOM     23  C   UNL     1      33.872 -14.606 -22.775  0.00  0.00    +0.051 C 
ATOM     24  C   UNL     1      34.840 -15.728 -21.002  0.00  0.00    +0.251 C 
ATOM     25  C   UNL     1      35.594 -17.714 -22.311  0.00  0.00    +0.066 C 
ATOM     26  C   UNL     1      34.197 -16.026 -24.702  0.00  0.00    +0.001 C 
ATOM     27  C   UNL     1      33.210 -13.642 -23.508  0.00  0.00    +0.015 C 
ATOM     28  C   UNL     1      33.529 -15.062 -25.465  0.00  0.00    +0.000 C 
ATOM     29  C   UNL     1      33.041 -13.882 -24.874  0.00  0.00    +0.001 C 
ATOM     30  H   UNL     1      33.899 -13.843 -20.800  0.00  0.00    +0.155 HD
ENDBRANCH  17  25
ENDBRANCH   2  17
TORSDOF 4
ENDMDL
MODEL 3
REMARK VINA RESULT:     -11.7      3.680      6.406
REMARK  Name = 5288711
REMARK  4 active torsions:
REMARK  status: ('A' for Active; 'I' for Inactive)
REMARK    1  A    between atoms: C_1  and  S_7
REMARK    2  A    between atoms: C_2  and  N_17
REMARK    3  A    between atoms: S_7  and  N_11
REMARK    4  A    between atoms: N_17  and  C_25
REMARK                            x       y       z     vdW  Elec       q    Type
REMARK                         _______ _______ _______ _____ _____    ______ ____
ROOT
ATOM      1  C   UNL     1      35.010 -16.947 -22.728  0.00  0.00    +0.125 C 
ATOM      2  C   UNL     1      33.998 -14.525 -23.690  0.00  0.00    +0.048 C 
ATOM      3  C   UNL     1      34.931 -15.840 -21.884  0.00  0.00    +0.021 C 
ATOM      4  C   UNL     1      34.583 -16.846 -24.052  0.00  0.00    +0.021 C 
ATOM      5  C   UNL     1      34.426 -14.632 -22.364  0.00  0.00    +0.016 C 
ATOM      6  C   UNL     1      34.078 -15.638 -24.533  0.00  0.00    +0.016 C 
ENDROOT
BRANCH   1   7
ATOM      7  S   UNL     1      35.642 -18.460 -22.129  0.00  0.00    +0.075 S 
ATOM      8  O   UNL     1      35.384 -19.495 -23.123  0.00  0.00    -0.150 OA
ATOM      9  O   UNL     1      37.008 -18.222 -21.679  0.00  0.00    -0.150 OA
BRANCH   7  11
ATOM     10  S   UNL     1      33.318 -20.882 -19.598  0.00  0.00    -0.050 S 
ATOM     11  N   UNL     1      34.622 -18.732 -20.772  0.00  0.00    -0.194 N 
ATOM     12  N   UNL     1      35.860 -20.674 -20.017  0.00  0.00    -0.221 NA
ATOM     13  C   UNL     1      34.712 -20.073 -20.154  0.00  0.00    +0.179 C 
ATOM     14  C   UNL     1      34.321 -22.186 -19.113  0.00  0.00    +0.059 C 
ATOM     15  C   UNL     1      35.635 -21.896 -19.415  0.00  0.00    +0.108 C 
ATOM     16  H   UNL     1      34.016 -18.037 -20.426  0.00  0.00    +0.176 HD
ENDBRANCH   7  11
ENDBRANCH   1   7
BRANCH   2  17
ATOM     17  N   UNL     1      33.490 -13.308 -24.173  0.00  0.00    -0.311 N 
ATOM     18  H   UNL     1      32.639 -13.365 -24.665  0.00  0.00    +0.152 HD
BRANCH  17  25
ATOM     19  O   UNL     1      31.490 -12.039 -22.501  0.00  0.00    -0.270 OA
ATOM     20  N   UNL     1      32.095  -9.796 -22.073  0.00  0.00    -0.280 N 
ATOM     21  C   UNL     1      34.074  -9.680 -23.240  0.00  0.00    +0.019 C 
ATOM     22  C   UNL     1      33.520 -11.023 -23.379  0.00  0.00    +0.069 C 
ATOM     23  C   UNL     1      33.170  -8.977 -22.438  0.00  0.00    +0.051 C 
ATOM     24  C   UNL     1      32.230 -11.081 -22.612  0.00  0.00    +0.251 C 
ATOM     25  C   UNL     1      34.017 -12.063 -24.052  0.00  0.00    +0.066 C 
ATOM     26  C   UNL     1      35.216  -9.068 -23.720  0.00  0.00    +0.001 C 
ATOM     27  C   UNL     1      33.364  -7.656 -22.088  0.00  0.00    +0.015 C 
ATOM     28  C   UNL     1      35.433  -7.729 -23.377  0.00  0.00    +0.000 C 
ATOM     29  C   UNL     1      34.517  -7.030 -22.570  0.00  0.00    +0.001 C 
ATOM     30  H   UNL     1      31.341  -9.507 -21.511  0.00  0.00    +0.155 HD
ENDBRANCH  17  25
ENDBRANCH   2  17
TORSDOF 4
ENDMDL
MODEL 4
REMARK VINA RESULT:     -11.7      1.893      2.136
REMARK  Name = 5288711
REMARK  4 active torsions:
REMARK  status: ('A' for Active; 'I' for Inactive)
REMARK    1  A    between atoms: C_1  and  S_7
REMARK    2  A    between atoms: C_2  and  N_17
REMARK    3  A    between atoms: S_7  and  N_11
REMARK    4  A    between atoms: N_17  and  C_25
REMARK                            x       y       z     vdW  Elec       q    Type
REMARK                         _______ _______ _______ _____ _____    ______ ____
ROOT
ATOM      1  C   UNL     1      34.708 -21.207 -19.465  0.00  0.00    +0.125 C 
ATOM      2  C   UNL     1      35.526 -19.174 -21.201  0.00  0.00    +0.048 C 
ATOM      3  C   UNL     1      36.058 -20.870 -19.558  0.00  0.00    +0.021 C 
ATOM      4  C   UNL     1      33.766 -20.529 -20.238  0.00  0.00    +0.021 C 
ATOM      5  C   UNL     1      36.467 -19.856 -20.424  0.00  0.00    +0.016 C 
ATOM      6  C   UNL     1      34.173 -19.514 -21.104  0.00  0.00    +0.016 C 
ENDROOT
BRANCH   1   7
ATOM      7  S   UNL     1      34.196 -22.477 -18.382  0.00  0.00    +0.075 S 
ATOM      8  O   UNL     1      32.984 -22.042 -17.701  0.00  0.00    -0.150 OA
ATOM      9  O   UNL     1      34.187 -23.725 -19.136  0.00  0.00    -0.150 OA
BRANCH   7  11
ATOM     10  S   UNL     1      35.789 -22.468 -14.493  0.00  0.00    -0.050 S 
ATOM     11  N   UNL     1      35.491 -22.491 -17.251  0.00  0.00    -0.194 N 
ATOM     12  N   UNL     1      34.497 -24.225 -15.880  0.00  0.00    -0.221 NA
ATOM     13  C   UNL     1      35.205 -23.132 -15.949  0.00  0.00    +0.179 C 
ATOM     14  C   UNL     1      35.033 -23.756 -13.651  0.00  0.00    +0.059 C 
ATOM     15  C   UNL     1      34.398 -24.587 -14.551  0.00  0.00    +0.108 C 
ATOM     16  H   UNL     1      36.369 -22.097 -17.458  0.00  0.00    +0.176 HD
ENDBRANCH   7  11
ENDBRANCH   1   7
BRANCH   2  17
ATOM     17  N   UNL     1      35.938 -18.153 -22.073  0.00  0.00    -0.311 N 
ATOM     18  H   UNL     1      36.611 -18.409 -22.743  0.00  0.00    +0.152 HD
BRANCH  17  25
ATOM     19  O   UNL     1      34.515 -18.117 -24.599  0.00  0.00    -0.270 OA
ATOM     20  N   UNL     1      33.644 -15.960 -25.009  0.00  0.00    -0.280 N 
ATOM     21  C   UNL     1      34.372 -14.863 -23.123  0.00  0.00    +0.019 C 
ATOM     22  C   UNL     1      34.817 -16.252 -23.065  0.00  0.00    +0.069 C 
ATOM     23  C   UNL     1      33.665 -14.740 -24.322  0.00  0.00    +0.051 C 
ATOM     24  C   UNL     1      34.334 -16.952 -24.303  0.00  0.00    +0.251 C 
ATOM     25  C   UNL     1      35.530 -16.858 -22.114  0.00  0.00    +0.066 C 
ATOM     26  C   UNL     1      34.523 -13.780 -22.278  0.00  0.00    +0.001 C 
ATOM     27  C   UNL     1      33.089 -13.551 -24.722  0.00  0.00    +0.015 C 
ATOM     28  C   UNL     1      33.947 -12.565 -22.663  0.00  0.00    +0.000 C 
ATOM     29  C   UNL     1      33.237 -12.452 -23.873  0.00  0.00    +0.001 C 
ATOM     30  H   UNL     1      33.202 -16.102 -25.876  0.00  0.00    +0.155 HD
ENDBRANCH  17  25
ENDBRANCH   2  17
TORSDOF 4
ENDMDL
MODEL 5
REMARK VINA RESULT:     -11.6      2.057      2.302
REMARK  Name = 5288711
REMARK  4 active torsions:
REMARK  status: ('A' for Active; 'I' for Inactive)
REMARK    1  A    between atoms: C_1  and  S_7
REMARK    2  A    between atoms: C_2  and  N_17
REMARK    3  A    between atoms: S_7  and  N_11
REMARK    4  A    between atoms: N_17  and  C_25
REMARK                            x       y       z     vdW  Elec       q    Type
REMARK                         _______ _______ _______ _____ _____    ______ ____
ROOT
ATOM      1  C   UNL     1      34.135 -22.012 -18.341  0.00  0.00    +0.125 C 
ATOM      2  C   UNL     1      35.418 -20.266 -20.107  0.00  0.00    +0.048 C 
ATOM      3  C   UNL     1      35.527 -21.909 -18.334  0.00  0.00    +0.021 C 
ATOM      4  C   UNL     1      33.385 -21.243 -19.229  0.00  0.00    +0.021 C 
ATOM      5  C   UNL     1      36.166 -21.038 -19.214  0.00  0.00    +0.016 C 
ATOM      6  C   UNL     1      34.024 -20.371 -20.111  0.00  0.00    +0.016 C 
ENDROOT
BRANCH   1   7
ATOM      7  S   UNL     1      33.334 -23.103 -17.239  0.00  0.00    +0.075 S 
ATOM      8  O   UNL     1      31.907 -22.803 -17.248  0.00  0.00    -0.150 OA
ATOM      9  O   UNL     1      33.784 -24.455 -17.548  0.00  0.00    -0.150 OA
BRANCH   7  11
ATOM     10  S   UNL     1      34.619 -23.759 -13.291  0.00  0.00    -0.050 S 
ATOM     11  N   UNL     1      33.995 -22.601 -15.734  0.00  0.00    -0.194 N 
ATOM     12  N   UNL     1      35.544 -24.459 -15.601  0.00  0.00    -0.221 NA
ATOM     13  C   UNL     1      34.752 -23.627 -14.985  0.00  0.00    +0.179 C 
ATOM     14  C   UNL     1      35.729 -25.065 -13.348  0.00  0.00    +0.059 C 
ATOM     15  C   UNL     1      36.110 -25.292 -14.655  0.00  0.00    +0.108 C 
ATOM     16  H   UNL     1      33.877 -21.685 -15.391  0.00  0.00    +0.176 HD
ENDBRANCH   7  11
ENDBRANCH   1   7
BRANCH   2  17
ATOM     17  N   UNL     1      36.063 -19.388 -20.995  0.00  0.00    -0.311 N 
ATOM     18  H   UNL     1      36.878 -19.737 -21.424  0.00  0.00    +0.152 HD
BRANCH  17  25
ATOM     19  O   UNL     1      34.970 -19.836 -23.642  0.00  0.00    -0.270 OA
ATOM     20  N   UNL     1      34.238 -17.792 -24.573  0.00  0.00    -0.280 N 
ATOM     21  C   UNL     1      34.766 -16.353 -22.859  0.00  0.00    +0.019 C 
ATOM     22  C   UNL     1      35.148 -17.709 -22.475  0.00  0.00    +0.069 C 
ATOM     23  C   UNL     1      34.219 -16.461 -24.141  0.00  0.00    +0.051 C 
ATOM     24  C   UNL     1      34.797 -18.633 -23.605  0.00  0.00    +0.251 C 
ATOM     25  C   UNL     1      35.712 -18.123 -21.339  0.00  0.00    +0.066 C 
ATOM     26  C   UNL     1      34.850 -15.127 -22.228  0.00  0.00    +0.001 C 
ATOM     27  C   UNL     1      33.742 -15.368 -24.836  0.00  0.00    +0.015 C 
ATOM     28  C   UNL     1      34.372 -14.004 -22.914  0.00  0.00    +0.000 C 
ATOM     29  C   UNL     1      33.824 -14.124 -24.205  0.00  0.00    +0.001 C 
ATOM     30  H   UNL     1      33.903 -18.098 -25.446  0.00  0.00    +0.155 HD
ENDBRANCH  17  25
ENDBRANCH   2  17
TORSDOF 4
ENDMDL
MODEL 6
REMARK VINA RESULT:     -11.6      4.610      9.614
REMARK  Name = 5288711
REMARK  4 active torsions:
REMARK  status: ('A' for Active; 'I' for Inactive)
REMARK    1  A    between atoms: C_1  and  S_7
REMARK    2  A    between atoms: C_2  and  N_17
REMARK    3  A    between atoms: S_7  and  N_11
REMARK    4  A    between atoms: N_17  and  C_25
REMARK                            x       y       z     vdW  Elec       q    Type
REMARK                         _______ _______ _______ _____ _____    ______ ____
ROOT
ATOM      1  C   UNL     1      34.098 -14.645 -23.416  0.00  0.00    +0.125 C 
ATOM      2  C   UNL     1      34.985 -17.242 -22.885  0.00  0.00    +0.048 C 
ATOM      3  C   UNL     1      34.093 -15.605 -24.428  0.00  0.00    +0.021 C 
ATOM      4  C   UNL     1      34.546 -14.981 -22.139  0.00  0.00    +0.021 C 
ATOM      5  C   UNL     1      34.534 -16.900 -24.164  0.00  0.00    +0.016 C 
ATOM      6  C   UNL     1      34.989 -16.278 -21.873  0.00  0.00    +0.016 C 
ENDROOT
BRANCH   1   7
ATOM      7  S   UNL     1      33.545 -13.022 -23.747  0.00  0.00    +0.075 S 
ATOM      8  O   UNL     1      34.598 -12.089 -23.365  0.00  0.00    -0.150 OA
ATOM      9  O   UNL     1      33.026 -13.000 -25.109  0.00  0.00    -0.150 OA
BRANCH   7  11
ATOM     10  S   UNL     1      31.577 -11.257 -20.480  0.00  0.00    -0.050 S 
ATOM     11  N   UNL     1      32.247 -12.879 -22.628  0.00  0.00    -0.194 N 
ATOM     12  N   UNL     1      32.059 -10.477 -22.897  0.00  0.00    -0.221 NA
ATOM     13  C   UNL     1      31.985 -11.517 -22.114  0.00  0.00    +0.179 C 
ATOM     14  C   UNL     1      31.480  -9.578 -20.816  0.00  0.00    +0.059 C 
ATOM     15  C   UNL     1      31.766  -9.355 -22.147  0.00  0.00    +0.108 C 
ATOM     16  H   UNL     1      31.711 -13.655 -22.349  0.00  0.00    +0.176 HD
ENDBRANCH   7  11
ENDBRANCH   1   7
BRANCH   2  17
ATOM     17  N   UNL     1      35.431 -18.547 -22.619  0.00  0.00    -0.311 N 
ATOM     18  H   UNL     1      36.203 -18.851 -23.149  0.00  0.00    +0.152 HD
BRANCH  17  25
ATOM     19  O   UNL     1      37.666 -18.769 -20.786  0.00  0.00    -0.270 OA
ATOM     20  N   UNL     1      37.149 -20.293 -19.057  0.00  0.00    -0.280 N 
ATOM     21  C   UNL     1      35.020 -20.904 -19.679  0.00  0.00    +0.019 C 
ATOM     22  C   UNL     1      35.537 -19.939 -20.644  0.00  0.00    +0.069 C 
ATOM     23  C   UNL     1      36.038 -21.083 -18.737  0.00  0.00    +0.051 C 
ATOM     24  C   UNL     1      36.926 -19.552 -20.223  0.00  0.00    +0.251 C 
ATOM     25  C   UNL     1      34.938 -19.446 -21.729  0.00  0.00    +0.066 C 
ATOM     26  C   UNL     1      33.825 -21.587 -19.564  0.00  0.00    +0.001 C 
ATOM     27  C   UNL     1      35.908 -21.936 -17.660  0.00  0.00    +0.015 C 
ATOM     28  C   UNL     1      33.671 -22.458 -18.479  0.00  0.00    +0.000 C 
ATOM     29  C   UNL     1      34.702 -22.631 -17.537  0.00  0.00    +0.001 C 
ATOM     30  H   UNL     1      37.979 -20.262 -18.530  0.00  0.00    +0.155 HD
ENDBRANCH  17  25
ENDBRANCH   2  17
TORSDOF 4
ENDMDL
MODEL 7
REMARK VINA RESULT:     -11.4      2.669      9.880
REMARK  Name = 5288711
REMARK  4 active torsions:
REMARK  status: ('A' for Active; 'I' for Inactive)
REMARK    1  A    between atoms: C_1  and  S_7
REMARK    2  A    between atoms: C_2  and  N_17
REMARK    3  A    between atoms: S_7  and  N_11
REMARK    4  A    between atoms: N_17  and  C_25
REMARK                            x       y       z     vdW  Elec       q    Type
REMARK                         _______ _______ _______ _____ _____    ______ ____
ROOT
ATOM      1  C   UNL     1      35.446 -19.697 -20.492  0.00  0.00    +0.125 C 
ATOM      2  C   UNL     1      34.778 -21.857 -18.848  0.00  0.00    +0.048 C 
ATOM      3  C   UNL     1      34.110 -20.069 -20.336  0.00  0.00    +0.021 C 
ATOM      4  C   UNL     1      36.448 -20.402 -19.827  0.00  0.00    +0.021 C 
ATOM      5  C   UNL     1      33.777 -21.146 -19.516  0.00  0.00    +0.016 C 
ATOM      6  C   UNL     1      36.115 -21.480 -19.006  0.00  0.00    +0.016 C 
ENDROOT
BRANCH   1   7
ATOM      7  S   UNL     1      35.863 -18.348 -21.519  0.00  0.00    +0.075 S 
ATOM      8  O   UNL     1      37.276 -18.043 -21.328  0.00  0.00    -0.150 OA
ATOM      9  O   UNL     1      35.368 -18.641 -22.858  0.00  0.00    -0.150 OA
BRANCH   7  11
ATOM     10  S   UNL     1      34.782 -14.324 -20.967  0.00  0.00    -0.050 S 
ATOM     11  N   UNL     1      34.926 -17.091 -20.815  0.00  0.00    -0.194 N 
ATOM     12  N   UNL     1      34.515 -15.983 -22.931  0.00  0.00    -0.221 NA
ATOM     13  C   UNL     1      34.731 -15.885 -21.649  0.00  0.00    +0.179 C 
ATOM     14  C   UNL     1      34.487 -13.678 -22.527  0.00  0.00    +0.059 C 
ATOM     15  C   UNL     1      34.373 -14.706 -23.440  0.00  0.00    +0.108 C 
ATOM     16  H   UNL     1      34.541 -17.169 -19.912  0.00  0.00    +0.176 HD
ENDBRANCH   7  11
ENDBRANCH   1   7
BRANCH   2  17
ATOM     17  N   UNL     1      34.442 -22.942 -18.022  0.00  0.00    -0.311 N 
ATOM     18  H   UNL     1      35.118 -23.655 -17.958  0.00  0.00    +0.152 HD
BRANCH  17  25
ATOM     19  O   UNL     1      35.553 -23.980 -15.553  0.00  0.00    -0.270 OA
ATOM     20  N   UNL     1      33.819 -24.446 -14.018  0.00  0.00    -0.280 N 
ATOM     21  C   UNL     1      31.991 -23.827 -15.269  0.00  0.00    +0.019 C 
ATOM     22  C   UNL     1      33.201 -23.611 -16.057  0.00  0.00    +0.069 C 
ATOM     23  C   UNL     1      32.424 -24.335 -14.040  0.00  0.00    +0.051 C 
ATOM     24  C   UNL     1      34.382 -24.020 -15.225  0.00  0.00    +0.251 C 
ATOM     25  C   UNL     1      33.310 -23.138 -17.300  0.00  0.00    +0.066 C 
ATOM     26  C   UNL     1      30.646 -23.632 -15.518  0.00  0.00    +0.001 C 
ATOM     27  C   UNL     1      31.547 -24.664 -13.026  0.00  0.00    +0.015 C 
ATOM     28  C   UNL     1      29.739 -23.959 -14.503  0.00  0.00    +0.000 C 
ATOM     29  C   UNL     1      30.186 -24.469 -13.270  0.00  0.00    +0.001 C 
ATOM     30  H   UNL     1      34.337 -24.782 -13.251  0.00  0.00    +0.155 HD
ENDBRANCH  17  25
ENDBRANCH   2  17
TORSDOF 4
ENDMDL
MODEL 8
REMARK VINA RESULT:     -10.7      2.218      2.812
REMARK  Name = 5288711
REMARK  4 active torsions:
REMARK  status: ('A' for Active; 'I' for Inactive)
REMARK    1  A    between atoms: C_1  and  S_7
REMARK    2  A    between atoms: C_2  and  N_17
REMARK    3  A    between atoms: S_7  and  N_11
REMARK    4  A    between atoms: N_17  and  C_25
REMARK                            x       y       z     vdW  Elec       q    Type
REMARK                         _______ _______ _______ _____ _____    ______ ____
ROOT
ATOM      1  C   UNL     1      34.174 -21.731 -18.772  0.00  0.00    +0.125 C 
ATOM      2  C   UNL     1      35.412 -19.969 -20.555  0.00  0.00    +0.048 C 
ATOM      3  C   UNL     1      33.401 -20.942 -19.624  0.00  0.00    +0.021 C 
ATOM      4  C   UNL     1      35.565 -21.641 -18.810  0.00  0.00    +0.021 C 
ATOM      5  C   UNL     1      34.018 -20.064 -20.514  0.00  0.00    +0.016 C 
ATOM      6  C   UNL     1      36.183 -20.762 -19.700  0.00  0.00    +0.016 C 
ENDROOT
BRANCH   1   7
ATOM      7  S   UNL     1      33.401 -22.831 -17.658  0.00  0.00    +0.075 S 
ATOM      8  O   UNL     1      31.978 -22.519 -17.613  0.00  0.00    -0.150 OA
ATOM      9  O   UNL     1      33.829 -24.181 -18.002  0.00  0.00    -0.150 OA
BRANCH   7  11
ATOM     10  S   UNL     1      34.429 -23.415 -13.625  0.00  0.00    -0.050 S 
ATOM     11  N   UNL     1      34.119 -22.355 -16.170  0.00  0.00    -0.194 N 
ATOM     12  N   UNL     1      35.239 -24.479 -15.837  0.00  0.00    -0.221 NA
ATOM     13  C   UNL     1      34.626 -23.452 -15.317  0.00  0.00    +0.179 C 
ATOM     14  C   UNL     1      35.241 -24.924 -13.540  0.00  0.00    +0.059 C 
ATOM     15  C   UNL     1      35.595 -25.330 -14.810  0.00  0.00    +0.108 C 
ATOM     16  H   UNL     1      34.189 -21.411 -15.902  0.00  0.00    +0.176 HD
ENDBRANCH   7  11
ENDBRANCH   1   7
BRANCH   2  17
ATOM     17  N   UNL     1      36.033 -19.084 -21.451  0.00  0.00    -0.311 N 
ATOM     18  H   UNL     1      37.010 -19.003 -21.363  0.00  0.00    +0.152 HD
BRANCH  17  25
ATOM     19  O   UNL     1      35.607 -16.602 -20.014  0.00  0.00    -0.270 OA
ATOM     20  N   UNL     1      34.605 -15.004 -21.437  0.00  0.00    -0.280 N 
ATOM     21  C   UNL     1      34.437 -16.233 -23.374  0.00  0.00    +0.019 C 
ATOM     22  C   UNL     1      35.048 -17.061 -22.338  0.00  0.00    +0.069 C 
ATOM     23  C   UNL     1      34.188 -14.996 -22.773  0.00  0.00    +0.051 C 
ATOM     24  C   UNL     1      35.150 -16.243 -21.083  0.00  0.00    +0.251 C 
ATOM     25  C   UNL     1      35.466 -18.325 -22.423  0.00  0.00    +0.066 C 
ATOM     26  C   UNL     1      34.105 -16.456 -24.696  0.00  0.00    +0.001 C 
ATOM     27  C   UNL     1      33.607 -13.946 -23.457  0.00  0.00    +0.015 C 
ATOM     28  C   UNL     1      33.515 -15.405 -25.408  0.00  0.00    +0.000 C 
ATOM     29  C   UNL     1      33.269 -14.163 -24.794  0.00  0.00    +0.001 C 
ATOM     30  H   UNL     1      34.525 -14.238 -20.826  0.00  0.00    +0.155 HD
ENDBRANCH  17  25
ENDBRANCH   2  17
TORSDOF 4
ENDMDL
MODEL 9
REMARK VINA RESULT:     -10.7      7.231     12.019
REMARK  Name = 5288711
REMARK  4 active torsions:
REMARK  status: ('A' for Active; 'I' for Inactive)
REMARK    1  A    between atoms: C_1  and  S_7
REMARK    2  A    between atoms: C_2  and  N_17
REMARK    3  A    between atoms: S_7  and  N_11
REMARK    4  A    between atoms: N_17  and  C_25
REMARK                            x       y       z     vdW  Elec       q    Type
REMARK                         _______ _______ _______ _____ _____    ______ ____
ROOT
ATOM      1  C   UNL     1      32.442  -9.902 -22.629  0.00  0.00    +0.125 C 
ATOM      2  C   UNL     1      33.609 -12.306 -23.453  0.00  0.00    +0.048 C 
ATOM      3  C   UNL     1      31.903 -11.119 -22.212  0.00  0.00    +0.021 C 
ATOM      4  C   UNL     1      33.565  -9.885 -23.457  0.00  0.00    +0.021 C 
ATOM      5  C   UNL     1      32.485 -12.318 -22.622  0.00  0.00    +0.016 C 
ATOM      6  C   UNL     1      34.147 -11.084 -23.868  0.00  0.00    +0.016 C 
ENDROOT
BRANCH   1   7
ATOM      7  S   UNL     1      31.714  -8.401 -22.115  0.00  0.00    +0.075 S 
ATOM      8  O   UNL     1      30.445  -8.241 -22.814  0.00  0.00    -0.150 OA
ATOM      9  O   UNL     1      31.740  -8.372 -20.658  0.00  0.00    -0.150 OA
BRANCH   7  11
ATOM     10  S   UNL     1      32.741  -4.848 -24.112  0.00  0.00    -0.050 S 
ATOM     11  N   UNL     1      32.835  -7.257 -22.738  0.00  0.00    -0.194 N 
ATOM     12  N   UNL     1      31.657  -5.349 -21.820  0.00  0.00    -0.221 NA
ATOM     13  C   UNL     1      32.368  -5.854 -22.789  0.00  0.00    +0.179 C 
ATOM     14  C   UNL     1      31.872  -3.585 -23.343  0.00  0.00    +0.059 C 
ATOM     15  C   UNL     1      31.370  -4.036 -22.140  0.00  0.00    +0.108 C 
ATOM     16  H   UNL     1      33.735  -7.519 -23.043  0.00  0.00    +0.176 HD
ENDBRANCH   7  11
ENDBRANCH   1   7
BRANCH   2  17
ATOM     17  N   UNL     1      34.195 -13.513 -23.867  0.00  0.00    -0.311 N 
ATOM     18  H   UNL     1      34.343 -13.606 -24.835  0.00  0.00    +0.152 HD
BRANCH  17  25
ATOM     19  O   UNL     1      33.571 -15.713 -25.650  0.00  0.00    -0.270 OA
ATOM     20  N   UNL     1      34.133 -17.768 -24.629  0.00  0.00    -0.280 N 
ATOM     21  C   UNL     1      34.945 -17.012 -22.614  0.00  0.00    +0.019 C 
ATOM     22  C   UNL     1      34.531 -15.866 -23.419  0.00  0.00    +0.069 C 
ATOM     23  C   UNL     1      34.681 -18.140 -23.396  0.00  0.00    +0.051 C 
ATOM     24  C   UNL     1      34.004 -16.378 -24.728  0.00  0.00    +0.251 C 
ATOM     25  C   UNL     1      34.583 -14.570 -23.108  0.00  0.00    +0.066 C 
ATOM     26  C   UNL     1      35.490 -17.140 -21.351  0.00  0.00    +0.001 C 
ATOM     27  C   UNL     1      34.947 -19.422 -22.957  0.00  0.00    +0.015 C 
ATOM     28  C   UNL     1      35.768 -18.430 -20.886  0.00  0.00    +0.000 C 
ATOM     29  C   UNL     1      35.499 -19.559 -21.682  0.00  0.00    +0.001 C 
ATOM     30  H   UNL     1      33.871 -18.401 -25.335  0.00  0.00    +0.155 HD
ENDBRANCH  17  25
ENDBRANCH   2  17
TORSDOF 4
ENDMDL
