MODEL 1
REMARK VINA RESULT:     -11.7      0.000      0.000
REMARK  Name = 46892373
REMARK  3 active torsions:
REMARK  status: ('A' for Active; 'I' for Inactive)
REMARK    1  A    between atoms: C_7  and  C_20
REMARK    2  A    between atoms: C_20  and  C_22
REMARK    3  A    between atoms: C_20  and  O_28
REMARK                            x       y       z     vdW  Elec       q    Type
REMARK                         _______ _______ _______ _____ _____    ______ ____
ROOT
ATOM      1  N   UNL     1      34.224 -23.738 -16.772  0.00  0.00    -0.326 NA
ATOM      2  N   UNL     1      34.823 -24.412 -14.599  0.00  0.00    -0.271 N 
ATOM      3  N   UNL     1      32.047 -22.806 -17.215  0.00  0.00    -0.345 NA
ATOM      4  N   UNL     1      38.246 -24.053 -15.054  0.00  0.00    -0.239 N 
ATOM      5  N   UNL     1      37.005 -23.791 -15.498  0.00  0.00    -0.166 NA
ATOM      6  C   UNL     1      32.618 -23.481 -14.985  0.00  0.00    +0.072 C 
ATOM      7  C   UNL     1      33.282 -23.211 -17.570  0.00  0.00    +0.146 C 
ATOM      8  C   UNL     1      33.861 -23.860 -15.482  0.00  0.00    +0.199 C 
ATOM      9  C   UNL     1      31.716 -22.942 -15.918  0.00  0.00    +0.129 C 
ATOM     10  C   UNL     1      32.261 -23.618 -13.633  0.00  0.00    +0.006 C 
ATOM     11  C   UNL     1      30.461 -22.550 -15.458  0.00  0.00    +0.086 C 
ATOM     12  C   UNL     1      36.227 -24.390 -14.593  0.00  0.00    +0.152 C 
ATOM     13  C   UNL     1      31.001 -23.219 -13.200  0.00  0.00    -0.004 C 
ATOM     14  C   UNL     1      30.100 -22.684 -14.114  0.00  0.00    -0.019 C 
ATOM     15  C   UNL     1      36.964 -25.030 -13.580  0.00  0.00    +0.048 C 
ATOM     16  C   UNL     1      38.277 -24.792 -13.909  0.00  0.00    +0.046 C 
ATOM     17  C   UNL     1      39.539 -25.186 -13.263  0.00  0.00    +0.049 C 
ATOM     18  H   UNL     1      34.431 -24.907 -13.843  0.00  0.00    +0.156 HD
ATOM     19  H   UNL     1      39.059 -23.740 -15.515  0.00  0.00    +0.174 HD
ENDROOT
BRANCH   7  20
ATOM     20  C   UNL     1      33.641 -23.057 -19.011  0.00  0.00    +0.243 C 
BRANCH  20  22
ATOM     21  F   UNL     1      37.349 -18.907 -20.006  0.00  0.00    -0.204 F 
ATOM     22  C   UNL     1      34.640 -21.937 -19.279  0.00  0.00    +0.021 C 
ATOM     23  C   UNL     1      34.309 -20.900 -20.150  0.00  0.00    +0.001 C 
ATOM     24  C   UNL     1      35.887 -21.951 -18.654  0.00  0.00    +0.001 C 
ATOM     25  C   UNL     1      35.224 -19.876 -20.395  0.00  0.00    +0.029 C 
ATOM     26  C   UNL     1      36.803 -20.928 -18.899  0.00  0.00    +0.029 C 
ATOM     27  C   UNL     1      36.470 -19.890 -19.770  0.00  0.00    +0.140 C 
ENDBRANCH  20  22
BRANCH  20  28
ATOM     28  O   UNL     1      34.135 -24.281 -19.583  0.00  0.00    -0.366 OA
ATOM     29  H   UNL     1      34.706 -24.732 -18.942  0.00  0.00    +0.212 HD
ENDBRANCH  20  28
ENDBRANCH   7  20
TORSDOF 3
ENDMDL
MODEL 2
REMARK VINA RESULT:     -11.7      1.714      5.361
REMARK  Name = 46892373
REMARK  3 active torsions:
REMARK  status: ('A' for Active; 'I' for Inactive)
REMARK    1  A    between atoms: C_7  and  C_20
REMARK    2  A    between atoms: C_20  and  C_22
REMARK    3  A    between atoms: C_20  and  O_28
REMARK                            x       y       z     vdW  Elec       q    Type
REMARK                         _______ _______ _______ _____ _____    ______ ____
ROOT
ATOM      1  N   UNL     1      32.226 -22.831 -17.034  0.00  0.00    -0.326 NA
ATOM      2  N   UNL     1      30.866 -22.609 -15.127  0.00  0.00    -0.271 N 
ATOM      3  N   UNL     1      34.476 -23.674 -16.849  0.00  0.00    -0.345 NA
ATOM      4  N   UNL     1      27.846 -22.836 -16.825  0.00  0.00    -0.239 N 
ATOM      5  N   UNL     1      29.178 -23.013 -16.843  0.00  0.00    -0.166 NA
ATOM      6  C   UNL     1      33.122 -23.462 -14.880  0.00  0.00    +0.072 C 
ATOM      7  C   UNL     1      33.418 -23.193 -17.533  0.00  0.00    +0.146 C 
ATOM      8  C   UNL     1      32.108 -22.978 -15.701  0.00  0.00    +0.199 C 
ATOM      9  C   UNL     1      34.324 -23.807 -15.519  0.00  0.00    +0.129 C 
ATOM     10  C   UNL     1      32.976 -23.606 -13.490  0.00  0.00    +0.006 C 
ATOM     11  C   UNL     1      35.363 -24.297 -14.730  0.00  0.00    +0.086 C 
ATOM     12  C   UNL     1      29.552 -22.618 -15.623  0.00  0.00    +0.152 C 
ATOM     13  C   UNL     1      34.029 -24.097 -12.726  0.00  0.00    -0.004 C 
ATOM     14  C   UNL     1      35.224 -24.442 -13.347  0.00  0.00    -0.019 C 
ATOM     15  C   UNL     1      28.469 -22.192 -14.833  0.00  0.00    +0.048 C 
ATOM     16  C   UNL     1      27.371 -22.346 -15.644  0.00  0.00    +0.046 C 
ATOM     17  C   UNL     1      25.940 -22.081 -15.424  0.00  0.00    +0.049 C 
ATOM     18  H   UNL     1      30.938 -22.282 -14.201  0.00  0.00    +0.156 HD
ATOM     19  H   UNL     1      27.266 -23.041 -17.594  0.00  0.00    +0.174 HD
ENDROOT
BRANCH   7  20
ATOM     20  C   UNL     1      33.594 -23.047 -19.008  0.00  0.00    +0.243 C 
BRANCH  20  22
ATOM     21  F   UNL     1      36.781 -18.622 -20.498  0.00  0.00    -0.204 F 
ATOM     22  C   UNL     1      34.453 -21.854 -19.409  0.00  0.00    +0.021 C 
ATOM     23  C   UNL     1      33.885 -20.790 -20.110  0.00  0.00    +0.001 C 
ATOM     24  C   UNL     1      35.807 -21.826 -19.077  0.00  0.00    +0.001 C 
ATOM     25  C   UNL     1      34.671 -19.698 -20.478  0.00  0.00    +0.029 C 
ATOM     26  C   UNL     1      36.595 -20.735 -19.445  0.00  0.00    +0.029 C 
ATOM     27  C   UNL     1      36.026 -19.670 -20.145  0.00  0.00    +0.140 C 
ENDBRANCH  20  22
BRANCH  20  28
ATOM     28  O   UNL     1      34.125 -24.240 -19.613  0.00  0.00    -0.366 OA
ATOM     29  H   UNL     1      34.043 -24.178 -20.578  0.00  0.00    +0.212 HD
ENDBRANCH  20  28
ENDBRANCH   7  20
TORSDOF 3
ENDMDL
MODEL 3
REMARK VINA RESULT:     -11.3      2.923      7.079
REMARK  Name = 46892373
REMARK  3 active torsions:
REMARK  status: ('A' for Active; 'I' for Inactive)
REMARK    1  A    between atoms: C_7  and  C_20
REMARK    2  A    between atoms: C_20  and  C_22
REMARK    3  A    between atoms: C_20  and  O_28
REMARK                            x       y       z     vdW  Elec       q    Type
REMARK                         _______ _______ _______ _____ _____    ______ ____
ROOT
ATOM      1  N   UNL     1      33.170 -23.534 -15.454  0.00  0.00    -0.326 NA
ATOM      2  N   UNL     1      31.428 -22.839 -16.874  0.00  0.00    -0.271 N 
ATOM      3  N   UNL     1      35.472 -23.142 -16.049  0.00  0.00    -0.345 NA
ATOM      4  N   UNL     1      29.025 -22.591 -14.380  0.00  0.00    -0.239 N 
ATOM      5  N   UNL     1      30.325 -22.698 -14.701  0.00  0.00    -0.166 NA
ATOM      6  C   UNL     1      33.725 -22.418 -17.525  0.00  0.00    +0.072 C 
ATOM      7  C   UNL     1      34.494 -23.601 -15.243  0.00  0.00    +0.146 C 
ATOM      8  C   UNL     1      32.816 -22.935 -16.606  0.00  0.00    +0.199 C 
ATOM      9  C   UNL     1      35.084 -22.549 -17.192  0.00  0.00    +0.129 C 
ATOM     10  C   UNL     1      33.331 -21.797 -18.722  0.00  0.00    +0.006 C 
ATOM     11  C   UNL     1      36.024 -22.043 -18.087  0.00  0.00    +0.086 C 
ATOM     12  C   UNL     1      30.306 -22.734 -16.036  0.00  0.00    +0.152 C 
ATOM     13  C   UNL     1      34.291 -21.301 -19.598  0.00  0.00    -0.004 C 
ATOM     14  C   UNL     1      35.639 -21.424 -19.279  0.00  0.00    -0.019 C 
ATOM     15  C   UNL     1      29.004 -22.651 -16.564  0.00  0.00    +0.048 C 
ATOM     16  C   UNL     1      28.192 -22.559 -15.460  0.00  0.00    +0.046 C 
ATOM     17  C   UNL     1      26.731 -22.447 -15.320  0.00  0.00    +0.049 C 
ATOM     18  H   UNL     1      31.206 -22.850 -17.833  0.00  0.00    +0.156 HD
ATOM     19  H   UNL     1      28.703 -22.541 -13.451  0.00  0.00    +0.174 HD
ENDROOT
BRANCH   7  20
ATOM     20  C   UNL     1      34.933 -24.258 -13.976  0.00  0.00    +0.243 C 
BRANCH  20  22
ATOM     21  F   UNL     1      40.073 -26.593 -14.282  0.00  0.00    -0.204 F 
ATOM     22  C   UNL     1      36.319 -24.887 -14.059  0.00  0.00    +0.021 C 
ATOM     23  C   UNL     1      36.470 -26.176 -14.571  0.00  0.00    +0.001 C 
ATOM     24  C   UNL     1      37.436 -24.176 -13.622  0.00  0.00    +0.001 C 
ATOM     25  C   UNL     1      37.738 -26.752 -14.647  0.00  0.00    +0.029 C 
ATOM     26  C   UNL     1      38.704 -24.751 -13.697  0.00  0.00    +0.029 C 
ATOM     27  C   UNL     1      38.855 -26.040 -14.210  0.00  0.00    +0.140 C 
ENDBRANCH  20  22
BRANCH  20  28
ATOM     28  O   UNL     1      34.886 -23.360 -12.853  0.00  0.00    -0.366 OA
ATOM     29  H   UNL     1      35.487 -22.615 -13.008  0.00  0.00    +0.212 HD
ENDBRANCH  20  28
ENDBRANCH   7  20
TORSDOF 3
ENDMDL
MODEL 4
REMARK VINA RESULT:     -11.2      3.112      6.768
REMARK  Name = 46892373
REMARK  3 active torsions:
REMARK  status: ('A' for Active; 'I' for Inactive)
REMARK    1  A    between atoms: C_7  and  C_20
REMARK    2  A    between atoms: C_20  and  C_22
REMARK    3  A    between atoms: C_20  and  O_28
REMARK                            x       y       z     vdW  Elec       q    Type
REMARK                         _______ _______ _______ _____ _____    ______ ____
ROOT
ATOM      1  N   UNL     1      35.465 -23.207 -15.759  0.00  0.00    -0.326 NA
ATOM      2  N   UNL     1      33.255 -23.397 -16.547  0.00  0.00    -0.271 N 
ATOM      3  N   UNL     1      37.109 -21.955 -17.000  0.00  0.00    -0.345 NA
ATOM      4  N   UNL     1      31.825 -23.959 -13.433  0.00  0.00    -0.239 N 
ATOM      5  N   UNL     1      32.894 -23.550 -14.137  0.00  0.00    -0.166 NA
ATOM      6  C   UNL     1      34.867 -22.126 -17.838  0.00  0.00    +0.072 C 
ATOM      7  C   UNL     1      36.695 -22.710 -15.962  0.00  0.00    +0.146 C 
ATOM      8  C   UNL     1      34.571 -22.896 -16.716  0.00  0.00    +0.199 C 
ATOM      9  C   UNL     1      36.190 -21.664 -17.939  0.00  0.00    +0.129 C 
ATOM     10  C   UNL     1      33.916 -21.816 -18.824  0.00  0.00    +0.006 C 
ATOM     11  C   UNL     1      36.525 -20.889 -19.047  0.00  0.00    +0.086 C 
ATOM     12  C   UNL     1      32.495 -23.695 -15.404  0.00  0.00    +0.152 C 
ATOM     13  C   UNL     1      34.277 -21.041 -19.921  0.00  0.00    -0.004 C 
ATOM     14  C   UNL     1      35.584 -20.577 -20.032  0.00  0.00    -0.019 C 
ATOM     15  C   UNL     1      31.183 -24.193 -15.508  0.00  0.00    +0.048 C 
ATOM     16  C   UNL     1      30.774 -24.355 -14.207  0.00  0.00    +0.046 C 
ATOM     17  C   UNL     1      29.512 -24.839 -13.626  0.00  0.00    +0.049 C 
ATOM     18  H   UNL     1      32.784 -23.572 -17.393  0.00  0.00    +0.156 HD
ATOM     19  H   UNL     1      31.804 -23.973 -12.449  0.00  0.00    +0.174 HD
ENDROOT
BRANCH   7  20
ATOM     20  C   UNL     1      37.721 -23.029 -14.926  0.00  0.00    +0.243 C 
BRANCH  20  22
ATOM     21  F   UNL     1      35.599 -25.482 -10.296  0.00  0.00    -0.204 F 
ATOM     22  C   UNL     1      37.148 -23.690 -13.678  0.00  0.00    +0.021 C 
ATOM     23  C   UNL     1      36.437 -22.929 -12.749  0.00  0.00    +0.001 C 
ATOM     24  C   UNL     1      37.336 -25.055 -13.463  0.00  0.00    +0.001 C 
ATOM     25  C   UNL     1      35.913 -23.535 -11.607  0.00  0.00    +0.029 C 
ATOM     26  C   UNL     1      36.813 -25.661 -12.320  0.00  0.00    +0.029 C 
ATOM     27  C   UNL     1      36.101 -24.900 -11.392  0.00  0.00    +0.140 C 
ENDBRANCH  20  22
BRANCH  20  28
ATOM     28  O   UNL     1      38.787 -23.842 -15.447  0.00  0.00    -0.366 OA
ATOM     29  H   UNL     1      39.599 -23.314 -15.505  0.00  0.00    +0.212 HD
ENDBRANCH  20  28
ENDBRANCH   7  20
TORSDOF 3
ENDMDL
MODEL 5
REMARK VINA RESULT:     -10.8      2.683      5.508
REMARK  Name = 46892373
REMARK  3 active torsions:
REMARK  status: ('A' for Active; 'I' for Inactive)
REMARK    1  A    between atoms: C_7  and  C_20
REMARK    2  A    between atoms: C_20  and  C_22
REMARK    3  A    between atoms: C_20  and  O_28
REMARK                            x       y       z     vdW  Elec       q    Type
REMARK                         _______ _______ _______ _____ _____    ______ ____
ROOT
ATOM      1  N   UNL     1      33.408 -23.536 -14.682  0.00  0.00    -0.326 NA
ATOM      2  N   UNL     1      32.419 -22.684 -16.640  0.00  0.00    -0.271 N 
ATOM      3  N   UNL     1      32.142 -24.915 -13.165  0.00  0.00    -0.345 NA
ATOM      4  N   UNL     1      35.388 -22.338 -18.406  0.00  0.00    -0.239 N 
ATOM      5  N   UNL     1      34.747 -22.866 -17.350  0.00  0.00    -0.166 NA
ATOM      6  C   UNL     1      31.096 -24.065 -15.150  0.00  0.00    +0.072 C 
ATOM      7  C   UNL     1      33.256 -24.273 -13.571  0.00  0.00    +0.146 C 
ATOM      8  C   UNL     1      32.308 -23.452 -15.453  0.00  0.00    +0.199 C 
ATOM      9  C   UNL     1      31.061 -24.809 -13.958  0.00  0.00    +0.129 C 
ATOM     10  C   UNL     1      29.961 -23.962 -15.970  0.00  0.00    +0.006 C 
ATOM     11  C   UNL     1      29.865 -25.439 -13.620  0.00  0.00    +0.086 C 
ATOM     12  C   UNL     1      33.499 -22.413 -17.495  0.00  0.00    +0.152 C 
ATOM     13  C   UNL     1      28.779 -24.601 -15.609  0.00  0.00    -0.004 C 
ATOM     14  C   UNL     1      28.732 -25.340 -14.432  0.00  0.00    -0.019 C 
ATOM     15  C   UNL     1      33.344 -21.602 -18.635  0.00  0.00    +0.048 C 
ATOM     16  C   UNL     1      34.592 -21.572 -19.207  0.00  0.00    +0.046 C 
ATOM     17  C   UNL     1      35.105 -20.904 -20.414  0.00  0.00    +0.049 C 
ATOM     18  H   UNL     1      31.576 -22.258 -16.917  0.00  0.00    +0.156 HD
ATOM     19  H   UNL     1      36.344 -22.489 -18.585  0.00  0.00    +0.174 HD
ENDROOT
BRANCH   7  20
ATOM     20  C   UNL     1      34.450 -24.396 -12.685  0.00  0.00    +0.243 C 
BRANCH  20  22
ATOM     21  F   UNL     1      39.376 -23.970 -15.426  0.00  0.00    -0.204 F 
ATOM     22  C   UNL     1      35.778 -24.281 -13.424  0.00  0.00    +0.021 C 
ATOM     23  C   UNL     1      36.543 -25.422 -13.665  0.00  0.00    +0.001 C 
ATOM     24  C   UNL     1      36.229 -23.035 -13.859  0.00  0.00    +0.001 C 
ATOM     25  C   UNL     1      37.759 -25.318 -14.342  0.00  0.00    +0.029 C 
ATOM     26  C   UNL     1      37.445 -22.929 -14.535  0.00  0.00    +0.029 C 
ATOM     27  C   UNL     1      38.210 -24.071 -14.776  0.00  0.00    +0.140 C 
ENDBRANCH  20  22
BRANCH  20  28
ATOM     28  O   UNL     1      34.426 -23.447 -11.603  0.00  0.00    -0.366 OA
ATOM     29  H   UNL     1      34.125 -23.886 -10.793  0.00  0.00    +0.212 HD
ENDBRANCH  20  28
ENDBRANCH   7  20
TORSDOF 3
ENDMDL
MODEL 6
REMARK VINA RESULT:     -10.8      2.989      5.665
REMARK  Name = 46892373
REMARK  3 active torsions:
REMARK  status: ('A' for Active; 'I' for Inactive)
REMARK    1  A    between atoms: C_7  and  C_20
REMARK    2  A    between atoms: C_20  and  C_22
REMARK    3  A    between atoms: C_20  and  O_28
REMARK                            x       y       z     vdW  Elec       q    Type
REMARK                         _______ _______ _______ _____ _____    ______ ____
ROOT
ATOM      1  N   UNL     1      34.449 -23.754 -14.961  0.00  0.00    -0.326 NA
ATOM      2  N   UNL     1      36.693 -23.426 -15.591  0.00  0.00    -0.271 N 
ATOM      3  N   UNL     1      32.652 -22.997 -16.377  0.00  0.00    -0.345 NA
ATOM      4  N   UNL     1      37.964 -26.069 -13.731  0.00  0.00    -0.239 N 
ATOM      5  N   UNL     1      36.887 -25.464 -14.261  0.00  0.00    -0.166 NA
ATOM      6  C   UNL     1      34.926 -22.643 -17.055  0.00  0.00    +0.072 C 
ATOM      7  C   UNL     1      33.154 -23.585 -15.273  0.00  0.00    +0.146 C 
ATOM      8  C   UNL     1      35.312 -23.272 -15.875  0.00  0.00    +0.199 C 
ATOM      9  C   UNL     1      33.542 -22.525 -17.268  0.00  0.00    +0.129 C 
ATOM     10  C   UNL     1      35.847 -22.147 -17.993  0.00  0.00    +0.006 C 
ATOM     11  C   UNL     1      33.116 -21.902 -18.439  0.00  0.00    +0.086 C 
ATOM     12  C   UNL     1      37.409 -24.397 -14.872  0.00  0.00    +0.152 C 
ATOM     13  C   UNL     1      35.394 -21.528 -19.154  0.00  0.00    -0.004 C 
ATOM     14  C   UNL     1      34.027 -21.407 -19.377  0.00  0.00    -0.019 C 
ATOM     15  C   UNL     1      38.807 -24.321 -14.734  0.00  0.00    +0.048 C 
ATOM     16  C   UNL     1      39.138 -25.425 -13.986  0.00  0.00    +0.046 C 
ATOM     17  C   UNL     1      40.431 -25.926 -13.491  0.00  0.00    +0.049 C 
ATOM     18  H   UNL     1      37.258 -22.716 -15.969  0.00  0.00    +0.156 HD
ATOM     19  H   UNL     1      37.909 -26.901 -13.207  0.00  0.00    +0.174 HD
ENDROOT
BRANCH   7  20
ATOM     20  C   UNL     1      32.160 -24.105 -14.289  0.00  0.00    +0.243 C 
BRANCH  20  22
ATOM     21  F   UNL     1      26.796 -22.930 -15.635  0.00  0.00    -0.204 F 
ATOM     22  C   UNL     1      30.714 -23.789 -14.652  0.00  0.00    +0.021 C 
ATOM     23  C   UNL     1      29.943 -24.731 -15.332  0.00  0.00    +0.001 C 
ATOM     24  C   UNL     1      30.161 -22.556 -14.305  0.00  0.00    +0.001 C 
ATOM     25  C   UNL     1      28.619 -24.442 -15.664  0.00  0.00    +0.029 C 
ATOM     26  C   UNL     1      28.838 -22.265 -14.637  0.00  0.00    +0.029 C 
ATOM     27  C   UNL     1      28.067 -23.209 -15.317  0.00  0.00    +0.140 C 
ENDBRANCH  20  22
BRANCH  20  28
ATOM     28  O   UNL     1      32.296 -25.521 -14.073  0.00  0.00    -0.366 OA
ATOM     29  H   UNL     1      32.597 -25.683 -13.165  0.00  0.00    +0.212 HD
ENDBRANCH  20  28
ENDBRANCH   7  20
TORSDOF 3
ENDMDL
MODEL 7
REMARK VINA RESULT:     -10.5      2.039      5.360
REMARK  Name = 46892373
REMARK  3 active torsions:
REMARK  status: ('A' for Active; 'I' for Inactive)
REMARK    1  A    between atoms: C_7  and  C_20
REMARK    2  A    between atoms: C_20  and  C_22
REMARK    3  A    between atoms: C_20  and  O_28
REMARK                            x       y       z     vdW  Elec       q    Type
REMARK                         _______ _______ _______ _____ _____    ______ ____
ROOT
ATOM      1  N   UNL     1      35.454 -22.611 -15.249  0.00  0.00    -0.326 NA
ATOM      2  N   UNL     1      33.805 -23.296 -13.717  0.00  0.00    -0.271 N 
ATOM      3  N   UNL     1      37.729 -23.374 -15.031  0.00  0.00    -0.345 NA
ATOM      4  N   UNL     1      31.121 -22.854 -15.874  0.00  0.00    -0.239 N 
ATOM      5  N   UNL     1      32.451 -22.960 -15.720  0.00  0.00    -0.166 NA
ATOM      6  C   UNL     1      36.078 -24.095 -13.447  0.00  0.00    +0.072 C 
ATOM      7  C   UNL     1      36.740 -22.677 -15.626  0.00  0.00    +0.146 C 
ATOM      8  C   UNL     1      35.153 -23.333 -14.154  0.00  0.00    +0.199 C 
ATOM      9  C   UNL     1      37.394 -24.084 -13.938  0.00  0.00    +0.129 C 
ATOM     10  C   UNL     1      35.740 -24.841 -12.305  0.00  0.00    +0.006 C 
ATOM     11  C   UNL     1      38.349 -24.835 -13.257  0.00  0.00    +0.086 C 
ATOM     12  C   UNL     1      32.591 -23.130 -14.403  0.00  0.00    +0.152 C 
ATOM     13  C   UNL     1      36.714 -25.582 -11.644  0.00  0.00    -0.004 C 
ATOM     14  C   UNL     1      38.020 -25.579 -12.121  0.00  0.00    -0.019 C 
ATOM     15  C   UNL     1      31.360 -23.131 -13.721  0.00  0.00    +0.048 C 
ATOM     16  C   UNL     1      30.422 -22.949 -14.707  0.00  0.00    +0.046 C 
ATOM     17  C   UNL     1      28.954 -22.856 -14.663  0.00  0.00    +0.049 C 
ATOM     18  H   UNL     1      33.699 -23.407 -12.745  0.00  0.00    +0.156 HD
ATOM     19  H   UNL     1      30.690 -22.719 -16.750  0.00  0.00    +0.174 HD
ENDROOT
BRANCH   7  20
ATOM     20  C   UNL     1      37.121 -21.891 -16.837  0.00  0.00    +0.243 C 
BRANCH  20  22
ATOM     21  F   UNL     1      32.887 -21.178 -20.515  0.00  0.00    -0.204 F 
ATOM     22  C   UNL     1      35.979 -21.699 -17.828  0.00  0.00    +0.021 C 
ATOM     23  C   UNL     1      34.778 -22.385 -17.650  0.00  0.00    +0.001 C 
ATOM     24  C   UNL     1      36.135 -20.837 -18.914  0.00  0.00    +0.001 C 
ATOM     25  C   UNL     1      33.733 -22.209 -18.557  0.00  0.00    +0.029 C 
ATOM     26  C   UNL     1      35.091 -20.662 -19.822  0.00  0.00    +0.029 C 
ATOM     27  C   UNL     1      33.889 -21.348 -19.643  0.00  0.00    +0.140 C 
ENDBRANCH  20  22
BRANCH  20  28
ATOM     28  O   UNL     1      37.679 -20.608 -16.500  0.00  0.00    -0.366 OA
ATOM     29  H   UNL     1      38.307 -20.710 -15.769  0.00  0.00    +0.212 HD
ENDBRANCH  20  28
ENDBRANCH   7  20
TORSDOF 3
ENDMDL
MODEL 8
REMARK VINA RESULT:     -10.5      2.929      5.819
REMARK  Name = 46892373
REMARK  3 active torsions:
REMARK  status: ('A' for Active; 'I' for Inactive)
REMARK    1  A    between atoms: C_7  and  C_20
REMARK    2  A    between atoms: C_20  and  C_22
REMARK    3  A    between atoms: C_20  and  O_28
REMARK                            x       y       z     vdW  Elec       q    Type
REMARK                         _______ _______ _______ _____ _____    ______ ____
ROOT
ATOM      1  N   UNL     1      33.530 -23.047 -16.335  0.00  0.00    -0.326 NA
ATOM      2  N   UNL     1      35.837 -23.054 -15.874  0.00  0.00    -0.271 N 
ATOM      3  N   UNL     1      32.678 -22.002 -18.333  0.00  0.00    -0.345 NA
ATOM      4  N   UNL     1      35.783 -25.889 -13.871  0.00  0.00    -0.239 N 
ATOM      5  N   UNL     1      35.148 -25.119 -14.771  0.00  0.00    -0.166 NA
ATOM      6  C   UNL     1      35.038 -21.987 -17.899  0.00  0.00    +0.072 C 
ATOM      7  C   UNL     1      32.549 -22.679 -17.174  0.00  0.00    +0.146 C 
ATOM      8  C   UNL     1      34.766 -22.686 -16.727  0.00  0.00    +0.199 C 
ATOM      9  C   UNL     1      33.927 -21.657 -18.694  0.00  0.00    +0.129 C 
ATOM     10  C   UNL     1      36.337 -21.621 -18.287  0.00  0.00    +0.006 C 
ATOM     11  C   UNL     1      34.158 -20.957 -19.876  0.00  0.00    +0.086 C 
ATOM     12  C   UNL     1      36.022 -24.134 -14.996  0.00  0.00    +0.152 C 
ATOM     13  C   UNL     1      36.540 -20.921 -19.472  0.00  0.00    -0.004 C 
ATOM     14  C   UNL     1      35.449 -20.590 -20.268  0.00  0.00    -0.019 C 
ATOM     15  C   UNL     1      37.204 -24.273 -14.246  0.00  0.00    +0.048 C 
ATOM     16  C   UNL     1      37.017 -25.426 -13.523  0.00  0.00    +0.046 C 
ATOM     17  C   UNL     1      37.872 -26.126 -12.551  0.00  0.00    +0.049 C 
ATOM     18  H   UNL     1      36.599 -22.431 -15.902  0.00  0.00    +0.156 HD
ATOM     19  H   UNL     1      35.391 -26.711 -13.496  0.00  0.00    +0.174 HD
ENDROOT
BRANCH   7  20
ATOM     20  C   UNL     1      31.160 -23.058 -16.780  0.00  0.00    +0.243 C 
BRANCH  20  22
ATOM     21  F   UNL     1      30.790 -25.312 -11.609  0.00  0.00    -0.204 F 
ATOM     22  C   UNL     1      31.061 -23.666 -15.386  0.00  0.00    +0.021 C 
ATOM     23  C   UNL     1      30.505 -24.934 -15.216  0.00  0.00    +0.001 C 
ATOM     24  C   UNL     1      31.524 -22.954 -14.280  0.00  0.00    +0.001 C 
ATOM     25  C   UNL     1      30.415 -25.491 -13.941  0.00  0.00    +0.029 C 
ATOM     26  C   UNL     1      31.432 -23.509 -13.003  0.00  0.00    +0.029 C 
ATOM     27  C   UNL     1      30.878 -24.779 -12.834  0.00  0.00    +0.140 C 
ENDBRANCH  20  22
BRANCH  20  28
ATOM     28  O   UNL     1      30.244 -21.953 -16.882  0.00  0.00    -0.366 OA
ATOM     29  H   UNL     1      30.490 -21.397 -17.638  0.00  0.00    +0.212 HD
ENDBRANCH  20  28
ENDBRANCH   7  20
TORSDOF 3
ENDMDL
MODEL 9
REMARK VINA RESULT:     -10.4      3.132      7.299
REMARK  Name = 46892373
REMARK  3 active torsions:
REMARK  status: ('A' for Active; 'I' for Inactive)
REMARK    1  A    between atoms: C_7  and  C_20
REMARK    2  A    between atoms: C_20  and  C_22
REMARK    3  A    between atoms: C_20  and  O_28
REMARK                            x       y       z     vdW  Elec       q    Type
REMARK                         _______ _______ _______ _____ _____    ______ ____
ROOT
ATOM      1  N   UNL     1      32.631 -23.877 -15.273  0.00  0.00    -0.326 NA
ATOM      2  N   UNL     1      31.071 -22.896 -16.737  0.00  0.00    -0.271 N 
ATOM      3  N   UNL     1      34.997 -23.655 -15.669  0.00  0.00    -0.345 NA
ATOM      4  N   UNL     1      28.515 -22.640 -14.401  0.00  0.00    -0.239 N 
ATOM      5  N   UNL     1      29.822 -22.842 -14.641  0.00  0.00    -0.166 NA
ATOM      6  C   UNL     1      33.440 -22.640 -17.186  0.00  0.00    +0.072 C 
ATOM      7  C   UNL     1      33.923 -24.088 -14.979  0.00  0.00    +0.146 C 
ATOM      8  C   UNL     1      32.421 -23.147 -16.384  0.00  0.00    +0.199 C 
ATOM      9  C   UNL     1      34.752 -22.929 -16.775  0.00  0.00    +0.129 C 
ATOM     10  C   UNL     1      33.196 -21.882 -18.343  0.00  0.00    +0.006 C 
ATOM     11  C   UNL     1      35.800 -22.439 -17.551  0.00  0.00    +0.086 C 
ATOM     12  C   UNL     1      29.902 -22.758 -15.971  0.00  0.00    +0.152 C 
ATOM     13  C   UNL     1      34.261 -21.404 -19.100  0.00  0.00    -0.004 C 
ATOM     14  C   UNL     1      35.564 -21.683 -18.703  0.00  0.00    -0.019 C 
ATOM     15  C   UNL     1      28.657 -22.506 -16.577  0.00  0.00    +0.048 C 
ATOM     16  C   UNL     1      27.774 -22.434 -15.527  0.00  0.00    +0.046 C 
ATOM     17  C   UNL     1      26.322 -22.196 -15.478  0.00  0.00    +0.049 C 
ATOM     18  H   UNL     1      30.924 -22.801 -17.706  0.00  0.00    +0.156 HD
ATOM     19  H   UNL     1      28.128 -22.642 -13.495  0.00  0.00    +0.174 HD
ENDROOT
BRANCH   7  20
ATOM     20  C   UNL     1      34.204 -24.892 -13.753  0.00  0.00    +0.243 C 
BRANCH  20  22
ATOM     21  F   UNL     1      39.040 -23.508 -11.174  0.00  0.00    -0.204 F 
ATOM     22  C   UNL     1      35.508 -24.519 -13.059  0.00  0.00    +0.021 C 
ATOM     23  C   UNL     1      36.680 -25.214 -13.355  0.00  0.00    +0.001 C 
ATOM     24  C   UNL     1      35.529 -23.483 -12.125  0.00  0.00    +0.001 C 
ATOM     25  C   UNL     1      37.874 -24.872 -12.719  0.00  0.00    +0.029 C 
ATOM     26  C   UNL     1      36.722 -23.141 -11.488  0.00  0.00    +0.029 C 
ATOM     27  C   UNL     1      37.895 -23.836 -11.786  0.00  0.00    +0.140 C 
ENDBRANCH  20  22
BRANCH  20  28
ATOM     28  O   UNL     1      33.125 -24.831 -12.803  0.00  0.00    -0.366 OA
ATOM     29  H   UNL     1      32.592 -25.639 -12.865  0.00  0.00    +0.212 HD
ENDBRANCH  20  28
ENDBRANCH   7  20
TORSDOF 3
ENDMDL
