MODEL 1
REMARK VINA RESULT:     -10.9      0.000      0.000
REMARK  Name = 16124688
REMARK  3 active torsions:
REMARK  status: ('A' for Active; 'I' for Inactive)
REMARK    1  A    between atoms: N_3  and  N_16
REMARK    2  A    between atoms: C_17  and  C_19
REMARK    3  A    between atoms: C_24  and  C_28
REMARK                            x       y       z     vdW  Elec       q    Type
REMARK                         _______ _______ _______ _____ _____    ______ ____
ROOT
ATOM      1  O   UNL     1      35.138  -9.864 -23.636  0.00  0.00    -0.273 OA
ATOM      2  O   UNL     1      30.910 -11.112 -22.185  0.00  0.00    -0.273 OA
ATOM      3  N   UNL     1      33.117 -10.780 -22.890  0.00  0.00    -0.154 N 
ATOM      4  C   UNL     1      32.471  -6.249 -23.306  0.00  0.00    +0.000 C 
ATOM      5  C   UNL     1      31.087  -6.657 -22.833  0.00  0.00    +0.000 C 
ATOM      6  C   UNL     1      31.713  -5.377 -22.334  0.00  0.00    +0.000 C 
ATOM      7  C   UNL     1      33.507  -7.316 -22.913  0.00  0.00    +0.009 C 
ATOM      8  C   UNL     1      31.147  -8.012 -22.106  0.00  0.00    +0.009 C 
ATOM      9  C   UNL     1      33.064  -8.602 -23.680  0.00  0.00    +0.087 C 
ATOM     10  C   UNL     1      31.634  -9.023 -23.190  0.00  0.00    +0.087 C 
ATOM     11  C   UNL     1      33.429  -7.639 -21.425  0.00  0.00    +0.001 C 
ATOM     12  C   UNL     1      32.203  -8.000 -21.006  0.00  0.00    +0.001 C 
ATOM     13  C   UNL     1      33.937  -9.810 -23.417  0.00  0.00    +0.247 C 
ATOM     14  C   UNL     1      31.799 -10.440 -22.684  0.00  0.00    +0.247 C 
ENDROOT
BRANCH   3  16
ATOM     15  O   UNL     1      33.292 -12.795 -24.750  0.00  0.00    -0.269 OA
ATOM     16  N   UNL     1      33.587 -12.021 -22.587  0.00  0.00    -0.221 N 
ATOM     17  C   UNL     1      33.641 -12.978 -23.587  0.00  0.00    +0.262 C 
ATOM     18  H   UNL     1      33.884 -12.235 -21.673  0.00  0.00    +0.174 HD
BRANCH  17  19
ATOM     19  C   UNL     1      34.145 -14.316 -23.180  0.00  0.00    +0.055 C 
ATOM     20  C   UNL     1      34.268 -15.333 -24.127  0.00  0.00    +0.005 C 
ATOM     21  C   UNL     1      34.498 -14.555 -21.852  0.00  0.00    +0.005 C 
ATOM     22  C   UNL     1      34.743 -16.587 -23.746  0.00  0.00    +0.004 C 
ATOM     23  C   UNL     1      34.971 -15.810 -21.471  0.00  0.00    +0.004 C 
ATOM     24  C   UNL     1      35.094 -16.826 -22.418  0.00  0.00    +0.071 C 
BRANCH  24  28
ATOM     25  F   UNL     1      35.313 -19.159 -22.905  0.00  0.00    -0.166 F 
ATOM     26  F   UNL     1      36.958 -18.214 -21.853  0.00  0.00    -0.166 F 
ATOM     27  F   UNL     1      35.081 -18.586 -20.819  0.00  0.00    -0.166 F 
ATOM     28  C   UNL     1      35.602 -18.168 -22.010  0.00  0.00    +0.419 C 
ENDBRANCH  24  28
ENDBRANCH  17  19
ENDBRANCH   3  16
TORSDOF 3
ENDMDL
MODEL 2
REMARK VINA RESULT:     -10.0      1.732      2.608
REMARK  Name = 16124688
REMARK  3 active torsions:
REMARK  status: ('A' for Active; 'I' for Inactive)
REMARK    1  A    between atoms: N_3  and  N_16
REMARK    2  A    between atoms: C_17  and  C_19
REMARK    3  A    between atoms: C_24  and  C_28
REMARK                            x       y       z     vdW  Elec       q    Type
REMARK                         _______ _______ _______ _____ _____    ______ ____
ROOT
ATOM      1  O   UNL     1      31.702  -8.651 -24.958  0.00  0.00    -0.273 OA
ATOM      2  O   UNL     1      32.400  -9.002 -20.382  0.00  0.00    -0.273 OA
ATOM      3  N   UNL     1      32.144  -9.118 -22.706  0.00  0.00    -0.154 N 
ATOM      4  C   UNL     1      30.780  -4.735 -22.934  0.00  0.00    +0.000 C 
ATOM      5  C   UNL     1      31.006  -4.850 -21.436  0.00  0.00    +0.000 C 
ATOM      6  C   UNL     1      31.388  -3.585 -22.167  0.00  0.00    +0.000 C 
ATOM      7  C   UNL     1      31.577  -5.819 -23.680  0.00  0.00    +0.009 C 
ATOM      8  C   UNL     1      31.963  -6.014 -21.127  0.00  0.00    +0.009 C 
ATOM      9  C   UNL     1      30.979  -7.170 -23.176  0.00  0.00    +0.087 C 
ATOM     10  C   UNL     1      31.214  -7.288 -21.628  0.00  0.00    +0.087 C 
ATOM     11  C   UNL     1      33.046  -5.804 -23.271  0.00  0.00    +0.001 C 
ATOM     12  C   UNL     1      33.246  -5.905 -21.944  0.00  0.00    +0.001 C 
ATOM     13  C   UNL     1      31.641  -8.397 -23.764  0.00  0.00    +0.247 C 
ATOM     14  C   UNL     1      31.993  -8.574 -21.451  0.00  0.00    +0.247 C 
ENDROOT
BRANCH   3  16
ATOM     15  O   UNL     1      30.918 -11.518 -22.173  0.00  0.00    -0.269 OA
ATOM     16  N   UNL     1      32.762 -10.316 -22.892  0.00  0.00    -0.221 N 
ATOM     17  C   UNL     1      32.070 -11.479 -22.597  0.00  0.00    +0.262 C 
ATOM     18  H   UNL     1      33.686 -10.356 -23.230  0.00  0.00    +0.174 HD
BRANCH  17  19
ATOM     19  C   UNL     1      32.814 -12.749 -22.804  0.00  0.00    +0.055 C 
ATOM     20  C   UNL     1      32.896 -13.308 -24.080  0.00  0.00    +0.005 C 
ATOM     21  C   UNL     1      33.432 -13.380 -21.725  0.00  0.00    +0.005 C 
ATOM     22  C   UNL     1      33.596 -14.498 -24.275  0.00  0.00    +0.004 C 
ATOM     23  C   UNL     1      34.131 -14.571 -21.921  0.00  0.00    +0.004 C 
ATOM     24  C   UNL     1      34.213 -15.130 -23.196  0.00  0.00    +0.071 C 
BRANCH  24  28
ATOM     25  F   UNL     1      36.042 -16.544 -22.581  0.00  0.00    -0.166 F 
ATOM     26  F   UNL     1      34.206 -17.522 -23.197  0.00  0.00    -0.166 F 
ATOM     27  F   UNL     1      35.450 -16.522 -24.674  0.00  0.00    -0.166 F 
ATOM     28  C   UNL     1      34.962 -16.403 -23.404  0.00  0.00    +0.419 C 
ENDBRANCH  24  28
ENDBRANCH  17  19
ENDBRANCH   3  16
TORSDOF 3
ENDMDL
MODEL 3
REMARK VINA RESULT:      -9.9      9.524     14.426
REMARK  Name = 16124688
REMARK  3 active torsions:
REMARK  status: ('A' for Active; 'I' for Inactive)
REMARK    1  A    between atoms: N_3  and  N_16
REMARK    2  A    between atoms: C_17  and  C_19
REMARK    3  A    between atoms: C_24  and  C_28
REMARK                            x       y       z     vdW  Elec       q    Type
REMARK                         _______ _______ _______ _____ _____    ______ ____
ROOT
ATOM      1  O   UNL     1      38.947 -22.764 -15.763  0.00  0.00    -0.273 OA
ATOM      2  O   UNL     1      34.446 -22.359 -14.700  0.00  0.00    -0.273 OA
ATOM      3  N   UNL     1      36.661 -22.359 -15.460  0.00  0.00    -0.154 N 
ATOM      4  C   UNL     1      37.899 -25.499 -12.342  0.00  0.00    +0.000 C 
ATOM      5  C   UNL     1      36.426 -25.366 -11.992  0.00  0.00    +0.000 C 
ATOM      6  C   UNL     1      37.095 -26.719 -11.956  0.00  0.00    +0.000 C 
ATOM      7  C   UNL     1      38.151 -25.027 -13.783  0.00  0.00    +0.009 C 
ATOM      8  C   UNL     1      35.641 -24.800 -13.188  0.00  0.00    +0.009 C 
ATOM      9  C   UNL     1      37.763 -23.515 -13.780  0.00  0.00    +0.087 C 
ATOM     10  C   UNL     1      36.241 -23.378 -13.420  0.00  0.00    +0.087 C 
ATOM     11  C   UNL     1      37.214 -25.724 -14.764  0.00  0.00    +0.001 C 
ATOM     12  C   UNL     1      35.910 -25.606 -14.454  0.00  0.00    +0.001 C 
ATOM     13  C   UNL     1      37.906 -22.838 -15.126  0.00  0.00    +0.247 C 
ATOM     14  C   UNL     1      35.631 -22.633 -14.588  0.00  0.00    +0.247 C 
ENDROOT
BRANCH   3  16
ATOM     15  O   UNL     1      34.923 -23.174 -17.426  0.00  0.00    -0.269 OA
ATOM     16  N   UNL     1      36.455 -21.646 -16.601  0.00  0.00    -0.221 N 
ATOM     17  C   UNL     1      35.560 -22.131 -17.541  0.00  0.00    +0.262 C 
ATOM     18  H   UNL     1      36.934 -20.800 -16.756  0.00  0.00    +0.174 HD
BRANCH  17  19
ATOM     19  C   UNL     1      35.402 -21.311 -18.771  0.00  0.00    +0.055 C 
ATOM     20  C   UNL     1      34.146 -21.179 -19.363  0.00  0.00    +0.005 C 
ATOM     21  C   UNL     1      36.507 -20.672 -19.331  0.00  0.00    +0.005 C 
ATOM     22  C   UNL     1      33.996 -20.409 -20.515  0.00  0.00    +0.004 C 
ATOM     23  C   UNL     1      36.357 -19.902 -20.485  0.00  0.00    +0.004 C 
ATOM     24  C   UNL     1      35.101 -19.770 -21.077  0.00  0.00    +0.071 C 
BRANCH  24  28
ATOM     25  F   UNL     1      33.839 -19.272 -23.047  0.00  0.00    -0.166 F 
ATOM     26  F   UNL     1      34.821 -17.608 -22.060  0.00  0.00    -0.166 F 
ATOM     27  F   UNL     1      36.001 -19.065 -23.161  0.00  0.00    -0.166 F 
ATOM     28  C   UNL     1      34.941 -18.946 -22.309  0.00  0.00    +0.419 C 
ENDBRANCH  24  28
ENDBRANCH  17  19
ENDBRANCH   3  16
TORSDOF 3
ENDMDL
MODEL 4
REMARK VINA RESULT:      -9.5      1.537      2.943
REMARK  Name = 16124688
REMARK  3 active torsions:
REMARK  status: ('A' for Active; 'I' for Inactive)
REMARK    1  A    between atoms: N_3  and  N_16
REMARK    2  A    between atoms: C_17  and  C_19
REMARK    3  A    between atoms: C_24  and  C_28
REMARK                            x       y       z     vdW  Elec       q    Type
REMARK                         _______ _______ _______ _____ _____    ______ ____
ROOT
ATOM      1  O   UNL     1      30.460  -9.793 -22.508  0.00  0.00    -0.273 OA
ATOM      2  O   UNL     1      34.855  -8.387 -23.009  0.00  0.00    -0.273 OA
ATOM      3  N   UNL     1      32.747  -9.382 -22.797  0.00  0.00    -0.154 N 
ATOM      4  C   UNL     1      30.698  -5.302 -22.274  0.00  0.00    +0.000 C 
ATOM      5  C   UNL     1      32.137  -4.841 -22.436  0.00  0.00    +0.000 C 
ATOM      6  C   UNL     1      31.012  -4.053 -23.064  0.00  0.00    +0.000 C 
ATOM      7  C   UNL     1      30.515  -6.705 -22.875  0.00  0.00    +0.009 C 
ATOM      8  C   UNL     1      32.967  -5.920 -23.153  0.00  0.00    +0.009 C 
ATOM      9  C   UNL     1      31.445  -7.627 -22.025  0.00  0.00    +0.087 C 
ATOM     10  C   UNL     1      32.931  -7.151 -22.194  0.00  0.00    +0.087 C 
ATOM     11  C   UNL     1      31.027  -6.761 -24.310  0.00  0.00    +0.001 C 
ATOM     12  C   UNL     1      32.301  -6.353 -24.454  0.00  0.00    +0.001 C 
ATOM     13  C   UNL     1      31.448  -9.075 -22.464  0.00  0.00    +0.247 C 
ATOM     14  C   UNL     1      33.670  -8.364 -22.717  0.00  0.00    +0.247 C 
ENDROOT
BRANCH   3  16
ATOM     15  O   UNL     1      32.613 -11.553 -21.119  0.00  0.00    -0.269 OA
ATOM     16  N   UNL     1      33.104 -10.636 -23.188  0.00  0.00    -0.221 N 
ATOM     17  C   UNL     1      33.005 -11.674 -22.277  0.00  0.00    +0.262 C 
ATOM     18  H   UNL     1      33.427 -10.802 -24.103  0.00  0.00    +0.174 HD
BRANCH  17  19
ATOM     19  C   UNL     1      33.431 -13.012 -22.766  0.00  0.00    +0.055 C 
ATOM     20  C   UNL     1      34.259 -13.810 -21.978  0.00  0.00    +0.005 C 
ATOM     21  C   UNL     1      33.001 -13.469 -24.012  0.00  0.00    +0.005 C 
ATOM     22  C   UNL     1      34.658 -15.066 -22.435  0.00  0.00    +0.004 C 
ATOM     23  C   UNL     1      33.401 -14.724 -24.470  0.00  0.00    +0.004 C 
ATOM     24  C   UNL     1      34.229 -15.523 -23.681  0.00  0.00    +0.071 C 
BRANCH  24  28
ATOM     25  F   UNL     1      33.622 -17.639 -24.616  0.00  0.00    -0.166 F 
ATOM     26  F   UNL     1      35.537 -16.813 -25.213  0.00  0.00    -0.166 F 
ATOM     27  F   UNL     1      35.276 -17.604 -23.204  0.00  0.00    -0.166 F 
ATOM     28  C   UNL     1      34.655 -16.866 -24.171  0.00  0.00    +0.419 C 
ENDBRANCH  24  28
ENDBRANCH  17  19
ENDBRANCH   3  16
TORSDOF 3
ENDMDL
MODEL 5
REMARK VINA RESULT:      -9.3      9.541     14.531
REMARK  Name = 16124688
REMARK  3 active torsions:
REMARK  status: ('A' for Active; 'I' for Inactive)
REMARK    1  A    between atoms: N_3  and  N_16
REMARK    2  A    between atoms: C_17  and  C_19
REMARK    3  A    between atoms: C_24  and  C_28
REMARK                            x       y       z     vdW  Elec       q    Type
REMARK                         _______ _______ _______ _____ _____    ______ ____
ROOT
ATOM      1  O   UNL     1      33.753 -22.764 -14.676  0.00  0.00    -0.273 OA
ATOM      2  O   UNL     1      38.190 -23.783 -15.581  0.00  0.00    -0.273 OA
ATOM      3  N   UNL     1      35.954 -23.117 -15.393  0.00  0.00    -0.154 N 
ATOM      4  C   UNL     1      35.530 -25.143 -11.290  0.00  0.00    +0.000 C 
ATOM      5  C   UNL     1      36.982 -25.479 -11.586  0.00  0.00    +0.000 C 
ATOM      6  C   UNL     1      36.558 -25.112 -10.184  0.00  0.00    +0.000 C 
ATOM      7  C   UNL     1      35.082 -23.925 -12.116  0.00  0.00    +0.009 C 
ATOM      8  C   UNL     1      37.558 -24.496 -12.620  0.00  0.00    +0.009 C 
ATOM      9  C   UNL     1      35.207 -24.385 -13.602  0.00  0.00    +0.087 C 
ATOM     10  C   UNL     1      36.707 -24.730 -13.908  0.00  0.00    +0.087 C 
ATOM     11  C   UNL     1      36.041 -22.753 -11.933  0.00  0.00    +0.001 C 
ATOM     12  C   UNL     1      37.326 -23.050 -12.195  0.00  0.00    +0.001 C 
ATOM     13  C   UNL     1      34.840 -23.320 -14.612  0.00  0.00    +0.247 C 
ATOM     14  C   UNL     1      37.083 -23.835 -15.069  0.00  0.00    +0.247 C 
ENDROOT
BRANCH   3  16
ATOM     15  O   UNL     1      34.394 -23.504 -17.621  0.00  0.00    -0.269 OA
ATOM     16  N   UNL     1      35.940 -22.248 -16.440  0.00  0.00    -0.221 N 
ATOM     17  C   UNL     1      35.123 -22.521 -17.525  0.00  0.00    +0.262 C 
ATOM     18  H   UNL     1      36.501 -21.439 -16.427  0.00  0.00    +0.174 HD
BRANCH  17  19
ATOM     19  C   UNL     1      35.175 -21.540 -18.641  0.00  0.00    +0.055 C 
ATOM     20  C   UNL     1      33.998 -21.148 -19.279  0.00  0.00    +0.005 C 
ATOM     21  C   UNL     1      36.398 -21.009 -19.047  0.00  0.00    +0.005 C 
ATOM     22  C   UNL     1      34.045 -20.226 -20.324  0.00  0.00    +0.004 C 
ATOM     23  C   UNL     1      36.446 -20.088 -20.094  0.00  0.00    +0.004 C 
ATOM     24  C   UNL     1      35.269 -19.696 -20.732  0.00  0.00    +0.071 C 
BRANCH  24  28
ATOM     25  F   UNL     1      35.027 -17.432 -21.466  0.00  0.00    -0.166 F 
ATOM     26  F   UNL     1      36.544 -18.630 -22.452  0.00  0.00    -0.166 F 
ATOM     27  F   UNL     1      34.438 -19.004 -22.850  0.00  0.00    -0.166 F 
ATOM     28  C   UNL     1      35.320 -18.710 -21.850  0.00  0.00    +0.419 C 
ENDBRANCH  24  28
ENDBRANCH  17  19
ENDBRANCH   3  16
TORSDOF 3
ENDMDL
MODEL 6
REMARK VINA RESULT:      -9.2      1.116      1.704
REMARK  Name = 16124688
REMARK  3 active torsions:
REMARK  status: ('A' for Active; 'I' for Inactive)
REMARK    1  A    between atoms: N_3  and  N_16
REMARK    2  A    between atoms: C_17  and  C_19
REMARK    3  A    between atoms: C_24  and  C_28
REMARK                            x       y       z     vdW  Elec       q    Type
REMARK                         _______ _______ _______ _____ _____    ______ ____
ROOT
ATOM      1  O   UNL     1      32.302 -10.575 -24.611  0.00  0.00    -0.273 OA
ATOM      2  O   UNL     1      31.990 -10.176 -19.997  0.00  0.00    -0.273 OA
ATOM      3  N   UNL     1      32.192 -10.679 -22.275  0.00  0.00    -0.154 N 
ATOM      4  C   UNL     1      31.695  -6.265 -23.455  0.00  0.00    +0.000 C 
ATOM      5  C   UNL     1      31.590  -6.134 -21.945  0.00  0.00    +0.000 C 
ATOM      6  C   UNL     1      32.328  -5.090 -22.748  0.00  0.00    +0.000 C 
ATOM      7  C   UNL     1      32.422  -7.567 -23.830  0.00  0.00    +0.009 C 
ATOM      8  C   UNL     1      32.245  -7.344 -21.256  0.00  0.00    +0.009 C 
ATOM      9  C   UNL     1      31.506  -8.706 -23.281  0.00  0.00    +0.087 C 
ATOM     10  C   UNL     1      31.400  -8.571 -21.721  0.00  0.00    +0.087 C 
ATOM     11  C   UNL     1      33.757  -7.683 -23.103  0.00  0.00    +0.001 C 
ATOM     12  C   UNL     1      33.665  -7.566 -21.766  0.00  0.00    +0.001 C 
ATOM     13  C   UNL     1      32.047 -10.100 -23.514  0.00  0.00    +0.247 C 
ATOM     14  C   UNL     1      31.889  -9.898 -21.182  0.00  0.00    +0.247 C 
ENDROOT
BRANCH   3  16
ATOM     15  O   UNL     1      34.689 -11.513 -23.060  0.00  0.00    -0.269 OA
ATOM     16  N   UNL     1      32.614 -11.965 -22.135  0.00  0.00    -0.221 N 
ATOM     17  C   UNL     1      33.890 -12.299 -22.558  0.00  0.00    +0.262 C 
ATOM     18  H   UNL     1      32.024 -12.646 -21.740  0.00  0.00    +0.174 HD
BRANCH  17  19
ATOM     19  C   UNL     1      34.277 -13.726 -22.394  0.00  0.00    +0.055 C 
ATOM     20  C   UNL     1      34.532 -14.236 -21.121  0.00  0.00    +0.005 C 
ATOM     21  C   UNL     1      34.381 -14.554 -23.511  0.00  0.00    +0.005 C 
ATOM     22  C   UNL     1      34.892 -15.574 -20.966  0.00  0.00    +0.004 C 
ATOM     23  C   UNL     1      34.743 -15.892 -23.355  0.00  0.00    +0.004 C 
ATOM     24  C   UNL     1      34.998 -16.402 -22.083  0.00  0.00    +0.071 C 
BRANCH  24  28
ATOM     25  F   UNL     1      35.068 -18.613 -22.993  0.00  0.00    -0.166 F 
ATOM     26  F   UNL     1      36.723 -18.019 -21.721  0.00  0.00    -0.166 F 
ATOM     27  F   UNL     1      34.773 -18.420 -20.846  0.00  0.00    -0.166 F 
ATOM     28  C   UNL     1      35.383 -17.833 -21.917  0.00  0.00    +0.419 C 
ENDBRANCH  24  28
ENDBRANCH  17  19
ENDBRANCH   3  16
TORSDOF 3
ENDMDL
MODEL 7
REMARK VINA RESULT:      -9.2     13.883     16.342
REMARK  Name = 16124688
REMARK  3 active torsions:
REMARK  status: ('A' for Active; 'I' for Inactive)
REMARK    1  A    between atoms: N_3  and  N_16
REMARK    2  A    between atoms: C_17  and  C_19
REMARK    3  A    between atoms: C_24  and  C_28
REMARK                            x       y       z     vdW  Elec       q    Type
REMARK                         _______ _______ _______ _____ _____    ______ ____
ROOT
ATOM      1  O   UNL     1      36.308 -23.087 -16.349  0.00  0.00    -0.273 OA
ATOM      2  O   UNL     1      35.427 -23.629 -11.824  0.00  0.00    -0.273 OA
ATOM      3  N   UNL     1      35.584 -23.246 -14.128  0.00  0.00    -0.154 N 
ATOM      4  C   UNL     1      39.858 -24.929 -14.277  0.00  0.00    +0.000 C 
ATOM      5  C   UNL     1      39.571 -25.105 -12.795  0.00  0.00    +0.000 C 
ATOM      6  C   UNL     1      40.343 -26.161 -13.550  0.00  0.00    +0.000 C 
ATOM      7  C   UNL     1      38.543 -24.831 -15.069  0.00  0.00    +0.009 C 
ATOM      8  C   UNL     1      38.053 -25.132 -12.544  0.00  0.00    +0.009 C 
ATOM      9  C   UNL     1      37.848 -23.542 -14.527  0.00  0.00    +0.087 C 
ATOM     10  C   UNL     1      37.551 -23.725 -12.997  0.00  0.00    +0.087 C 
ATOM     11  C   UNL     1      37.619 -26.001 -14.750  0.00  0.00    +0.001 C 
ATOM     12  C   UNL     1      37.365 -26.157 -13.438  0.00  0.00    +0.001 C 
ATOM     13  C   UNL     1      36.501 -23.257 -15.154  0.00  0.00    +0.247 C 
ATOM     14  C   UNL     1      36.056 -23.531 -12.866  0.00  0.00    +0.247 C 
ENDROOT
BRANCH   3  16
ATOM     15  O   UNL     1      33.680 -25.202 -14.434  0.00  0.00    -0.269 OA
ATOM     16  N   UNL     1      34.271 -22.965 -14.350  0.00  0.00    -0.221 N 
ATOM     17  C   UNL     1      33.378 -24.014 -14.493  0.00  0.00    +0.262 C 
ATOM     18  H   UNL     1      33.961 -22.032 -14.408  0.00  0.00    +0.174 HD
BRANCH  17  19
ATOM     19  C   UNL     1      31.964 -23.632 -14.753  0.00  0.00    +0.055 C 
ATOM     20  C   UNL     1      30.996 -23.835 -13.770  0.00  0.00    +0.005 C 
ATOM     21  C   UNL     1      31.608 -23.070 -15.979  0.00  0.00    +0.005 C 
ATOM     22  C   UNL     1      29.670 -23.476 -14.013  0.00  0.00    +0.004 C 
ATOM     23  C   UNL     1      30.282 -22.713 -16.222  0.00  0.00    +0.004 C 
ATOM     24  C   UNL     1      29.313 -22.915 -15.239  0.00  0.00    +0.071 C 
BRANCH  24  28
ATOM     25  F   UNL     1      27.264 -21.999 -14.412  0.00  0.00    -0.166 F 
ATOM     26  F   UNL     1      27.756 -21.596 -16.486  0.00  0.00    -0.166 F 
ATOM     27  F   UNL     1      27.128 -23.590 -15.888  0.00  0.00    -0.166 F 
ATOM     28  C   UNL     1      27.896 -22.530 -15.499  0.00  0.00    +0.419 C 
ENDBRANCH  24  28
ENDBRANCH  17  19
ENDBRANCH   3  16
TORSDOF 3
ENDMDL
MODEL 8
REMARK VINA RESULT:      -9.1      2.090      3.343
REMARK  Name = 16124688
REMARK  3 active torsions:
REMARK  status: ('A' for Active; 'I' for Inactive)
REMARK    1  A    between atoms: N_3  and  N_16
REMARK    2  A    between atoms: C_17  and  C_19
REMARK    3  A    between atoms: C_24  and  C_28
REMARK                            x       y       z     vdW  Elec       q    Type
REMARK                         _______ _______ _______ _____ _____    ______ ____
ROOT
ATOM      1  O   UNL     1      34.198  -7.348 -21.094  0.00  0.00    -0.273 OA
ATOM      2  O   UNL     1      31.948  -7.641 -25.144  0.00  0.00    -0.273 OA
ATOM      3  N   UNL     1      33.193  -7.774 -23.166  0.00  0.00    -0.154 N 
ATOM      4  C   UNL     1      31.694  -3.664 -21.759  0.00  0.00    +0.000 C 
ATOM      5  C   UNL     1      30.959  -3.758 -23.085  0.00  0.00    +0.000 C 
ATOM      6  C   UNL     1      30.276  -3.157 -21.880  0.00  0.00    +0.000 C 
ATOM      7  C   UNL     1      32.092  -5.065 -21.267  0.00  0.00    +0.009 C 
ATOM      8  C   UNL     1      30.839  -5.227 -23.528  0.00  0.00    +0.009 C 
ATOM      9  C   UNL     1      33.072  -5.606 -22.356  0.00  0.00    +0.087 C 
ATOM     10  C   UNL     1      32.311  -5.704 -23.726  0.00  0.00    +0.087 C 
ATOM     11  C   UNL     1      30.891  -6.005 -21.246  0.00  0.00    +0.001 C 
ATOM     12  C   UNL     1      30.240  -6.088 -22.420  0.00  0.00    +0.001 C 
ATOM     13  C   UNL     1      33.578  -7.007 -22.091  0.00  0.00    +0.247 C 
ATOM     14  C   UNL     1      32.441  -7.154 -24.138  0.00  0.00    +0.247 C 
ENDROOT
BRANCH   3  16
ATOM     15  O   UNL     1      31.575  -9.806 -22.269  0.00  0.00    -0.269 OA
ATOM     16  N   UNL     1      33.539  -9.087 -23.264  0.00  0.00    -0.221 N 
ATOM     17  C   UNL     1      32.663 -10.047 -22.785  0.00  0.00    +0.262 C 
ATOM     18  H   UNL     1      34.398  -9.349 -23.667  0.00  0.00    +0.174 HD
BRANCH  17  19
ATOM     19  C   UNL     1      33.116 -11.458 -22.906  0.00  0.00    +0.055 C 
ATOM     20  C   UNL     1      33.828 -11.867 -24.034  0.00  0.00    +0.005 C 
ATOM     21  C   UNL     1      32.832 -12.372 -21.891  0.00  0.00    +0.005 C 
ATOM     22  C   UNL     1      34.255 -13.190 -24.147  0.00  0.00    +0.004 C 
ATOM     23  C   UNL     1      33.258 -13.695 -22.006  0.00  0.00    +0.004 C 
ATOM     24  C   UNL     1      33.970 -14.104 -23.133  0.00  0.00    +0.071 C 
BRANCH  24  28
ATOM     25  F   UNL     1      35.727 -15.642 -23.651  0.00  0.00    -0.166 F 
ATOM     26  F   UNL     1      34.341 -16.221 -22.085  0.00  0.00    -0.166 F 
ATOM     27  F   UNL     1      33.696 -16.230 -24.162  0.00  0.00    -0.166 F 
ATOM     28  C   UNL     1      34.426 -15.519 -23.254  0.00  0.00    +0.419 C 
ENDBRANCH  24  28
ENDBRANCH  17  19
ENDBRANCH   3  16
TORSDOF 3
ENDMDL
MODEL 9
REMARK VINA RESULT:      -8.4     14.102     16.805
REMARK  Name = 16124688
REMARK  3 active torsions:
REMARK  status: ('A' for Active; 'I' for Inactive)
REMARK    1  A    between atoms: N_3  and  N_16
REMARK    2  A    between atoms: C_17  and  C_19
REMARK    3  A    between atoms: C_24  and  C_28
REMARK                            x       y       z     vdW  Elec       q    Type
REMARK                         _______ _______ _______ _____ _____    ______ ____
ROOT
ATOM      1  O   UNL     1      35.550 -24.300 -11.631  0.00  0.00    -0.273 OA
ATOM      2  O   UNL     1      35.647 -26.586 -15.670  0.00  0.00    -0.273 OA
ATOM      3  N   UNL     1      35.294 -25.407 -13.678  0.00  0.00    -0.154 N 
ATOM      4  C   UNL     1      39.777 -25.457 -12.669  0.00  0.00    +0.000 C 
ATOM      5  C   UNL     1      39.810 -26.207 -13.989  0.00  0.00    +0.000 C 
ATOM      6  C   UNL     1      40.902 -25.221 -13.650  0.00  0.00    +0.000 C 
ATOM      7  C   UNL     1      38.500 -24.606 -12.567  0.00  0.00    +0.009 C 
ATOM      8  C   UNL     1      38.555 -25.884 -14.819  0.00  0.00    +0.009 C 
ATOM      9  C   UNL     1      37.331 -25.640 -12.595  0.00  0.00    +0.087 C 
ATOM     10  C   UNL     1      37.364 -26.413 -13.961  0.00  0.00    +0.087 C 
ATOM     11  C   UNL     1      38.333 -23.714 -13.792  0.00  0.00    +0.001 C 
ATOM     12  C   UNL     1      38.362 -24.378 -14.962  0.00  0.00    +0.001 C 
ATOM     13  C   UNL     1      35.953 -25.016 -12.536  0.00  0.00    +0.247 C 
ATOM     14  C   UNL     1      36.002 -26.172 -14.577  0.00  0.00    +0.247 C 
ENDROOT
BRANCH   3  16
ATOM     15  O   UNL     1      34.601 -23.152 -15.087  0.00  0.00    -0.269 OA
ATOM     16  N   UNL     1      34.000 -25.054 -13.909  0.00  0.00    -0.221 N 
ATOM     17  C   UNL     1      33.741 -23.900 -14.629  0.00  0.00    +0.262 C 
ATOM     18  H   UNL     1      33.261 -25.609 -13.570  0.00  0.00    +0.174 HD
BRANCH  17  19
ATOM     19  C   UNL     1      32.305 -23.565 -14.825  0.00  0.00    +0.055 C 
ATOM     20  C   UNL     1      31.856 -23.130 -16.072  0.00  0.00    +0.005 C 
ATOM     21  C   UNL     1      31.408 -23.688 -13.765  0.00  0.00    +0.005 C 
ATOM     22  C   UNL     1      30.509 -22.818 -16.257  0.00  0.00    +0.004 C 
ATOM     23  C   UNL     1      30.062 -23.375 -13.950  0.00  0.00    +0.004 C 
ATOM     24  C   UNL     1      29.612 -22.940 -15.196  0.00  0.00    +0.071 C 
BRANCH  24  28
ATOM     25  F   UNL     1      27.627 -21.898 -14.361  0.00  0.00    -0.166 F 
ATOM     26  F   UNL     1      27.934 -21.853 -16.509  0.00  0.00    -0.166 F 
ATOM     27  F   UNL     1      27.390 -23.717 -15.530  0.00  0.00    -0.166 F 
ATOM     28  C   UNL     1      28.172 -22.606 -15.394  0.00  0.00    +0.419 C 
ENDBRANCH  24  28
ENDBRANCH  17  19
ENDBRANCH   3  16
TORSDOF 3
ENDMDL
