MODEL 1
REMARK VINA RESULT:     -11.5      0.000      0.000
REMARK  Name = 10453870
REMARK  8 active torsions:
REMARK  status: ('A' for Active; 'I' for Inactive)
REMARK    1  A    between atoms: C_2  and  C_12
REMARK    2  A    between atoms: C_5  and  C_23
REMARK    3  A    between atoms: C_9  and  O_14
REMARK    4  A    between atoms: C_10  and  O_16
REMARK    5  A    between atoms: C_11  and  O_18
REMARK    6  A    between atoms: C_13  and  C_20
REMARK    7  A    between atoms: C_20  and  O_21
REMARK    8  A    between atoms: C_23  and  C_25
REMARK                            x       y       z     vdW  Elec       q    Type
REMARK                         _______ _______ _______ _____ _____    ______ ____
ROOT
ATOM      1  F   UNL     1      31.064 -22.615 -17.003  0.00  0.00    -0.204 F 
ATOM      2  C   UNL     1      34.195 -23.529 -14.472  0.00  0.00    +0.007 C 
ATOM      3  C   UNL     1      34.352 -23.677 -15.849  0.00  0.00    -0.004 C 
ATOM      4  C   UNL     1      32.986 -23.074 -13.950  0.00  0.00    +0.000 C 
ATOM      5  C   UNL     1      33.296 -23.368 -16.707  0.00  0.00    +0.010 C 
ATOM      6  C   UNL     1      31.930 -22.765 -14.808  0.00  0.00    +0.029 C 
ATOM      7  C   UNL     1      32.085 -22.913 -16.187  0.00  0.00    +0.136 C 
ENDROOT
BRANCH   2  12
ATOM      8  O   UNL     1      36.122 -24.891 -14.160  0.00  0.00    -0.347 OA
ATOM      9  C   UNL     1      34.846 -24.315 -12.158  0.00  0.00    +0.171 C 
ATOM     10  C   UNL     1      36.011 -24.800 -11.289  0.00  0.00    +0.169 C 
ATOM     11  C   UNL     1      36.896 -25.790 -12.047  0.00  0.00    +0.169 C 
ATOM     12  C   UNL     1      35.342 -23.864 -13.540  0.00  0.00    +0.167 C 
ATOM     13  C   UNL     1      37.291 -25.227 -13.413  0.00  0.00    +0.174 C 
BRANCH   9  14
ATOM     14  O   UNL     1      34.217 -23.207 -11.513  0.00  0.00    -0.379 OA
ATOM     15  H   UNL     1      34.548 -23.131 -10.605  0.00  0.00    +0.211 HD
ENDBRANCH   9  14
BRANCH  10  16
ATOM     16  O   UNL     1      35.497 -25.464 -10.133  0.00  0.00    -0.379 OA
ATOM     17  H   UNL     1      34.660 -25.901 -10.356  0.00  0.00    +0.211 HD
ENDBRANCH  10  16
BRANCH  11  18
ATOM     18  O   UNL     1      38.072 -26.047 -11.286  0.00  0.00    -0.379 OA
ATOM     19  H   UNL     1      37.988 -25.637 -10.411  0.00  0.00    +0.211 HD
ENDBRANCH  11  18
BRANCH  13  20
ATOM     20  C   UNL     1      38.083 -26.240 -14.233  0.00  0.00    +0.169 C 
BRANCH  20  21
ATOM     21  O   UNL     1      37.359 -26.528 -15.416  0.00  0.00    -0.379 OA
ATOM     22  H   UNL     1      36.602 -27.094 -15.202  0.00  0.00    +0.211 HD
ENDBRANCH  20  21
ENDBRANCH  13  20
ENDBRANCH   2  12
BRANCH   5  23
ATOM     23  C   UNL     1      33.466 -23.527 -18.181  0.00  0.00    +0.061 C 
BRANCH  23  25
ATOM     24  S   UNL     1      33.191 -21.231 -19.674  0.00  0.00    -0.091 S 
ATOM     25  C   UNL     1      34.146 -22.345 -18.842  0.00  0.00    +0.012 C 
ATOM     26  C   UNL     1      35.467 -22.061 -18.849  0.00  0.00    +0.003 C 
ATOM     27  C   UNL     1      35.747 -20.857 -19.576  0.00  0.00    +0.006 C 
ATOM     28  C   UNL     1      34.575 -20.291 -20.089  0.00  0.00    +0.029 C 
ATOM     29  C   UNL     1      36.975 -20.200 -19.832  0.00  0.00    +0.001 C 
ATOM     30  C   UNL     1      34.601 -19.100 -20.841  0.00  0.00    +0.006 C 
ATOM     31  C   UNL     1      37.003 -19.018 -20.579  0.00  0.00    +0.000 C 
ATOM     32  C   UNL     1      35.827 -18.476 -21.077  0.00  0.00    +0.001 C 
ENDBRANCH  23  25
ENDBRANCH   5  23
TORSDOF 8
ENDMDL
MODEL 2
REMARK VINA RESULT:     -10.8      0.953      2.381
REMARK  Name = 10453870
REMARK  8 active torsions:
REMARK  status: ('A' for Active; 'I' for Inactive)
REMARK    1  A    between atoms: C_2  and  C_12
REMARK    2  A    between atoms: C_5  and  C_23
REMARK    3  A    between atoms: C_9  and  O_14
REMARK    4  A    between atoms: C_10  and  O_16
REMARK    5  A    between atoms: C_11  and  O_18
REMARK    6  A    between atoms: C_13  and  C_20
REMARK    7  A    between atoms: C_20  and  O_21
REMARK    8  A    between atoms: C_23  and  C_25
REMARK                            x       y       z     vdW  Elec       q    Type
REMARK                         _______ _______ _______ _____ _____    ______ ____
ROOT
ATOM      1  F   UNL     1      31.342 -22.204 -16.894  0.00  0.00    -0.204 F 
ATOM      2  C   UNL     1      34.235 -23.886 -14.476  0.00  0.00    +0.007 C 
ATOM      3  C   UNL     1      34.338 -24.000 -15.861  0.00  0.00    -0.004 C 
ATOM      4  C   UNL     1      33.159 -23.205 -13.908  0.00  0.00    +0.000 C 
ATOM      5  C   UNL     1      33.362 -23.433 -16.681  0.00  0.00    +0.010 C 
ATOM      6  C   UNL     1      32.183 -22.638 -14.728  0.00  0.00    +0.029 C 
ATOM      7  C   UNL     1      32.285 -22.752 -16.115  0.00  0.00    +0.136 C 
ENDROOT
BRANCH   2  12
ATOM      8  O   UNL     1      35.188 -23.891 -12.295  0.00  0.00    -0.347 OA
ATOM      9  C   UNL     1      36.707 -24.317 -14.161  0.00  0.00    +0.171 C 
ATOM     10  C   UNL     1      37.770 -24.803 -13.170  0.00  0.00    +0.169 C 
ATOM     11  C   UNL     1      37.529 -24.234 -11.772  0.00  0.00    +0.169 C 
ATOM     12  C   UNL     1      35.294 -24.502 -13.585  0.00  0.00    +0.167 C 
ATOM     13  C   UNL     1      36.080 -24.460 -11.337  0.00  0.00    +0.174 C 
BRANCH   9  14
ATOM     14  O   UNL     1      36.813 -25.078 -15.364  0.00  0.00    -0.379 OA
ATOM     15  H   UNL     1      37.748 -25.232 -15.568  0.00  0.00    +0.211 HD
ENDBRANCH   9  14
BRANCH  10  16
ATOM     16  O   UNL     1      39.059 -24.370 -13.607  0.00  0.00    -0.379 OA
ATOM     17  H   UNL     1      39.739 -24.956 -13.241  0.00  0.00    +0.211 HD
ENDBRANCH  10  16
BRANCH  11  18
ATOM     18  O   UNL     1      38.404 -24.874 -10.847  0.00  0.00    -0.379 OA
ATOM     19  H   UNL     1      38.152 -25.806 -10.755  0.00  0.00    +0.211 HD
ENDBRANCH  11  18
BRANCH  13  20
ATOM     20  C   UNL     1      35.786 -23.804  -9.991  0.00  0.00    +0.169 C 
BRANCH  20  21
ATOM     21  O   UNL     1      35.397 -24.811  -9.074  0.00  0.00    -0.379 OA
ATOM     22  H   UNL     1      34.438 -24.944  -9.128  0.00  0.00    +0.211 HD
ENDBRANCH  20  21
ENDBRANCH  13  20
ENDBRANCH   2  12
BRANCH   5  23
ATOM     23  C   UNL     1      33.474 -23.557 -18.164  0.00  0.00    +0.061 C 
BRANCH  23  25
ATOM     24  S   UNL     1      33.205 -21.271 -19.674  0.00  0.00    -0.091 S 
ATOM     25  C   UNL     1      34.155 -22.373 -18.820  0.00  0.00    +0.012 C 
ATOM     26  C   UNL     1      35.474 -22.078 -18.807  0.00  0.00    +0.003 C 
ATOM     27  C   UNL     1      35.756 -20.876 -19.536  0.00  0.00    +0.006 C 
ATOM     28  C   UNL     1      34.588 -20.322 -20.071  0.00  0.00    +0.029 C 
ATOM     29  C   UNL     1      36.983 -20.209 -19.775  0.00  0.00    +0.001 C 
ATOM     30  C   UNL     1      34.616 -19.135 -20.829  0.00  0.00    +0.006 C 
ATOM     31  C   UNL     1      37.013 -19.032 -20.527  0.00  0.00    +0.000 C 
ATOM     32  C   UNL     1      35.840 -18.502 -21.048  0.00  0.00    +0.001 C 
ENDBRANCH  23  25
ENDBRANCH   5  23
TORSDOF 8
ENDMDL
MODEL 3
REMARK VINA RESULT:     -10.4      1.158      2.632
REMARK  Name = 10453870
REMARK  8 active torsions:
REMARK  status: ('A' for Active; 'I' for Inactive)
REMARK    1  A    between atoms: C_2  and  C_12
REMARK    2  A    between atoms: C_5  and  C_23
REMARK    3  A    between atoms: C_9  and  O_14
REMARK    4  A    between atoms: C_10  and  O_16
REMARK    5  A    between atoms: C_11  and  O_18
REMARK    6  A    between atoms: C_13  and  C_20
REMARK    7  A    between atoms: C_20  and  O_21
REMARK    8  A    between atoms: C_23  and  C_25
REMARK                            x       y       z     vdW  Elec       q    Type
REMARK                         _______ _______ _______ _____ _____    ______ ____
ROOT
ATOM      1  F   UNL     1      31.367 -22.224 -17.110  0.00  0.00    -0.204 F 
ATOM      2  C   UNL     1      34.167 -23.890 -14.575  0.00  0.00    +0.007 C 
ATOM      3  C   UNL     1      34.328 -24.004 -15.955  0.00  0.00    -0.004 C 
ATOM      4  C   UNL     1      33.065 -23.216 -14.052  0.00  0.00    +0.000 C 
ATOM      5  C   UNL     1      33.384 -23.442 -16.814  0.00  0.00    +0.010 C 
ATOM      6  C   UNL     1      32.121 -22.654 -14.911  0.00  0.00    +0.029 C 
ATOM      7  C   UNL     1      32.280 -22.767 -16.293  0.00  0.00    +0.136 C 
ENDROOT
BRANCH   2  12
ATOM      8  O   UNL     1      35.005 -23.917 -12.347  0.00  0.00    -0.347 OA
ATOM      9  C   UNL     1      36.629 -24.275 -14.138  0.00  0.00    +0.171 C 
ATOM     10  C   UNL     1      37.649 -24.757 -13.102  0.00  0.00    +0.169 C 
ATOM     11  C   UNL     1      37.324 -24.220 -11.709  0.00  0.00    +0.169 C 
ATOM     12  C   UNL     1      35.193 -24.501 -13.641  0.00  0.00    +0.167 C 
ATOM     13  C   UNL     1      35.859 -24.485 -11.354  0.00  0.00    +0.174 C 
BRANCH   9  14
ATOM     14  O   UNL     1      36.814 -25.010 -15.348  0.00  0.00    -0.379 OA
ATOM     15  H   UNL     1      37.136 -25.901 -15.139  0.00  0.00    +0.211 HD
ENDBRANCH   9  14
BRANCH  10  16
ATOM     16  O   UNL     1      38.950 -24.288 -13.463  0.00  0.00    -0.379 OA
ATOM     17  H   UNL     1      39.304 -24.836 -14.180  0.00  0.00    +0.211 HD
ENDBRANCH  10  16
BRANCH  11  18
ATOM     18  O   UNL     1      38.163 -24.858 -10.750  0.00  0.00    -0.379 OA
ATOM     19  H   UNL     1      39.083 -24.587 -10.894  0.00  0.00    +0.211 HD
ENDBRANCH  11  18
BRANCH  13  20
ATOM     20  C   UNL     1      35.481 -23.862 -10.014  0.00  0.00    +0.169 C 
BRANCH  20  21
ATOM     21  O   UNL     1      36.394 -24.317  -9.031  0.00  0.00    -0.379 OA
ATOM     22  H   UNL     1      36.289 -25.273  -8.911  0.00  0.00    +0.211 HD
ENDBRANCH  20  21
ENDBRANCH  13  20
ENDBRANCH   2  12
BRANCH   5  23
ATOM     23  C   UNL     1      33.557 -23.566 -18.291  0.00  0.00    +0.061 C 
BRANCH  23  25
ATOM     24  S   UNL     1      35.842 -22.069 -18.636  0.00  0.00    -0.091 S 
ATOM     25  C   UNL     1      34.204 -22.352 -18.927  0.00  0.00    +0.012 C 
ATOM     26  C   UNL     1      33.614 -21.435 -19.726  0.00  0.00    +0.003 C 
ATOM     27  C   UNL     1      34.539 -20.422 -20.144  0.00  0.00    +0.006 C 
ATOM     28  C   UNL     1      35.813 -20.649 -19.614  0.00  0.00    +0.029 C 
ATOM     29  C   UNL     1      34.352 -19.288 -20.972  0.00  0.00    +0.001 C 
ATOM     30  C   UNL     1      36.890 -19.782 -19.886  0.00  0.00    +0.006 C 
ATOM     31  C   UNL     1      35.418 -18.427 -21.244  0.00  0.00    +0.000 C 
ATOM     32  C   UNL     1      36.674 -18.673 -20.706  0.00  0.00    +0.001 C 
ENDBRANCH  23  25
ENDBRANCH   5  23
TORSDOF 8
ENDMDL
MODEL 4
REMARK VINA RESULT:     -10.0     12.844     16.970
REMARK  Name = 10453870
REMARK  8 active torsions:
REMARK  status: ('A' for Active; 'I' for Inactive)
REMARK    1  A    between atoms: C_2  and  C_12
REMARK    2  A    between atoms: C_5  and  C_23
REMARK    3  A    between atoms: C_9  and  O_14
REMARK    4  A    between atoms: C_10  and  O_16
REMARK    5  A    between atoms: C_11  and  O_18
REMARK    6  A    between atoms: C_13  and  C_20
REMARK    7  A    between atoms: C_20  and  O_21
REMARK    8  A    between atoms: C_23  and  C_25
REMARK                            x       y       z     vdW  Elec       q    Type
REMARK                         _______ _______ _______ _____ _____    ______ ____
ROOT
ATOM      1  F   UNL     1      31.307 -10.567 -18.585  0.00  0.00    -0.204 F 
ATOM      2  C   UNL     1      32.566  -7.641 -21.210  0.00  0.00    +0.007 C 
ATOM      3  C   UNL     1      32.004  -8.817 -21.702  0.00  0.00    -0.004 C 
ATOM      4  C   UNL     1      32.703  -7.452 -19.836  0.00  0.00    +0.000 C 
ATOM      5  C   UNL     1      31.577  -9.808 -20.818  0.00  0.00    +0.010 C 
ATOM      6  C   UNL     1      32.276  -8.443 -18.951  0.00  0.00    +0.029 C 
ATOM      7  C   UNL     1      31.713  -9.621 -19.443  0.00  0.00    +0.136 C 
ENDROOT
BRANCH   2  12
ATOM      8  O   UNL     1      31.882  -6.095 -22.886  0.00  0.00    -0.347 OA
ATOM      9  C   UNL     1      34.102  -7.083 -23.141  0.00  0.00    +0.171 C 
ATOM     10  C   UNL     1      34.437  -6.030 -24.201  0.00  0.00    +0.169 C 
ATOM     11  C   UNL     1      33.171  -5.457 -24.836  0.00  0.00    +0.169 C 
ATOM     12  C   UNL     1      33.029  -6.564 -22.171  0.00  0.00    +0.167 C 
ATOM     13  C   UNL     1      32.180  -5.007 -23.761  0.00  0.00    +0.174 C 
BRANCH   9  14
ATOM     14  O   UNL     1      35.283  -7.384 -22.397  0.00  0.00    -0.379 OA
ATOM     15  H   UNL     1      35.572  -6.594 -21.915  0.00  0.00    +0.211 HD
ENDBRANCH   9  14
BRANCH  10  16
ATOM     16  O   UNL     1      35.218  -6.630 -25.236  0.00  0.00    -0.379 OA
ATOM     17  H   UNL     1      35.765  -5.953 -25.664  0.00  0.00    +0.211 HD
ENDBRANCH  10  16
BRANCH  11  18
ATOM     18  O   UNL     1      33.517  -4.342 -25.653  0.00  0.00    -0.379 OA
ATOM     19  H   UNL     1      34.072  -3.729 -25.146  0.00  0.00    +0.211 HD
ENDBRANCH  11  18
BRANCH  13  20
ATOM     20  C   UNL     1      30.864  -4.533 -24.368  0.00  0.00    +0.169 C 
BRANCH  20  21
ATOM     21  O   UNL     1      30.226  -3.669 -23.445  0.00  0.00    -0.379 OA
ATOM     22  H   UNL     1      29.733  -2.987 -23.927  0.00  0.00    +0.211 HD
ENDBRANCH  20  21
ENDBRANCH  13  20
ENDBRANCH   2  12
BRANCH   5  23
ATOM     23  C   UNL     1      30.976 -11.067 -21.347  0.00  0.00    +0.061 C 
BRANCH  23  25
ATOM     24  S   UNL     1      32.592 -12.637 -22.927  0.00  0.00    -0.091 S 
ATOM     25  C   UNL     1      31.956 -12.220 -21.421  0.00  0.00    +0.012 C 
ATOM     26  C   UNL     1      32.401 -12.983 -20.398  0.00  0.00    +0.003 C 
ATOM     27  C   UNL     1      33.326 -13.984 -20.846  0.00  0.00    +0.006 C 
ATOM     28  C   UNL     1      33.525 -13.908 -22.228  0.00  0.00    +0.029 C 
ATOM     29  C   UNL     1      34.025 -14.981 -20.123  0.00  0.00    +0.001 C 
ATOM     30  C   UNL     1      34.394 -14.792 -22.897  0.00  0.00    +0.006 C 
ATOM     31  C   UNL     1      34.887 -15.860 -20.785  0.00  0.00    +0.000 C 
ATOM     32  C   UNL     1      35.068 -15.765 -22.157  0.00  0.00    +0.001 C 
ENDBRANCH  23  25
ENDBRANCH   5  23
TORSDOF 8
ENDMDL
MODEL 5
REMARK VINA RESULT:     -10.0     10.667     14.038
REMARK  Name = 10453870
REMARK  8 active torsions:
REMARK  status: ('A' for Active; 'I' for Inactive)
REMARK    1  A    between atoms: C_2  and  C_12
REMARK    2  A    between atoms: C_5  and  C_23
REMARK    3  A    between atoms: C_9  and  O_14
REMARK    4  A    between atoms: C_10  and  O_16
REMARK    5  A    between atoms: C_11  and  O_18
REMARK    6  A    between atoms: C_13  and  C_20
REMARK    7  A    between atoms: C_20  and  O_21
REMARK    8  A    between atoms: C_23  and  C_25
REMARK                            x       y       z     vdW  Elec       q    Type
REMARK                         _______ _______ _______ _____ _____    ______ ____
ROOT
ATOM      1  F   UNL     1      30.434 -10.069 -19.479  0.00  0.00    -0.204 F 
ATOM      2  C   UNL     1      32.995 -12.610 -21.487  0.00  0.00    +0.007 C 
ATOM      3  C   UNL     1      32.402 -11.547 -22.166  0.00  0.00    -0.004 C 
ATOM      4  C   UNL     1      32.725 -12.816 -20.135  0.00  0.00    +0.000 C 
ATOM      5  C   UNL     1      31.536 -10.686 -21.490  0.00  0.00    +0.010 C 
ATOM      6  C   UNL     1      31.860 -11.955 -19.460  0.00  0.00    +0.029 C 
ATOM      7  C   UNL     1      31.265 -10.890 -20.137  0.00  0.00    +0.136 C 
ENDROOT
BRANCH   2  12
ATOM      8  O   UNL     1      33.312 -13.907 -23.457  0.00  0.00    -0.347 OA
ATOM      9  C   UNL     1      34.266 -14.795 -21.391  0.00  0.00    +0.171 C 
ATOM     10  C   UNL     1      35.084 -15.797 -22.211  0.00  0.00    +0.169 C 
ATOM     11  C   UNL     1      34.452 -16.042 -23.581  0.00  0.00    +0.169 C 
ATOM     12  C   UNL     1      33.935 -13.545 -22.221  0.00  0.00    +0.167 C 
ATOM     13  C   UNL     1      34.148 -14.717 -24.283  0.00  0.00    +0.174 C 
BRANCH   9  14
ATOM     14  O   UNL     1      35.028 -14.398 -20.251  0.00  0.00    -0.379 OA
ATOM     15  H   UNL     1      34.820 -14.981 -19.504  0.00  0.00    +0.211 HD
ENDBRANCH   9  14
BRANCH  10  16
ATOM     16  O   UNL     1      35.137 -17.046 -21.520  0.00  0.00    -0.379 OA
ATOM     17  H   UNL     1      35.076 -17.773 -22.159  0.00  0.00    +0.211 HD
ENDBRANCH  10  16
BRANCH  11  18
ATOM     18  O   UNL     1      35.348 -16.806 -24.383  0.00  0.00    -0.379 OA
ATOM     19  H   UNL     1      36.142 -17.020 -23.868  0.00  0.00    +0.211 HD
ENDBRANCH  11  18
BRANCH  13  20
ATOM     20  C   UNL     1      33.417 -14.933 -25.604  0.00  0.00    +0.169 C 
BRANCH  20  21
ATOM     21  O   UNL     1      32.768 -16.192 -25.561  0.00  0.00    -0.379 OA
ATOM     22  H   UNL     1      32.218 -16.244 -24.764  0.00  0.00    +0.211 HD
ENDBRANCH  20  21
ENDBRANCH  13  20
ENDBRANCH   2  12
BRANCH   5  23
ATOM     23  C   UNL     1      30.902  -9.549 -22.218  0.00  0.00    +0.061 C 
BRANCH  23  25
ATOM     24  S   UNL     1      31.388  -7.702 -24.200  0.00  0.00    -0.091 S 
ATOM     25  C   UNL     1      31.902  -8.626 -22.885  0.00  0.00    +0.012 C 
ATOM     26  C   UNL     1      33.198  -8.443 -22.548  0.00  0.00    +0.003 C 
ATOM     27  C   UNL     1      33.839  -7.488 -23.406  0.00  0.00    +0.006 C 
ATOM     28  C   UNL     1      32.952  -6.995 -24.368  0.00  0.00    +0.029 C 
ATOM     29  C   UNL     1      35.169  -7.003 -23.411  0.00  0.00    +0.001 C 
ATOM     30  C   UNL     1      33.357  -6.043 -25.324  0.00  0.00    +0.006 C 
ATOM     31  C   UNL     1      35.573  -6.058 -24.359  0.00  0.00    +0.000 C 
ATOM     32  C   UNL     1      34.675  -5.585 -25.305  0.00  0.00    +0.001 C 
ENDBRANCH  23  25
ENDBRANCH   5  23
TORSDOF 8
ENDMDL
MODEL 6
REMARK VINA RESULT:      -9.9     13.211     17.223
REMARK  Name = 10453870
REMARK  8 active torsions:
REMARK  status: ('A' for Active; 'I' for Inactive)
REMARK    1  A    between atoms: C_2  and  C_12
REMARK    2  A    between atoms: C_5  and  C_23
REMARK    3  A    between atoms: C_9  and  O_14
REMARK    4  A    between atoms: C_10  and  O_16
REMARK    5  A    between atoms: C_11  and  O_18
REMARK    6  A    between atoms: C_13  and  C_20
REMARK    7  A    between atoms: C_20  and  O_21
REMARK    8  A    between atoms: C_23  and  C_25
REMARK                            x       y       z     vdW  Elec       q    Type
REMARK                         _______ _______ _______ _____ _____    ______ ____
ROOT
ATOM      1  F   UNL     1      32.151 -10.121 -18.378  0.00  0.00    -0.204 F 
ATOM      2  C   UNL     1      31.974  -7.660 -21.688  0.00  0.00    +0.007 C 
ATOM      3  C   UNL     1      31.398  -8.928 -21.737  0.00  0.00    -0.004 C 
ATOM      4  C   UNL     1      32.609  -7.224 -20.526  0.00  0.00    +0.000 C 
ATOM      5  C   UNL     1      31.455  -9.762 -20.620  0.00  0.00    +0.010 C 
ATOM      6  C   UNL     1      32.666  -8.057 -19.409  0.00  0.00    +0.029 C 
ATOM      7  C   UNL     1      32.090  -9.327 -19.456  0.00  0.00    +0.136 C 
ENDROOT
BRANCH   2  12
ATOM      8  O   UNL     1      33.233  -6.662 -23.444  0.00  0.00    -0.347 OA
ATOM      9  C   UNL     1      31.368  -5.361 -22.550  0.00  0.00    +0.171 C 
ATOM     10  C   UNL     1      31.465  -4.416 -23.752  0.00  0.00    +0.169 C 
ATOM     11  C   UNL     1      32.856  -4.460 -24.384  0.00  0.00    +0.169 C 
ATOM     12  C   UNL     1      31.912  -6.754 -22.901  0.00  0.00    +0.167 C 
ATOM     13  C   UNL     1      33.284  -5.904 -24.653  0.00  0.00    +0.174 C 
BRANCH   9  14
ATOM     14  O   UNL     1      29.998  -5.487 -22.169  0.00  0.00    -0.379 OA
ATOM     15  H   UNL     1      29.687  -4.648 -21.797  0.00  0.00    +0.211 HD
ENDBRANCH   9  14
BRANCH  10  16
ATOM     16  O   UNL     1      31.217  -3.076 -23.323  0.00  0.00    -0.379 OA
ATOM     17  H   UNL     1      30.774  -2.585 -24.033  0.00  0.00    +0.211 HD
ENDBRANCH  10  16
BRANCH  11  18
ATOM     18  O   UNL     1      32.838  -3.738 -25.612  0.00  0.00    -0.379 OA
ATOM     19  H   UNL     1      32.252  -2.969 -25.527  0.00  0.00    +0.211 HD
ENDBRANCH  11  18
BRANCH  13  20
ATOM     20  C   UNL     1      34.712  -5.980 -25.182  0.00  0.00    +0.169 C 
BRANCH  20  21
ATOM     21  O   UNL     1      34.683  -5.803 -26.587  0.00  0.00    -0.379 OA
ATOM     22  H   UNL     1      34.220  -6.550 -26.997  0.00  0.00    +0.211 HD
ENDBRANCH  20  21
ENDBRANCH  13  20
ENDBRANCH   2  12
BRANCH   5  23
ATOM     23  C   UNL     1      30.838 -11.119 -20.674  0.00  0.00    +0.061 C 
BRANCH  23  25
ATOM     24  S   UNL     1      32.319 -12.502 -22.536  0.00  0.00    -0.091 S 
ATOM     25  C   UNL     1      31.836 -12.227 -20.944  0.00  0.00    +0.012 C 
ATOM     26  C   UNL     1      32.407 -13.052 -20.038  0.00  0.00    +0.003 C 
ATOM     27  C   UNL     1      33.306 -13.981 -20.659  0.00  0.00    +0.006 C 
ATOM     28  C   UNL     1      33.355 -13.789 -22.044  0.00  0.00    +0.029 C 
ATOM     29  C   UNL     1      34.104 -15.007 -20.097  0.00  0.00    +0.001 C 
ATOM     30  C   UNL     1      34.172 -14.587 -22.869  0.00  0.00    +0.006 C 
ATOM     31  C   UNL     1      34.915 -15.799 -20.914  0.00  0.00    +0.000 C 
ATOM     32  C   UNL     1      34.947 -15.590 -22.286  0.00  0.00    +0.001 C 
ENDBRANCH  23  25
ENDBRANCH   5  23
TORSDOF 8
ENDMDL
MODEL 7
REMARK VINA RESULT:      -9.9      2.526      4.472
REMARK  Name = 10453870
REMARK  8 active torsions:
REMARK  status: ('A' for Active; 'I' for Inactive)
REMARK    1  A    between atoms: C_2  and  C_12
REMARK    2  A    between atoms: C_5  and  C_23
REMARK    3  A    between atoms: C_9  and  O_14
REMARK    4  A    between atoms: C_10  and  O_16
REMARK    5  A    between atoms: C_11  and  O_18
REMARK    6  A    between atoms: C_13  and  C_20
REMARK    7  A    between atoms: C_20  and  O_21
REMARK    8  A    between atoms: C_23  and  C_25
REMARK                            x       y       z     vdW  Elec       q    Type
REMARK                         _______ _______ _______ _____ _____    ______ ____
ROOT
ATOM      1  F   UNL     1      33.379 -20.003 -21.029  0.00  0.00    -0.204 F 
ATOM      2  C   UNL     1      34.518 -22.298 -17.792  0.00  0.00    +0.007 C 
ATOM      3  C   UNL     1      35.490 -21.735 -18.617  0.00  0.00    -0.004 C 
ATOM      4  C   UNL     1      33.166 -22.088 -18.058  0.00  0.00    +0.000 C 
ATOM      5  C   UNL     1      35.108 -20.958 -19.711  0.00  0.00    +0.010 C 
ATOM      6  C   UNL     1      32.785 -21.311 -19.152  0.00  0.00    +0.029 C 
ATOM      7  C   UNL     1      33.756 -20.747 -19.979  0.00  0.00    +0.136 C 
ENDROOT
BRANCH   2  12
ATOM      8  O   UNL     1      33.826 -23.187 -15.695  0.00  0.00    -0.347 OA
ATOM      9  C   UNL     1      36.184 -22.583 -15.910  0.00  0.00    +0.171 C 
ATOM     10  C   UNL     1      36.488 -23.355 -14.622  0.00  0.00    +0.169 C 
ATOM     11  C   UNL     1      35.240 -23.498 -13.751  0.00  0.00    +0.169 C 
ATOM     12  C   UNL     1      34.931 -23.142 -16.603  0.00  0.00    +0.167 C 
ATOM     13  C   UNL     1      34.065 -24.034 -14.571  0.00  0.00    +0.174 C 
BRANCH   9  14
ATOM     14  O   UNL     1      37.293 -22.710 -16.799  0.00  0.00    -0.379 OA
ATOM     15  H   UNL     1      37.604 -23.628 -16.799  0.00  0.00    +0.211 HD
ENDBRANCH   9  14
BRANCH  10  16
ATOM     16  O   UNL     1      37.474 -22.648 -13.867  0.00  0.00    -0.379 OA
ATOM     17  H   UNL     1      37.952 -22.038 -14.450  0.00  0.00    +0.211 HD
ENDBRANCH  10  16
BRANCH  11  18
ATOM     18  O   UNL     1      35.515 -24.395 -12.679  0.00  0.00    -0.379 OA
ATOM     19  H   UNL     1      35.429 -25.310 -12.993  0.00  0.00    +0.211 HD
ENDBRANCH  11  18
BRANCH  13  20
ATOM     20  C   UNL     1      32.780 -24.083 -13.751  0.00  0.00    +0.169 C 
BRANCH  20  21
ATOM     21  O   UNL     1      32.870 -25.158 -12.834  0.00  0.00    -0.379 OA
ATOM     22  H   UNL     1      32.237 -25.849 -13.083  0.00  0.00    +0.211 HD
ENDBRANCH  20  21
ENDBRANCH  13  20
ENDBRANCH   2  12
BRANCH   5  23
ATOM     23  C   UNL     1      36.150 -20.356 -20.594  0.00  0.00    +0.061 C 
BRANCH  23  25
ATOM     24  S   UNL     1      35.483 -18.957 -22.869  0.00  0.00    -0.091 S 
ATOM     25  C   UNL     1      35.735 -19.032 -21.202  0.00  0.00    +0.012 C 
ATOM     26  C   UNL     1      35.534 -17.862 -20.555  0.00  0.00    +0.003 C 
ATOM     27  C   UNL     1      35.147 -16.817 -21.458  0.00  0.00    +0.006 C 
ATOM     28  C   UNL     1      35.078 -17.284 -22.775  0.00  0.00    +0.029 C 
ATOM     29  C   UNL     1      34.841 -15.455 -21.214  0.00  0.00    +0.001 C 
ATOM     30  C   UNL     1      34.718 -16.435 -23.839  0.00  0.00    +0.006 C 
ATOM     31  C   UNL     1      34.483 -14.611 -22.269  0.00  0.00    +0.000 C 
ATOM     32  C   UNL     1      34.423 -15.098 -23.568  0.00  0.00    +0.001 C 
ENDBRANCH  23  25
ENDBRANCH   5  23
TORSDOF 8
ENDMDL
MODEL 8
REMARK VINA RESULT:      -9.3     12.765     16.139
REMARK  Name = 10453870
REMARK  8 active torsions:
REMARK  status: ('A' for Active; 'I' for Inactive)
REMARK    1  A    between atoms: C_2  and  C_12
REMARK    2  A    between atoms: C_5  and  C_23
REMARK    3  A    between atoms: C_9  and  O_14
REMARK    4  A    between atoms: C_10  and  O_16
REMARK    5  A    between atoms: C_11  and  O_18
REMARK    6  A    between atoms: C_13  and  C_20
REMARK    7  A    between atoms: C_20  and  O_21
REMARK    8  A    between atoms: C_23  and  C_25
REMARK                            x       y       z     vdW  Elec       q    Type
REMARK                         _______ _______ _______ _____ _____    ______ ____
ROOT
ATOM      1  F   UNL     1      31.676 -10.647 -17.595  0.00  0.00    -0.204 F 
ATOM      2  C   UNL     1      32.202  -8.965 -21.328  0.00  0.00    +0.007 C 
ATOM      3  C   UNL     1      32.086 -10.348 -21.202  0.00  0.00    -0.004 C 
ATOM      4  C   UNL     1      32.140  -8.151 -20.198  0.00  0.00    +0.000 C 
ATOM      5  C   UNL     1      31.908 -10.920 -19.942  0.00  0.00    +0.010 C 
ATOM      6  C   UNL     1      31.962  -8.723 -18.938  0.00  0.00    +0.029 C 
ATOM      7  C   UNL     1      31.846 -10.107 -18.810  0.00  0.00    +0.136 C 
ENDROOT
BRANCH   2  12
ATOM      8  O   UNL     1      33.645  -7.648 -22.686  0.00  0.00    -0.347 OA
ATOM      9  C   UNL     1      31.245  -7.393 -23.064  0.00  0.00    +0.171 C 
ATOM     10  C   UNL     1      31.540  -6.657 -24.374  0.00  0.00    +0.169 C 
ATOM     11  C   UNL     1      32.943  -6.051 -24.369  0.00  0.00    +0.169 C 
ATOM     12  C   UNL     1      32.395  -8.344 -22.697  0.00  0.00    +0.167 C 
ATOM     13  C   UNL     1      33.983  -7.095 -23.959  0.00  0.00    +0.174 C 
BRANCH   9  14
ATOM     14  O   UNL     1      30.051  -8.159 -23.221  0.00  0.00    -0.379 OA
ATOM     15  H   UNL     1      29.483  -7.741 -23.886  0.00  0.00    +0.211 HD
ENDBRANCH   9  14
BRANCH  10  16
ATOM     16  O   UNL     1      30.600  -5.594 -24.543  0.00  0.00    -0.379 OA
ATOM     17  H   UNL     1      31.075  -4.770 -24.737  0.00  0.00    +0.211 HD
ENDBRANCH  10  16
BRANCH  11  18
ATOM     18  O   UNL     1      33.251  -5.566 -25.673  0.00  0.00    -0.379 OA
ATOM     19  H   UNL     1      34.114  -5.912 -25.951  0.00  0.00    +0.211 HD
ENDBRANCH  11  18
BRANCH  13  20
ATOM     20  C   UNL     1      35.377  -6.487 -23.840  0.00  0.00    +0.169 C 
BRANCH  20  21
ATOM     21  O   UNL     1      36.045  -7.100 -22.751  0.00  0.00    -0.379 OA
ATOM     22  H   UNL     1      35.431  -7.689 -22.286  0.00  0.00    +0.211 HD
ENDBRANCH  20  21
ENDBRANCH  13  20
ENDBRANCH   2  12
BRANCH   5  23
ATOM     23  C   UNL     1      31.784 -12.400 -19.808  0.00  0.00    +0.061 C 
BRANCH  23  25
ATOM     24  S   UNL     1      33.758 -14.180 -20.527  0.00  0.00    -0.091 S 
ATOM     25  C   UNL     1      32.468 -13.166 -20.923  0.00  0.00    +0.012 C 
ATOM     26  C   UNL     1      32.165 -13.140 -22.239  0.00  0.00    +0.003 C 
ATOM     27  C   UNL     1      33.028 -13.996 -23.000  0.00  0.00    +0.006 C 
ATOM     28  C   UNL     1      33.960 -14.636 -22.177  0.00  0.00    +0.029 C 
ATOM     29  C   UNL     1      33.065 -14.268 -24.390  0.00  0.00    +0.001 C 
ATOM     30  C   UNL     1      34.916 -15.528 -22.702  0.00  0.00    +0.006 C 
ATOM     31  C   UNL     1      34.012 -15.152 -24.912  0.00  0.00    +0.000 C 
ATOM     32  C   UNL     1      34.927 -15.775 -24.075  0.00  0.00    +0.001 C 
ENDBRANCH  23  25
ENDBRANCH   5  23
TORSDOF 8
ENDMDL
MODEL 9
REMARK VINA RESULT:      -9.3      3.344      7.023
REMARK  Name = 10453870
REMARK  8 active torsions:
REMARK  status: ('A' for Active; 'I' for Inactive)
REMARK    1  A    between atoms: C_2  and  C_12
REMARK    2  A    between atoms: C_5  and  C_23
REMARK    3  A    between atoms: C_9  and  O_14
REMARK    4  A    between atoms: C_10  and  O_16
REMARK    5  A    between atoms: C_11  and  O_18
REMARK    6  A    between atoms: C_13  and  C_20
REMARK    7  A    between atoms: C_20  and  O_21
REMARK    8  A    between atoms: C_23  and  C_25
REMARK                            x       y       z     vdW  Elec       q    Type
REMARK                         _______ _______ _______ _____ _____    ______ ____
ROOT
ATOM      1  F   UNL     1      36.462 -21.047 -19.176  0.00  0.00    -0.204 F 
ATOM      2  C   UNL     1      33.393 -22.882 -17.111  0.00  0.00    +0.007 C 
ATOM      3  C   UNL     1      34.662 -22.800 -16.538  0.00  0.00    -0.004 C 
ATOM      4  C   UNL     1      33.161 -22.346 -18.376  0.00  0.00    +0.000 C 
ATOM      5  C   UNL     1      35.701 -22.181 -17.233  0.00  0.00    +0.010 C 
ATOM      6  C   UNL     1      34.200 -21.726 -19.071  0.00  0.00    +0.029 C 
ATOM      7  C   UNL     1      35.470 -21.644 -18.500  0.00  0.00    +0.136 C 
ENDROOT
BRANCH   2  12
ATOM      8  O   UNL     1      31.061 -22.835 -16.642  0.00  0.00    -0.347 OA
ATOM      9  C   UNL     1      32.530 -23.596 -14.843  0.00  0.00    +0.171 C 
ATOM     10  C   UNL     1      31.310 -24.132 -14.088  0.00  0.00    +0.169 C 
ATOM     11  C   UNL     1      30.027 -23.429 -14.531  0.00  0.00    +0.169 C 
ATOM     12  C   UNL     1      32.265 -23.554 -16.356  0.00  0.00    +0.167 C 
ATOM     13  C   UNL     1      29.905 -23.435 -16.056  0.00  0.00    +0.174 C 
BRANCH   9  14
ATOM     14  O   UNL     1      33.642 -24.456 -14.598  0.00  0.00    -0.379 OA
ATOM     15  H   UNL     1      34.382 -23.937 -14.247  0.00  0.00    +0.211 HD
ENDBRANCH   9  14
BRANCH  10  16
ATOM     16  O   UNL     1      31.479 -23.901 -12.688  0.00  0.00    -0.379 OA
ATOM     17  H   UNL     1      32.328 -24.268 -12.399  0.00  0.00    +0.211 HD
ENDBRANCH  10  16
BRANCH  11  18
ATOM     18  O   UNL     1      28.904 -24.098 -13.966  0.00  0.00    -0.379 OA
ATOM     19  H   UNL     1      28.369 -23.465 -13.463  0.00  0.00    +0.211 HD
ENDBRANCH  11  18
BRANCH  13  20
ATOM     20  C   UNL     1      28.689 -22.643 -16.528  0.00  0.00    +0.169 C 
BRANCH  20  21
ATOM     21  O   UNL     1      27.872 -23.496 -17.310  0.00  0.00    -0.379 OA
ATOM     22  H   UNL     1      26.944 -23.230 -17.215  0.00  0.00    +0.211 HD
ENDBRANCH  20  21
ENDBRANCH  13  20
ENDBRANCH   2  12
BRANCH   5  23
ATOM     23  C   UNL     1      37.057 -22.095 -16.619  0.00  0.00    +0.061 C 
BRANCH  23  25
ATOM     24  S   UNL     1      38.275 -24.008 -15.058  0.00  0.00    -0.091 S 
ATOM     25  C   UNL     1      37.151 -22.766 -15.264  0.00  0.00    +0.012 C 
ATOM     26  C   UNL     1      36.423 -22.486 -14.160  0.00  0.00    +0.003 C 
ATOM     27  C   UNL     1      36.787 -23.327 -13.057  0.00  0.00    +0.006 C 
ATOM     28  C   UNL     1      37.803 -24.219 -13.413  0.00  0.00    +0.029 C 
ATOM     29  C   UNL     1      36.288 -23.376 -11.732  0.00  0.00    +0.001 C 
ATOM     30  C   UNL     1      38.325 -25.148 -12.491  0.00  0.00    +0.006 C 
ATOM     31  C   UNL     1      36.805 -24.296 -10.816  0.00  0.00    +0.000 C 
ATOM     32  C   UNL     1      37.813 -25.172 -11.193  0.00  0.00    +0.001 C 
ENDBRANCH  23  25
ENDBRANCH   5  23
TORSDOF 8
ENDMDL
