MODEL 1
REMARK VINA RESULT:     -11.4      0.000      0.000
REMARK  Name = 54689025
REMARK  9 active torsions:
REMARK  status: ('A' for Active; 'I' for Inactive)
REMARK    1  A    between atoms: C_1  and  C_21
REMARK    2  A    between atoms: C_4  and  N_8
REMARK    3  A    between atoms: C_9  and  C_11
REMARK    4  A    between atoms: C_11  and  N_13
REMARK    5  A    between atoms: C_14  and  O_16
REMARK    6  A    between atoms: O_16  and  C_17
REMARK    7  A    between atoms: C_21  and  C_24
REMARK    8  A    between atoms: C_21  and  C_35
REMARK    9  A    between atoms: C_25  and  O_33
REMARK                            x       y       z     vdW  Elec       q    Type
REMARK                         _______ _______ _______ _____ _____    ______ ____
ROOT
ATOM      1  C   UNL     1      35.102 -16.639 -21.799  0.00  0.00    -0.017 C 
ATOM      2  C   UNL     1      34.904 -15.565 -22.666  0.00  0.00    +0.011 C 
ATOM      3  C   UNL     1      34.962 -16.460 -20.423  0.00  0.00    -0.004 C 
ATOM      4  C   UNL     1      34.564 -14.312 -22.158  0.00  0.00    +0.050 C 
ATOM      5  C   UNL     1      34.624 -15.206 -19.914  0.00  0.00    +0.001 C 
ATOM      6  C   UNL     1      34.424 -14.132 -20.781  0.00  0.00    +0.015 C 
ENDROOT
BRANCH   4   8
ATOM      7  O   UNL     1      32.081 -12.733 -22.766  0.00  0.00    -0.273 OA
ATOM      8  N   UNL     1      34.365 -13.236 -23.025  0.00  0.00    -0.283 N 
ATOM      9  C   UNL     1      33.178 -12.529 -23.275  0.00  0.00    +0.246 C 
ATOM     10  H   UNL     1      35.159 -12.934 -23.523  0.00  0.00    +0.155 HD
BRANCH   9  11
ATOM     11  C   UNL     1      33.407 -11.427 -24.293  0.00  0.00    +0.179 C 
BRANCH  11  13
ATOM     12  O   UNL     1      31.752  -9.400 -23.030  0.00  0.00    -0.226 OA
ATOM     13  N   UNL     1      33.836 -10.224 -23.639  0.00  0.00    -0.262 N 
ATOM     14  C   UNL     1      32.976  -9.307 -23.060  0.00  0.00    +0.402 C 
ATOM     15  H   UNL     1      34.802 -10.040 -23.600  0.00  0.00    +0.153 HD
BRANCH  14  16
ATOM     16  O   UNL     1      33.688  -8.272 -22.520  0.00  0.00    -0.442 OA
BRANCH  16  17
ATOM     17  C   UNL     1      33.657  -7.044 -23.256  0.00  0.00    +0.138 C 
ATOM     18  C   UNL     1      35.092  -6.652 -23.608  0.00  0.00    +0.044 C 
ATOM     19  C   UNL     1      33.016  -5.987 -22.358  0.00  0.00    +0.044 C 
ATOM     20  C   UNL     1      32.824  -7.254 -24.519  0.00  0.00    +0.044 C 
ENDBRANCH  16  17
ENDBRANCH  14  16
ENDBRANCH  11  13
ENDBRANCH   9  11
ENDBRANCH   4   8
BRANCH   1  21
ATOM     21  C   UNL     1      35.471 -18.003 -22.353  0.00  0.00    +0.054 C 
BRANCH  21  24
ATOM     22  O   UNL     1      36.934 -20.233 -19.666  0.00  0.00    -0.421 OA
ATOM     23  O   UNL     1      37.831 -18.669 -21.053  0.00  0.00    -0.245 OA
ATOM     24  C   UNL     1      35.489 -19.040 -21.262  0.00  0.00    +0.091 A 
ATOM     25  C   UNL     1      34.419 -19.726 -20.815  0.00  0.00    +0.139 A 
ATOM     26  C   UNL     1      36.838 -19.281 -20.673  0.00  0.00    +0.345 A 
ATOM     27  C   UNL     1      34.556 -20.722 -19.751  0.00  0.00    +0.068 A 
ATOM     28  C   UNL     1      35.815 -20.948 -19.206  0.00  0.00    +0.152 A 
ATOM     29  C   UNL     1      33.481 -21.469 -19.247  0.00  0.00    +0.006 C 
ATOM     30  C   UNL     1      36.031 -21.880 -18.190  0.00  0.00    +0.038 C 
ATOM     31  C   UNL     1      33.681 -22.407 -18.228  0.00  0.00    +0.000 C 
ATOM     32  C   UNL     1      34.955 -22.613 -17.702  0.00  0.00    +0.003 C 
BRANCH  25  33
ATOM     33  O   UNL     1      33.134 -19.568 -21.290  0.00  0.00    -0.506 OA
ATOM     34  H   UNL     1      32.913 -18.817 -21.805  0.00  0.00    +0.292 HD
ENDBRANCH  25  33
ENDBRANCH  21  24
BRANCH  21  35
ATOM     35  C   UNL     1      34.560 -18.471 -23.507  0.00  0.00    +0.009 C 
ATOM     36  C   UNL     1      35.009 -19.793 -24.120  0.00  0.00    +0.001 C 
ENDBRANCH  21  35
ENDBRANCH   1  21
TORSDOF 9
ENDMDL
MODEL 2
REMARK VINA RESULT:     -10.8      4.834     11.826
REMARK  Name = 54689025
REMARK  9 active torsions:
REMARK  status: ('A' for Active; 'I' for Inactive)
REMARK    1  A    between atoms: C_1  and  C_21
REMARK    2  A    between atoms: C_4  and  N_8
REMARK    3  A    between atoms: C_9  and  C_11
REMARK    4  A    between atoms: C_11  and  N_13
REMARK    5  A    between atoms: C_14  and  O_16
REMARK    6  A    between atoms: O_16  and  C_17
REMARK    7  A    between atoms: C_21  and  C_24
REMARK    8  A    between atoms: C_21  and  C_35
REMARK    9  A    between atoms: C_25  and  O_33
REMARK                            x       y       z     vdW  Elec       q    Type
REMARK                         _______ _______ _______ _____ _____    ______ ____
ROOT
ATOM      1  C   UNL     1      34.755 -20.166 -20.579  0.00  0.00    -0.017 C 
ATOM      2  C   UNL     1      35.098 -20.995 -19.512  0.00  0.00    +0.011 C 
ATOM      3  C   UNL     1      33.414 -19.888 -20.844  0.00  0.00    -0.004 C 
ATOM      4  C   UNL     1      34.101 -21.546 -18.708  0.00  0.00    +0.050 C 
ATOM      5  C   UNL     1      32.416 -20.440 -20.040  0.00  0.00    +0.001 C 
ATOM      6  C   UNL     1      32.760 -21.268 -18.972  0.00  0.00    +0.015 C 
ENDROOT
BRANCH   4   8
ATOM      7  O   UNL     1      36.573 -21.604 -17.002  0.00  0.00    -0.273 OA
ATOM      8  N   UNL     1      34.444 -22.377 -17.640  0.00  0.00    -0.283 N 
ATOM      9  C   UNL     1      35.619 -22.364 -16.871  0.00  0.00    +0.246 C 
ATOM     10  H   UNL     1      33.776 -23.058 -17.394  0.00  0.00    +0.155 HD
BRANCH   9  11
ATOM     11  C   UNL     1      35.581 -23.442 -15.804  0.00  0.00    +0.179 C 
BRANCH  11  13
ATOM     12  O   UNL     1      36.646 -23.473 -13.101  0.00  0.00    -0.226 OA
ATOM     13  N   UNL     1      36.911 -23.779 -15.387  0.00  0.00    -0.262 N 
ATOM     14  C   UNL     1      37.339 -23.768 -14.070  0.00  0.00    +0.402 C 
ATOM     15  H   UNL     1      37.561 -24.035 -16.081  0.00  0.00    +0.153 HD
BRANCH  14  16
ATOM     16  O   UNL     1      38.653 -24.136 -14.001  0.00  0.00    -0.442 OA
BRANCH  16  17
ATOM     17  C   UNL     1      38.901 -25.501 -13.644  0.00  0.00    +0.138 C 
ATOM     18  C   UNL     1      38.620 -25.673 -12.152  0.00  0.00    +0.044 C 
ATOM     19  C   UNL     1      40.367 -25.798 -13.954  0.00  0.00    +0.044 C 
ATOM     20  C   UNL     1      37.984 -26.395 -14.478  0.00  0.00    +0.044 C 
ENDBRANCH  16  17
ENDBRANCH  14  16
ENDBRANCH  11  13
ENDBRANCH   9  11
ENDBRANCH   4   8
BRANCH   1  21
ATOM     21  C   UNL     1      35.841 -19.566 -21.454  0.00  0.00    +0.054 C 
BRANCH  21  24
ATOM     22  O   UNL     1      34.414 -17.787 -24.476  0.00  0.00    -0.421 OA
ATOM     23  O   UNL     1      35.016 -19.944 -24.077  0.00  0.00    -0.245 OA
ATOM     24  C   UNL     1      35.303 -18.421 -22.269  0.00  0.00    +0.091 A 
ATOM     25  C   UNL     1      35.167 -17.151 -21.843  0.00  0.00    +0.139 A 
ATOM     26  C   UNL     1      34.911 -18.794 -23.659  0.00  0.00    +0.345 A 
ATOM     27  C   UNL     1      34.640 -16.112 -22.730  0.00  0.00    +0.068 A 
ATOM     28  C   UNL     1      34.278 -16.462 -24.026  0.00  0.00    +0.152 A 
ATOM     29  C   UNL     1      34.479 -14.773 -22.345  0.00  0.00    +0.006 C 
ATOM     30  C   UNL     1      33.768 -15.533 -24.935  0.00  0.00    +0.038 C 
ATOM     31  C   UNL     1      33.968 -13.829 -23.243  0.00  0.00    +0.000 C 
ATOM     32  C   UNL     1      33.615 -14.209 -24.537  0.00  0.00    +0.003 C 
BRANCH  25  33
ATOM     33  O   UNL     1      35.494 -16.710 -20.578  0.00  0.00    -0.506 OA
ATOM     34  H   UNL     1      35.118 -17.123 -19.826  0.00  0.00    +0.292 HD
ENDBRANCH  25  33
ENDBRANCH  21  24
BRANCH  21  35
ATOM     35  C   UNL     1      37.088 -19.110 -20.668  0.00  0.00    +0.009 C 
ATOM     36  C   UNL     1      38.248 -18.711 -21.574  0.00  0.00    +0.001 C 
ENDBRANCH  21  35
ENDBRANCH   1  21
TORSDOF 9
ENDMDL
MODEL 3
REMARK VINA RESULT:     -10.7      4.885     11.587
REMARK  Name = 54689025
REMARK  9 active torsions:
REMARK  status: ('A' for Active; 'I' for Inactive)
REMARK    1  A    between atoms: C_1  and  C_21
REMARK    2  A    between atoms: C_4  and  N_8
REMARK    3  A    between atoms: C_9  and  C_11
REMARK    4  A    between atoms: C_11  and  N_13
REMARK    5  A    between atoms: C_14  and  O_16
REMARK    6  A    between atoms: O_16  and  C_17
REMARK    7  A    between atoms: C_21  and  C_24
REMARK    8  A    between atoms: C_21  and  C_35
REMARK    9  A    between atoms: C_25  and  O_33
REMARK                            x       y       z     vdW  Elec       q    Type
REMARK                         _______ _______ _______ _____ _____    ______ ____
ROOT
ATOM      1  C   UNL     1      34.743 -20.168 -20.556  0.00  0.00    -0.017 C 
ATOM      2  C   UNL     1      35.067 -21.137 -19.608  0.00  0.00    +0.011 C 
ATOM      3  C   UNL     1      33.420 -19.750 -20.702  0.00  0.00    -0.004 C 
ATOM      4  C   UNL     1      34.070 -21.688 -18.804  0.00  0.00    +0.050 C 
ATOM      5  C   UNL     1      32.422 -20.302 -19.899  0.00  0.00    +0.001 C 
ATOM      6  C   UNL     1      32.747 -21.271 -18.950  0.00  0.00    +0.015 C 
ENDROOT
BRANCH   4   8
ATOM      7  O   UNL     1      32.492 -22.733 -16.470  0.00  0.00    -0.273 OA
ATOM      8  N   UNL     1      34.394 -22.659 -17.855  0.00  0.00    -0.283 N 
ATOM      9  C   UNL     1      33.617 -23.113 -16.777  0.00  0.00    +0.246 C 
ATOM     10  H   UNL     1      35.279 -23.079 -17.955  0.00  0.00    +0.155 HD
BRANCH   9  11
ATOM     11  C   UNL     1      34.353 -24.184 -15.991  0.00  0.00    +0.179 C 
BRANCH  11  13
ATOM     12  O   UNL     1      36.915 -25.119 -14.991  0.00  0.00    -0.226 OA
ATOM     13  N   UNL     1      35.172 -23.585 -14.978  0.00  0.00    -0.262 N 
ATOM     14  C   UNL     1      36.388 -24.099 -14.557  0.00  0.00    +0.402 C 
ATOM     15  H   UNL     1      34.850 -22.757 -14.554  0.00  0.00    +0.153 HD
BRANCH  14  16
ATOM     16  O   UNL     1      36.922 -23.303 -13.583  0.00  0.00    -0.442 OA
BRANCH  16  17
ATOM     17  C   UNL     1      37.066 -23.908 -12.293  0.00  0.00    +0.138 C 
ATOM     18  C   UNL     1      35.794 -24.694 -11.980  0.00  0.00    +0.044 C 
ATOM     19  C   UNL     1      37.267 -22.783 -11.279  0.00  0.00    +0.044 C 
ATOM     20  C   UNL     1      38.283 -24.830 -12.322  0.00  0.00    +0.044 C 
ENDBRANCH  16  17
ENDBRANCH  14  16
ENDBRANCH  11  13
ENDBRANCH   9  11
ENDBRANCH   4   8
BRANCH   1  21
ATOM     21  C   UNL     1      35.829 -19.567 -21.430  0.00  0.00    +0.054 C 
BRANCH  21  24
ATOM     22  O   UNL     1      34.400 -17.791 -24.452  0.00  0.00    -0.421 OA
ATOM     23  O   UNL     1      34.999 -19.948 -24.051  0.00  0.00    -0.245 OA
ATOM     24  C   UNL     1      35.291 -18.423 -22.246  0.00  0.00    +0.091 A 
ATOM     25  C   UNL     1      35.157 -17.152 -21.822  0.00  0.00    +0.139 A 
ATOM     26  C   UNL     1      34.896 -18.798 -23.635  0.00  0.00    +0.345 A 
ATOM     27  C   UNL     1      34.630 -16.114 -22.709  0.00  0.00    +0.068 A 
ATOM     28  C   UNL     1      34.265 -16.466 -24.005  0.00  0.00    +0.152 A 
ATOM     29  C   UNL     1      34.471 -14.775 -22.325  0.00  0.00    +0.006 C 
ATOM     30  C   UNL     1      33.755 -15.537 -24.914  0.00  0.00    +0.038 C 
ATOM     31  C   UNL     1      33.960 -13.831 -23.224  0.00  0.00    +0.000 C 
ATOM     32  C   UNL     1      33.604 -14.213 -24.517  0.00  0.00    +0.003 C 
BRANCH  25  33
ATOM     33  O   UNL     1      35.487 -16.710 -20.557  0.00  0.00    -0.506 OA
ATOM     34  H   UNL     1      34.986 -16.030 -20.153  0.00  0.00    +0.292 HD
ENDBRANCH  25  33
ENDBRANCH  21  24
BRANCH  21  35
ATOM     35  C   UNL     1      37.075 -19.111 -20.644  0.00  0.00    +0.009 C 
ATOM     36  C   UNL     1      38.236 -18.712 -21.549  0.00  0.00    +0.001 C 
ENDBRANCH  21  35
ENDBRANCH   1  21
TORSDOF 9
ENDMDL
MODEL 4
REMARK VINA RESULT:     -10.5      4.908     11.179
REMARK  Name = 54689025
REMARK  9 active torsions:
REMARK  status: ('A' for Active; 'I' for Inactive)
REMARK    1  A    between atoms: C_1  and  C_21
REMARK    2  A    between atoms: C_4  and  N_8
REMARK    3  A    between atoms: C_9  and  C_11
REMARK    4  A    between atoms: C_11  and  N_13
REMARK    5  A    between atoms: C_14  and  O_16
REMARK    6  A    between atoms: O_16  and  C_17
REMARK    7  A    between atoms: C_21  and  C_24
REMARK    8  A    between atoms: C_21  and  C_35
REMARK    9  A    between atoms: C_25  and  O_33
REMARK                            x       y       z     vdW  Elec       q    Type
REMARK                         _______ _______ _______ _____ _____    ______ ____
ROOT
ATOM      1  C   UNL     1      34.915 -20.236 -20.462  0.00  0.00    -0.017 C 
ATOM      2  C   UNL     1      35.311 -21.093 -19.435  0.00  0.00    +0.011 C 
ATOM      3  C   UNL     1      33.563 -19.952 -20.651  0.00  0.00    -0.004 C 
ATOM      4  C   UNL     1      34.354 -21.664 -18.595  0.00  0.00    +0.050 C 
ATOM      5  C   UNL     1      32.606 -20.524 -19.813  0.00  0.00    +0.001 C 
ATOM      6  C   UNL     1      33.002 -21.379 -18.785  0.00  0.00    +0.015 C 
ENDROOT
BRANCH   4   8
ATOM      7  O   UNL     1      36.439 -21.314 -16.460  0.00  0.00    -0.273 OA
ATOM      8  N   UNL     1      34.749 -22.522 -17.568  0.00  0.00    -0.283 N 
ATOM      9  C   UNL     1      35.735 -22.310 -16.590  0.00  0.00    +0.246 C 
ATOM     10  H   UNL     1      34.276 -23.384 -17.522  0.00  0.00    +0.155 HD
BRANCH   9  11
ATOM     11  C   UNL     1      35.842 -23.505 -15.660  0.00  0.00    +0.179 C 
BRANCH  11  13
ATOM     12  O   UNL     1      34.419 -23.784 -13.143  0.00  0.00    -0.226 OA
ATOM     13  N   UNL     1      34.549 -24.085 -15.441  0.00  0.00    -0.262 N 
ATOM     14  C   UNL     1      33.940 -24.179 -14.201  0.00  0.00    +0.402 C 
ATOM     15  H   UNL     1      34.064 -24.439 -16.221  0.00  0.00    +0.153 HD
BRANCH  14  16
ATOM     16  O   UNL     1      32.718 -24.779 -14.323  0.00  0.00    -0.442 OA
BRANCH  16  17
ATOM     17  C   UNL     1      31.592 -23.896 -14.370  0.00  0.00    +0.138 C 
ATOM     18  C   UNL     1      31.610 -23.017 -13.120  0.00  0.00    +0.044 C 
ATOM     19  C   UNL     1      30.332 -24.759 -14.401  0.00  0.00    +0.044 C 
ATOM     20  C   UNL     1      31.693 -23.045 -15.635  0.00  0.00    +0.044 C 
ENDBRANCH  16  17
ENDBRANCH  14  16
ENDBRANCH  11  13
ENDBRANCH   9  11
ENDBRANCH   4   8
BRANCH   1  21
ATOM     21  C   UNL     1      35.957 -19.614 -21.374  0.00  0.00    +0.054 C 
BRANCH  21  24
ATOM     22  O   UNL     1      34.384 -17.898 -24.359  0.00  0.00    -0.421 OA
ATOM     23  O   UNL     1      35.052 -20.036 -23.964  0.00  0.00    -0.245 OA
ATOM     24  C   UNL     1      35.363 -18.490 -22.180  0.00  0.00    +0.091 A 
ATOM     25  C   UNL     1      35.210 -17.220 -21.759  0.00  0.00    +0.139 A 
ATOM     26  C   UNL     1      34.932 -18.885 -23.552  0.00  0.00    +0.345 A 
ATOM     27  C   UNL     1      34.627 -16.202 -22.636  0.00  0.00    +0.068 A 
ATOM     28  C   UNL     1      34.229 -16.573 -23.916  0.00  0.00    +0.152 A 
ATOM     29  C   UNL     1      34.445 -14.865 -22.256  0.00  0.00    +0.006 C 
ATOM     30  C   UNL     1      33.666 -15.665 -24.814  0.00  0.00    +0.038 C 
ATOM     31  C   UNL     1      33.881 -13.942 -23.144  0.00  0.00    +0.000 C 
ATOM     32  C   UNL     1      33.494 -14.342 -24.421  0.00  0.00    +0.003 C 
BRANCH  25  33
ATOM     33  O   UNL     1      35.569 -16.760 -20.510  0.00  0.00    -0.506 OA
ATOM     34  H   UNL     1      34.945 -16.765 -19.811  0.00  0.00    +0.292 HD
ENDBRANCH  25  33
ENDBRANCH  21  24
BRANCH  21  35
ATOM     35  C   UNL     1      37.215 -19.119 -20.631  0.00  0.00    +0.009 C 
ATOM     36  C   UNL     1      38.333 -18.690 -21.576  0.00  0.00    +0.001 C 
ENDBRANCH  21  35
ENDBRANCH   1  21
TORSDOF 9
ENDMDL
MODEL 5
REMARK VINA RESULT:     -10.0      2.018     10.669
REMARK  Name = 54689025
REMARK  9 active torsions:
REMARK  status: ('A' for Active; 'I' for Inactive)
REMARK    1  A    between atoms: C_1  and  C_21
REMARK    2  A    between atoms: C_4  and  N_8
REMARK    3  A    between atoms: C_9  and  C_11
REMARK    4  A    between atoms: C_11  and  N_13
REMARK    5  A    between atoms: C_14  and  O_16
REMARK    6  A    between atoms: O_16  and  C_17
REMARK    7  A    between atoms: C_21  and  C_24
REMARK    8  A    between atoms: C_21  and  C_35
REMARK    9  A    between atoms: C_25  and  O_33
REMARK                            x       y       z     vdW  Elec       q    Type
REMARK                         _______ _______ _______ _____ _____    ______ ____
ROOT
ATOM      1  C   UNL     1      32.997 -13.462 -22.161  0.00  0.00    -0.017 C 
ATOM      2  C   UNL     1      33.924 -14.502 -22.221  0.00  0.00    +0.011 C 
ATOM      3  C   UNL     1      32.394 -13.133 -20.947  0.00  0.00    -0.004 C 
ATOM      4  C   UNL     1      34.249 -15.214 -21.067  0.00  0.00    +0.050 C 
ATOM      5  C   UNL     1      32.718 -13.846 -19.792  0.00  0.00    +0.001 C 
ATOM      6  C   UNL     1      33.646 -14.886 -19.852  0.00  0.00    +0.015 C 
ENDROOT
BRANCH   4   8
ATOM      7  O   UNL     1      34.809 -17.199 -23.252  0.00  0.00    -0.273 OA
ATOM      8  N   UNL     1      35.175 -16.256 -21.126  0.00  0.00    -0.283 N 
ATOM      9  C   UNL     1      35.399 -17.161 -22.176  0.00  0.00    +0.246 C 
ATOM     10  H   UNL     1      35.745 -16.370 -20.331  0.00  0.00    +0.155 HD
BRANCH   9  11
ATOM     11  C   UNL     1      36.506 -18.138 -21.824  0.00  0.00    +0.179 C 
BRANCH  11  13
ATOM     12  O   UNL     1      34.469 -20.169 -21.418  0.00  0.00    -0.226 OA
ATOM     13  N   UNL     1      36.190 -18.836 -20.612  0.00  0.00    -0.262 N 
ATOM     14  C   UNL     1      35.198 -19.796 -20.504  0.00  0.00    +0.402 C 
ATOM     15  H   UNL     1      36.712 -18.619 -19.806  0.00  0.00    +0.153 HD
BRANCH  14  16
ATOM     16  O   UNL     1      35.144 -20.273 -19.224  0.00  0.00    -0.442 OA
BRANCH  16  17
ATOM     17  C   UNL     1      35.646 -21.600 -19.032  0.00  0.00    +0.138 C 
ATOM     18  C   UNL     1      34.470 -22.574 -19.057  0.00  0.00    +0.044 C 
ATOM     19  C   UNL     1      36.344 -21.634 -17.673  0.00  0.00    +0.044 C 
ATOM     20  C   UNL     1      36.637 -21.911 -20.153  0.00  0.00    +0.044 C 
ENDBRANCH  16  17
ENDBRANCH  14  16
ENDBRANCH  11  13
ENDBRANCH   9  11
ENDBRANCH   4   8
BRANCH   1  21
ATOM     21  C   UNL     1      32.645 -12.686 -23.418  0.00  0.00    +0.054 C 
BRANCH  21  24
ATOM     22  O   UNL     1      31.744  -9.143 -22.435  0.00  0.00    -0.421 OA
ATOM     23  O   UNL     1      30.610 -11.114 -22.373  0.00  0.00    -0.245 OA
ATOM     24  C   UNL     1      32.837 -11.208 -23.210  0.00  0.00    +0.091 A 
ATOM     25  C   UNL     1      33.958 -10.517 -23.490  0.00  0.00    +0.139 A 
ATOM     26  C   UNL     1      31.644 -10.512 -22.646  0.00  0.00    +0.345 A 
ATOM     27  C   UNL     1      34.030  -9.073 -23.256  0.00  0.00    +0.068 A 
ATOM     28  C   UNL     1      32.915  -8.426 -22.733  0.00  0.00    +0.152 A 
ATOM     29  C   UNL     1      35.166  -8.300 -23.531  0.00  0.00    +0.006 C 
ATOM     30  C   UNL     1      32.900  -7.053 -22.481  0.00  0.00    +0.038 C 
ATOM     31  C   UNL     1      35.169  -6.922 -23.283  0.00  0.00    +0.000 C 
ATOM     32  C   UNL     1      34.036  -6.300 -22.760  0.00  0.00    +0.003 C 
BRANCH  25  33
ATOM     33  O   UNL     1      35.111 -11.070 -24.005  0.00  0.00    -0.506 OA
ATOM     34  H   UNL     1      35.943 -10.851 -23.634  0.00  0.00    +0.292 HD
ENDBRANCH  25  33
ENDBRANCH  21  24
BRANCH  21  35
ATOM     35  C   UNL     1      33.422 -13.146 -24.668  0.00  0.00    +0.009 C 
ATOM     36  C   UNL     1      32.950 -14.495 -25.199  0.00  0.00    +0.001 C 
ENDBRANCH  21  35
ENDBRANCH   1  21
TORSDOF 9
ENDMDL
MODEL 6
REMARK VINA RESULT:      -9.7      4.322     11.297
REMARK  Name = 54689025
REMARK  9 active torsions:
REMARK  status: ('A' for Active; 'I' for Inactive)
REMARK    1  A    between atoms: C_1  and  C_21
REMARK    2  A    between atoms: C_4  and  N_8
REMARK    3  A    between atoms: C_9  and  C_11
REMARK    4  A    between atoms: C_11  and  N_13
REMARK    5  A    between atoms: C_14  and  O_16
REMARK    6  A    between atoms: O_16  and  C_17
REMARK    7  A    between atoms: C_21  and  C_24
REMARK    8  A    between atoms: C_21  and  C_35
REMARK    9  A    between atoms: C_25  and  O_33
REMARK                            x       y       z     vdW  Elec       q    Type
REMARK                         _______ _______ _______ _____ _____    ______ ____
ROOT
ATOM      1  C   UNL     1      34.863 -19.685 -21.330  0.00  0.00    -0.017 C 
ATOM      2  C   UNL     1      35.611 -20.429 -20.418  0.00  0.00    +0.011 C 
ATOM      3  C   UNL     1      33.477 -19.604 -21.195  0.00  0.00    -0.004 C 
ATOM      4  C   UNL     1      34.974 -21.091 -19.369  0.00  0.00    +0.050 C 
ATOM      5  C   UNL     1      32.840 -20.268 -20.146  0.00  0.00    +0.001 C 
ATOM      6  C   UNL     1      33.588 -21.011 -19.234  0.00  0.00    +0.015 C 
ENDROOT
BRANCH   4   8
ATOM      7  O   UNL     1      36.974 -20.207 -17.309  0.00  0.00    -0.273 OA
ATOM      8  N   UNL     1      35.722 -21.836 -18.456  0.00  0.00    -0.283 N 
ATOM      9  C   UNL     1      36.649 -21.373 -17.509  0.00  0.00    +0.246 C 
ATOM     10  H   UNL     1      35.580 -22.811 -18.478  0.00  0.00    +0.155 HD
BRANCH   9  11
ATOM     11  C   UNL     1      37.236 -22.525 -16.714  0.00  0.00    +0.179 C 
BRANCH  11  13
ATOM     12  O   UNL     1      35.931 -24.580 -15.129  0.00  0.00    -0.226 OA
ATOM     13  N   UNL     1      36.824 -22.448 -15.343  0.00  0.00    -0.262 N 
ATOM     14  C   UNL     1      36.204 -23.480 -14.658  0.00  0.00    +0.402 C 
ATOM     15  H   UNL     1      36.992 -21.608 -14.858  0.00  0.00    +0.153 HD
BRANCH  14  16
ATOM     16  O   UNL     1      35.939 -23.098 -13.374  0.00  0.00    -0.442 OA
BRANCH  16  17
ATOM     17  C   UNL     1      36.653 -23.803 -12.353  0.00  0.00    +0.138 C 
ATOM     18  C   UNL     1      37.849 -24.506 -12.993  0.00  0.00    +0.044 C 
ATOM     19  C   UNL     1      35.693 -24.823 -11.742  0.00  0.00    +0.044 C 
ATOM     20  C   UNL     1      37.112 -22.798 -11.298  0.00  0.00    +0.044 C 
ENDBRANCH  16  17
ENDBRANCH  14  16
ENDBRANCH  11  13
ENDBRANCH   9  11
ENDBRANCH   4   8
BRANCH   1  21
ATOM     21  C   UNL     1      35.558 -18.963 -22.471  0.00  0.00    +0.054 C 
BRANCH  21  24
ATOM     22  O   UNL     1      33.988 -16.002 -24.232  0.00  0.00    -0.421 OA
ATOM     23  O   UNL     1      34.512 -18.114 -24.897  0.00  0.00    -0.245 OA
ATOM     24  C   UNL     1      35.015 -17.569 -22.635  0.00  0.00    +0.091 A 
ATOM     25  C   UNL     1      34.976 -16.625 -21.675  0.00  0.00    +0.139 A 
ATOM     26  C   UNL     1      34.496 -17.274 -24.002  0.00  0.00    +0.345 A 
ATOM     27  C   UNL     1      34.433 -15.294 -21.951  0.00  0.00    +0.068 A 
ATOM     28  C   UNL     1      33.953 -15.021 -23.227  0.00  0.00    +0.152 A 
ATOM     29  C   UNL     1      34.369 -14.270 -20.994  0.00  0.00    +0.006 C 
ATOM     30  C   UNL     1      33.421 -13.777 -23.573  0.00  0.00    +0.038 C 
ATOM     31  C   UNL     1      33.837 -13.018 -21.324  0.00  0.00    +0.000 C 
ATOM     32  C   UNL     1      33.365 -12.773 -22.612  0.00  0.00    +0.003 C 
BRANCH  25  33
ATOM     33  O   UNL     1      35.423 -16.804 -20.382  0.00  0.00    -0.506 OA
ATOM     34  H   UNL     1      36.342 -16.843 -20.205  0.00  0.00    +0.292 HD
ENDBRANCH  25  33
ENDBRANCH  21  24
BRANCH  21  35
ATOM     35  C   UNL     1      37.093 -18.916 -22.331  0.00  0.00    +0.009 C 
ATOM     36  C   UNL     1      37.556 -18.864 -20.879  0.00  0.00    +0.001 C 
ENDBRANCH  21  35
ENDBRANCH   1  21
TORSDOF 9
ENDMDL
MODEL 7
REMARK VINA RESULT:      -9.4      2.327     11.673
REMARK  Name = 54689025
REMARK  9 active torsions:
REMARK  status: ('A' for Active; 'I' for Inactive)
REMARK    1  A    between atoms: C_1  and  C_21
REMARK    2  A    between atoms: C_4  and  N_8
REMARK    3  A    between atoms: C_9  and  C_11
REMARK    4  A    between atoms: C_11  and  N_13
REMARK    5  A    between atoms: C_14  and  O_16
REMARK    6  A    between atoms: O_16  and  C_17
REMARK    7  A    between atoms: C_21  and  C_24
REMARK    8  A    between atoms: C_21  and  C_35
REMARK    9  A    between atoms: C_25  and  O_33
REMARK                            x       y       z     vdW  Elec       q    Type
REMARK                         _______ _______ _______ _____ _____    ______ ____
ROOT
ATOM      1  C   UNL     1      33.039  -9.909 -22.523  0.00  0.00    -0.017 C 
ATOM      2  C   UNL     1      33.061 -11.266 -22.845  0.00  0.00    +0.011 C 
ATOM      3  C   UNL     1      34.002  -9.050 -23.052  0.00  0.00    -0.004 C 
ATOM      4  C   UNL     1      34.046 -11.764 -23.698  0.00  0.00    +0.050 C 
ATOM      5  C   UNL     1      34.988  -9.549 -23.904  0.00  0.00    +0.001 C 
ATOM      6  C   UNL     1      35.010 -10.905 -24.227  0.00  0.00    +0.015 C 
ENDROOT
BRANCH   4   8
ATOM      7  O   UNL     1      34.869 -14.142 -22.056  0.00  0.00    -0.273 OA
ATOM      8  N   UNL     1      34.069 -13.122 -24.021  0.00  0.00    -0.283 N 
ATOM      9  C   UNL     1      34.465 -14.200 -23.213  0.00  0.00    +0.246 C 
ATOM     10  H   UNL     1      33.769 -13.352 -24.930  0.00  0.00    +0.155 HD
BRANCH   9  11
ATOM     11  C   UNL     1      34.332 -15.515 -23.960  0.00  0.00    +0.179 C 
BRANCH  11  13
ATOM     12  O   UNL     1      34.037 -18.402 -24.094  0.00  0.00    -0.226 OA
ATOM     13  N   UNL     1      35.175 -16.513 -23.368  0.00  0.00    -0.262 N 
ATOM     14  C   UNL     1      34.961 -17.876 -23.481  0.00  0.00    +0.402 C 
ATOM     15  H   UNL     1      35.955 -16.209 -22.849  0.00  0.00    +0.153 HD
BRANCH  14  16
ATOM     16  O   UNL     1      35.935 -18.561 -22.809  0.00  0.00    -0.442 OA
BRANCH  16  17
ATOM     17  C   UNL     1      35.737 -18.701 -21.398  0.00  0.00    +0.138 C 
ATOM     18  C   UNL     1      35.204 -17.379 -20.848  0.00  0.00    +0.044 C 
ATOM     19  C   UNL     1      37.092 -19.035 -20.776  0.00  0.00    +0.044 C 
ATOM     20  C   UNL     1      34.741 -19.833 -21.156  0.00  0.00    +0.044 C 
ENDBRANCH  16  17
ENDBRANCH  14  16
ENDBRANCH  11  13
ENDBRANCH   9  11
ENDBRANCH   4   8
BRANCH   1  21
ATOM     21  C   UNL     1      31.966  -9.367 -21.596  0.00  0.00    +0.054 C 
BRANCH  21  24
ATOM     22  O   UNL     1      32.058  -5.688 -20.708  0.00  0.00    -0.421 OA
ATOM     23  O   UNL     1      32.653  -7.577 -19.589  0.00  0.00    -0.245 OA
ATOM     24  C   UNL     1      31.790  -7.885 -21.786  0.00  0.00    +0.091 A 
ATOM     25  C   UNL     1      31.306  -7.288 -22.893  0.00  0.00    +0.139 A 
ATOM     26  C   UNL     1      32.202  -7.066 -20.609  0.00  0.00    +0.345 A 
ATOM     27  C   UNL     1      31.167  -5.833 -22.964  0.00  0.00    +0.068 A 
ATOM     28  C   UNL     1      31.549  -5.072 -21.863  0.00  0.00    +0.152 A 
ATOM     29  C   UNL     1      30.668  -5.156 -24.085  0.00  0.00    +0.006 C 
ATOM     30  C   UNL     1      31.449  -3.680 -21.849  0.00  0.00    +0.038 C 
ATOM     31  C   UNL     1      30.561  -3.760 -24.087  0.00  0.00    +0.000 C 
ATOM     32  C   UNL     1      30.950  -3.024 -22.970  0.00  0.00    +0.003 C 
BRANCH  25  33
ATOM     33  O   UNL     1      30.907  -7.957 -24.031  0.00  0.00    -0.506 OA
ATOM     34  H   UNL     1      30.129  -8.479 -24.020  0.00  0.00    +0.292 HD
ENDBRANCH  25  33
ENDBRANCH  21  24
BRANCH  21  35
ATOM     35  C   UNL     1      30.606 -10.080 -21.738  0.00  0.00    +0.009 C 
ATOM     36  C   UNL     1      30.357 -11.110 -20.641  0.00  0.00    +0.001 C 
ENDBRANCH  21  35
ENDBRANCH   1  21
TORSDOF 9
ENDMDL
MODEL 8
REMARK VINA RESULT:      -9.3      2.506     11.578
REMARK  Name = 54689025
REMARK  9 active torsions:
REMARK  status: ('A' for Active; 'I' for Inactive)
REMARK    1  A    between atoms: C_1  and  C_21
REMARK    2  A    between atoms: C_4  and  N_8
REMARK    3  A    between atoms: C_9  and  C_11
REMARK    4  A    between atoms: C_11  and  N_13
REMARK    5  A    between atoms: C_14  and  O_16
REMARK    6  A    between atoms: O_16  and  C_17
REMARK    7  A    between atoms: C_21  and  C_24
REMARK    8  A    between atoms: C_21  and  C_35
REMARK    9  A    between atoms: C_25  and  O_33
REMARK                            x       y       z     vdW  Elec       q    Type
REMARK                         _______ _______ _______ _____ _____    ______ ____
ROOT
ATOM      1  C   UNL     1      32.341  -9.440 -21.372  0.00  0.00    -0.017 C 
ATOM      2  C   UNL     1      32.970 -10.405 -22.158  0.00  0.00    +0.011 C 
ATOM      3  C   UNL     1      31.209  -9.775 -20.629  0.00  0.00    -0.004 C 
ATOM      4  C   UNL     1      32.468 -11.706 -22.200  0.00  0.00    +0.050 C 
ATOM      5  C   UNL     1      30.707 -11.076 -20.672  0.00  0.00    +0.001 C 
ATOM      6  C   UNL     1      31.337 -12.041 -21.456  0.00  0.00    +0.015 C 
ENDROOT
BRANCH   4   8
ATOM      7  O   UNL     1      34.431 -13.854 -21.449  0.00  0.00    -0.273 OA
ATOM      8  N   UNL     1      33.097 -12.672 -22.987  0.00  0.00    -0.283 N 
ATOM      9  C   UNL     1      34.012 -13.659 -22.585  0.00  0.00    +0.246 C 
ATOM     10  H   UNL     1      32.869 -12.661 -23.945  0.00  0.00    +0.155 HD
BRANCH   9  11
ATOM     11  C   UNL     1      34.450 -14.506 -23.766  0.00  0.00    +0.179 C 
BRANCH  11  13
ATOM     12  O   UNL     1      34.062 -17.334 -24.304  0.00  0.00    -0.226 OA
ATOM     13  N   UNL     1      35.258 -15.604 -23.321  0.00  0.00    -0.262 N 
ATOM     14  C   UNL     1      35.001 -16.931 -23.625  0.00  0.00    +0.402 C 
ATOM     15  H   UNL     1      36.045 -15.402 -22.766  0.00  0.00    +0.153 HD
BRANCH  14  16
ATOM     16  O   UNL     1      35.949 -17.734 -23.056  0.00  0.00    -0.442 OA
BRANCH  16  17
ATOM     17  C   UNL     1      35.618 -18.277 -21.773  0.00  0.00    +0.138 C 
ATOM     18  C   UNL     1      34.941 -17.188 -20.943  0.00  0.00    +0.044 C 
ATOM     19  C   UNL     1      36.922 -18.724 -21.114  0.00  0.00    +0.044 C 
ATOM     20  C   UNL     1      34.682 -19.468 -21.977  0.00  0.00    +0.044 C 
ENDBRANCH  16  17
ENDBRANCH  14  16
ENDBRANCH  11  13
ENDBRANCH   9  11
ENDBRANCH   4   8
BRANCH   1  21
ATOM     21  C   UNL     1      32.887  -8.025 -21.326  0.00  0.00    +0.054 C 
BRANCH  21  24
ATOM     22  O   UNL     1      31.884  -6.907 -24.801  0.00  0.00    -0.421 OA
ATOM     23  O   UNL     1      30.722  -7.757 -23.041  0.00  0.00    -0.245 OA
ATOM     24  C   UNL     1      33.062  -7.470 -22.714  0.00  0.00    +0.091 A 
ATOM     25  C   UNL     1      34.226  -7.062 -23.254  0.00  0.00    +0.139 A 
ATOM     26  C   UNL     1      31.800  -7.399 -23.505  0.00  0.00    +0.345 A 
ATOM     27  C   UNL     1      34.281  -6.547 -24.624  0.00  0.00    +0.068 A 
ATOM     28  C   UNL     1      33.102  -6.485 -25.360  0.00  0.00    +0.152 A 
ATOM     29  C   UNL     1      35.462  -6.110 -25.240  0.00  0.00    +0.006 C 
ATOM     30  C   UNL     1      33.068  -6.009 -26.672  0.00  0.00    +0.038 C 
ATOM     31  C   UNL     1      35.444  -5.629 -26.554  0.00  0.00    +0.000 C 
ATOM     32  C   UNL     1      34.249  -5.580 -27.269  0.00  0.00    +0.003 C 
BRANCH  25  33
ATOM     33  O   UNL     1      35.441  -7.081 -22.602  0.00  0.00    -0.506 OA
ATOM     34  H   UNL     1      35.481  -7.302 -21.692  0.00  0.00    +0.292 HD
ENDBRANCH  25  33
ENDBRANCH  21  24
BRANCH  21  35
ATOM     35  C   UNL     1      32.034  -7.059 -20.479  0.00  0.00    +0.009 C 
ATOM     36  C   UNL     1      32.436  -5.598 -20.656  0.00  0.00    +0.001 C 
ENDBRANCH  21  35
ENDBRANCH   1  21
TORSDOF 9
ENDMDL
MODEL 9
REMARK VINA RESULT:      -9.2      4.676     11.466
REMARK  Name = 54689025
REMARK  9 active torsions:
REMARK  status: ('A' for Active; 'I' for Inactive)
REMARK    1  A    between atoms: C_1  and  C_21
REMARK    2  A    between atoms: C_4  and  N_8
REMARK    3  A    between atoms: C_9  and  C_11
REMARK    4  A    between atoms: C_11  and  N_13
REMARK    5  A    between atoms: C_14  and  O_16
REMARK    6  A    between atoms: O_16  and  C_17
REMARK    7  A    between atoms: C_21  and  C_24
REMARK    8  A    between atoms: C_21  and  C_35
REMARK    9  A    between atoms: C_25  and  O_33
REMARK                            x       y       z     vdW  Elec       q    Type
REMARK                         _______ _______ _______ _____ _____    ______ ____
ROOT
ATOM      1  C   UNL     1      34.801 -19.968 -20.693  0.00  0.00    -0.017 C 
ATOM      2  C   UNL     1      35.199 -20.863 -19.700  0.00  0.00    +0.011 C 
ATOM      3  C   UNL     1      33.445 -19.708 -20.895  0.00  0.00    -0.004 C 
ATOM      4  C   UNL     1      34.242 -21.497 -18.908  0.00  0.00    +0.050 C 
ATOM      5  C   UNL     1      32.488 -20.344 -20.104  0.00  0.00    +0.001 C 
ATOM      6  C   UNL     1      32.887 -21.238 -19.111  0.00  0.00    +0.015 C 
ENDROOT
BRANCH   4   8
ATOM      7  O   UNL     1      36.536 -21.366 -16.973  0.00  0.00    -0.273 OA
ATOM      8  N   UNL     1      34.640 -22.393 -17.915  0.00  0.00    -0.283 N 
ATOM      9  C   UNL     1      35.726 -22.286 -17.032  0.00  0.00    +0.246 C 
ATOM     10  H   UNL     1      34.088 -23.203 -17.821  0.00  0.00    +0.155 HD
BRANCH   9  11
ATOM     11  C   UNL     1      35.796 -23.488 -16.108  0.00  0.00    +0.179 C 
BRANCH  11  13
ATOM     12  O   UNL     1      38.403 -23.789 -14.861  0.00  0.00    -0.226 OA
ATOM     13  N   UNL     1      36.192 -23.082 -14.790  0.00  0.00    -0.262 N 
ATOM     14  C   UNL     1      37.463 -23.265 -14.271  0.00  0.00    +0.402 C 
ATOM     15  H   UNL     1      35.519 -22.647 -14.219  0.00  0.00    +0.153 HD
BRANCH  14  16
ATOM     16  O   UNL     1      37.524 -22.774 -12.997  0.00  0.00    -0.442 OA
BRANCH  16  17
ATOM     17  C   UNL     1      37.136 -23.682 -11.960  0.00  0.00    +0.138 C 
ATOM     18  C   UNL     1      36.913 -22.886 -10.675  0.00  0.00    +0.044 C 
ATOM     19  C   UNL     1      38.272 -24.686 -11.780  0.00  0.00    +0.044 C 
ATOM     20  C   UNL     1      35.853 -24.392 -12.391  0.00  0.00    +0.044 C 
ENDBRANCH  16  17
ENDBRANCH  14  16
ENDBRANCH  11  13
ENDBRANCH   9  11
ENDBRANCH   4   8
BRANCH   1  21
ATOM     21  C   UNL     1      35.843 -19.276 -21.554  0.00  0.00    +0.054 C 
BRANCH  21  24
ATOM     22  O   UNL     1      34.869 -15.618 -21.570  0.00  0.00    -0.421 OA
ATOM     23  O   UNL     1      35.795 -16.978 -19.999  0.00  0.00    -0.245 OA
ATOM     24  C   UNL     1      35.311 -17.980 -22.104  0.00  0.00    +0.091 A 
ATOM     25  C   UNL     1      34.825 -17.797 -23.346  0.00  0.00    +0.139 A 
ATOM     26  C   UNL     1      35.353 -16.845 -21.137  0.00  0.00    +0.345 A 
ATOM     27  C   UNL     1      34.323 -16.489 -23.772  0.00  0.00    +0.068 A 
ATOM     28  C   UNL     1      34.360 -15.434 -22.867  0.00  0.00    +0.152 A 
ATOM     29  C   UNL     1      33.803 -16.238 -25.050  0.00  0.00    +0.006 C 
ATOM     30  C   UNL     1      33.900 -14.156 -23.193  0.00  0.00    +0.038 C 
ATOM     31  C   UNL     1      33.339 -14.963 -25.392  0.00  0.00    +0.000 C 
ATOM     32  C   UNL     1      33.387 -13.924 -24.464  0.00  0.00    +0.003 C 
BRANCH  25  33
ATOM     33  O   UNL     1      34.753 -18.779 -24.311  0.00  0.00    -0.506 OA
ATOM     34  H   UNL     1      35.350 -18.773 -25.033  0.00  0.00    +0.292 HD
ENDBRANCH  25  33
ENDBRANCH  21  24
BRANCH  21  35
ATOM     35  C   UNL     1      37.181 -19.029 -20.828  0.00  0.00    +0.009 C 
ATOM     36  C   UNL     1      38.316 -18.668 -21.780  0.00  0.00    +0.001 C 
ENDBRANCH  21  35
ENDBRANCH   1  21
TORSDOF 9
ENDMDL
