MODEL 1
REMARK VINA RESULT:     -11.7      0.000      0.000
REMARK  Name = 42628060
REMARK  6 active torsions:
REMARK  status: ('A' for Active; 'I' for Inactive)
REMARK    1  A    between atoms: N_2  and  C_6
REMARK    2  A    between atoms: C_3  and  C_19
REMARK    3  A    between atoms: C_9  and  N_13
REMARK    4  A    between atoms: C_19  and  N_20
REMARK    5  A    between atoms: C_21  and  N_27
REMARK    6  A    between atoms: C_28  and  C_32
REMARK                            x       y       z     vdW  Elec       q    Type
REMARK                         _______ _______ _______ _____ _____    ______ ____
ROOT
ATOM      1  O   UNL     1      36.694 -20.094 -19.532  0.00  0.00    -0.277 OA
ATOM      2  N   UNL     1      34.929 -21.503 -18.887  0.00  0.00    -0.284 N 
ATOM      3  C   UNL     1      35.582 -20.583 -19.705  0.00  0.00    +0.205 C 
ATOM      4  H   UNL     1      34.032 -21.785 -19.179  0.00  0.00    +0.155 HD
ENDROOT
BRANCH   2   6
ATOM      5  F   UNL     1      33.253 -22.966 -17.209  0.00  0.00    -0.203 F 
ATOM      6  C   UNL     1      35.404 -22.078 -17.686  0.00  0.00    +0.078 C 
ATOM      7  C   UNL     1      34.540 -22.805 -16.867  0.00  0.00    +0.155 C 
ATOM      8  C   UNL     1      36.740 -21.917 -17.318  0.00  0.00    +0.018 C 
ATOM      9  C   UNL     1      36.347 -23.209 -15.316  0.00  0.00    +0.061 C 
ATOM     10  C   UNL     1      35.011 -23.371 -15.682  0.00  0.00    +0.046 C 
ATOM     11  C   UNL     1      37.212 -22.482 -16.133  0.00  0.00    +0.017 C 
BRANCH   9  13
ATOM     12  O   UNL     1      37.113 -25.977 -14.972  0.00  0.00    -0.269 OA
ATOM     13  N   UNL     1      36.838 -23.796 -14.084  0.00  0.00    -0.233 N 
ATOM     14  C   UNL     1      37.142 -25.181 -14.034  0.00  0.00    +0.257 C 
ATOM     15  C   UNL     1      37.033 -23.004 -12.950  0.00  0.00    +0.072 C 
ATOM     16  C   UNL     1      37.599 -25.715 -12.712  0.00  0.00    +0.059 C 
ATOM     17  C   UNL     1      37.474 -23.500 -11.789  0.00  0.00    +0.017 C 
ATOM     18  C   UNL     1      37.758 -24.898 -11.668  0.00  0.00    +0.006 C 
ENDBRANCH   9  13
ENDBRANCH   2   6
BRANCH   3  19
ATOM     19  C   UNL     1      34.709 -20.228 -20.897  0.00  0.00    +0.010 C 
BRANCH  19  20
ATOM     20  N   UNL     1      35.293 -19.099 -21.605  0.00  0.00    +0.394 N 
ATOM     21  C   UNL     1      35.314 -16.823 -22.110  0.00  0.00    +0.049 C 
ATOM     22  C   UNL     1      35.238 -17.616 -23.418  0.00  0.00    -0.005 C 
ATOM     23  C   UNL     1      34.896 -17.813 -21.028  0.00  0.00    -0.057 C 
ATOM     24  C   UNL     1      34.860 -19.032 -23.001  0.00  0.00    -0.075 C 
ATOM     25  H   UNL     1      36.298 -19.252 -21.529  0.00  0.00    -0.079 HD
BRANCH  21  27
ATOM     26  O   UNL     1      34.806 -15.066 -19.897  0.00  0.00    -0.270 OA
ATOM     27  N   UNL     1      34.490 -15.646 -22.121  0.00  0.00    -0.304 N 
ATOM     28  C   UNL     1      34.300 -14.852 -20.997  0.00  0.00    +0.252 C 
ATOM     29  H   UNL     1      34.040 -15.393 -22.959  0.00  0.00    +0.150 HD
BRANCH  28  32
ATOM     30 CL   UNL     1      31.831 -10.324 -22.996  0.00  0.00    -0.075 Cl
ATOM     31  S   UNL     1      33.577 -12.682 -22.541  0.00  0.00    -0.071 S 
ATOM     32  C   UNL     1      33.396 -13.685 -21.165  0.00  0.00    +0.084 C 
ATOM     33  C   UNL     1      32.377 -13.256 -20.343  0.00  0.00    +0.012 C 
ATOM     34  C   UNL     1      31.736 -12.089 -20.851  0.00  0.00    +0.019 C 
ATOM     35  C   UNL     1      32.289 -11.671 -22.040  0.00  0.00    +0.087 C 
ENDBRANCH  28  32
ENDBRANCH  21  27
ENDBRANCH  19  20
ENDBRANCH   3  19
TORSDOF 6
ENDMDL
MODEL 2
REMARK VINA RESULT:     -11.7      5.021     11.986
REMARK  Name = 42628060
REMARK  6 active torsions:
REMARK  status: ('A' for Active; 'I' for Inactive)
REMARK    1  A    between atoms: N_2  and  C_6
REMARK    2  A    between atoms: C_3  and  C_19
REMARK    3  A    between atoms: C_9  and  N_13
REMARK    4  A    between atoms: C_19  and  N_20
REMARK    5  A    between atoms: C_21  and  N_27
REMARK    6  A    between atoms: C_28  and  C_32
REMARK                            x       y       z     vdW  Elec       q    Type
REMARK                         _______ _______ _______ _____ _____    ______ ____
ROOT
ATOM      1  O   UNL     1      34.213 -19.673 -21.408  0.00  0.00    -0.277 OA
ATOM      2  N   UNL     1      35.799 -18.099 -20.686  0.00  0.00    -0.284 N 
ATOM      3  C   UNL     1      35.265 -19.375 -20.851  0.00  0.00    +0.205 C 
ATOM      4  H   UNL     1      36.657 -18.045 -20.206  0.00  0.00    +0.155 HD
ENDROOT
BRANCH   2   6
ATOM      5  F   UNL     1      35.555 -17.503 -23.397  0.00  0.00    -0.203 F 
ATOM      6  C   UNL     1      35.252 -16.871 -21.127  0.00  0.00    +0.078 C 
ATOM      7  C   UNL     1      35.144 -16.603 -22.492  0.00  0.00    +0.155 C 
ATOM      8  C   UNL     1      34.822 -15.926 -20.195  0.00  0.00    +0.018 C 
ATOM      9  C   UNL     1      34.175 -14.447 -21.992  0.00  0.00    +0.061 C 
ATOM     10  C   UNL     1      34.605 -15.391 -22.925  0.00  0.00    +0.046 C 
ATOM     11  C   UNL     1      34.283 -14.714 -20.628  0.00  0.00    +0.017 C 
BRANCH   9  13
ATOM     12  O   UNL     1      31.802 -13.194 -20.915  0.00  0.00    -0.269 OA
ATOM     13  N   UNL     1      33.616 -13.187 -22.442  0.00  0.00    -0.233 N 
ATOM     14  C   UNL     1      32.420 -12.697 -21.857  0.00  0.00    +0.257 C 
ATOM     15  C   UNL     1      34.258 -12.440 -23.432  0.00  0.00    +0.072 C 
ATOM     16  C   UNL     1      31.886 -11.413 -22.410  0.00  0.00    +0.059 C 
ATOM     17  C   UNL     1      33.777 -11.278 -23.886  0.00  0.00    +0.017 C 
ATOM     18  C   UNL     1      32.551 -10.755 -23.362  0.00  0.00    +0.006 C 
ENDBRANCH   9  13
ENDBRANCH   2   6
BRANCH   3  19
ATOM     19  C   UNL     1      36.180 -20.413 -20.223  0.00  0.00    +0.010 C 
BRANCH  19  20
ATOM     20  N   UNL     1      35.612 -20.855 -18.958  0.00  0.00    +0.394 N 
ATOM     21  C   UNL     1      35.850 -21.923 -16.900  0.00  0.00    +0.049 C 
ATOM     22  C   UNL     1      34.691 -22.573 -17.659  0.00  0.00    -0.005 C 
ATOM     23  C   UNL     1      36.640 -21.168 -17.964  0.00  0.00    -0.057 C 
ATOM     24  C   UNL     1      34.836 -22.088 -19.096  0.00  0.00    -0.075 C 
ATOM     25  H   UNL     1      35.028 -20.074 -18.662  0.00  0.00    -0.079 HD
BRANCH  21  27
ATOM     26  O   UNL     1      35.364 -22.975 -14.273  0.00  0.00    -0.270 OA
ATOM     27  N   UNL     1      36.661 -22.877 -16.194  0.00  0.00    -0.304 N 
ATOM     28  C   UNL     1      36.347 -23.332 -14.919  0.00  0.00    +0.252 C 
ATOM     29  H   UNL     1      37.473 -23.222 -16.631  0.00  0.00    +0.150 HD
BRANCH  28  32
ATOM     30 CL   UNL     1      40.867 -26.344 -13.871  0.00  0.00    -0.075 Cl
ATOM     31  S   UNL     1      38.867 -24.455 -14.989  0.00  0.00    -0.071 S 
ATOM     32  C   UNL     1      37.301 -24.298 -14.315  0.00  0.00    +0.084 C 
ATOM     33  C   UNL     1      37.116 -25.134 -13.236  0.00  0.00    +0.012 C 
ATOM     34  C   UNL     1      38.275 -25.914 -12.959  0.00  0.00    +0.019 C 
ATOM     35  C   UNL     1      39.302 -25.645 -13.837  0.00  0.00    +0.087 C 
ENDBRANCH  28  32
ENDBRANCH  21  27
ENDBRANCH  19  20
ENDBRANCH   3  19
TORSDOF 6
ENDMDL
MODEL 3
REMARK VINA RESULT:     -11.2      5.182      8.814
REMARK  Name = 42628060
REMARK  6 active torsions:
REMARK  status: ('A' for Active; 'I' for Inactive)
REMARK    1  A    between atoms: N_2  and  C_6
REMARK    2  A    between atoms: C_3  and  C_19
REMARK    3  A    between atoms: C_9  and  N_13
REMARK    4  A    between atoms: C_19  and  N_20
REMARK    5  A    between atoms: C_21  and  N_27
REMARK    6  A    between atoms: C_28  and  C_32
REMARK                            x       y       z     vdW  Elec       q    Type
REMARK                         _______ _______ _______ _____ _____    ______ ____
ROOT
ATOM      1  O   UNL     1      32.496 -13.161 -22.361  0.00  0.00    -0.277 OA
ATOM      2  N   UNL     1      34.429 -13.950 -23.436  0.00  0.00    -0.284 N 
ATOM      3  C   UNL     1      33.397 -13.048 -23.186  0.00  0.00    +0.205 C 
ATOM      4  H   UNL     1      35.066 -13.697 -24.142  0.00  0.00    +0.155 HD
ENDROOT
BRANCH   2   6
ATOM      5  F   UNL     1      34.726 -16.312 -24.883  0.00  0.00    -0.203 F 
ATOM      6  C   UNL     1      34.668 -15.187 -22.792  0.00  0.00    +0.078 C 
ATOM      7  C   UNL     1      34.812 -16.352 -23.546  0.00  0.00    +0.155 C 
ATOM      8  C   UNL     1      34.757 -15.241 -21.401  0.00  0.00    +0.018 C 
ATOM      9  C   UNL     1      35.135 -17.624 -21.518  0.00  0.00    +0.061 C 
ATOM     10  C   UNL     1      35.046 -17.571 -22.909  0.00  0.00    +0.046 C 
ATOM     11  C   UNL     1      34.991 -16.460 -20.764  0.00  0.00    +0.017 C 
BRANCH   9  13
ATOM     12  O   UNL     1      37.733 -18.639 -20.751  0.00  0.00    -0.269 OA
ATOM     13  N   UNL     1      35.378 -18.891 -20.855  0.00  0.00    -0.233 N 
ATOM     14  C   UNL     1      36.707 -19.295 -20.567  0.00  0.00    +0.257 C 
ATOM     15  C   UNL     1      34.310 -19.709 -20.478  0.00  0.00    +0.072 C 
ATOM     16  C   UNL     1      36.871 -20.636 -19.924  0.00  0.00    +0.059 C 
ATOM     17  C   UNL     1      34.483 -20.889 -19.873  0.00  0.00    +0.017 C 
ATOM     18  C   UNL     1      35.804 -21.367 -19.596  0.00  0.00    +0.006 C 
ENDBRANCH   9  13
ENDBRANCH   2   6
BRANCH   3  19
ATOM     19  C   UNL     1      33.517 -11.845 -24.106  0.00  0.00    +0.010 C 
BRANCH  19  20
ATOM     20  N   UNL     1      33.940 -10.686 -23.335  0.00  0.00    +0.394 N 
ATOM     21  C   UNL     1      33.587  -8.494 -22.622  0.00  0.00    +0.049 C 
ATOM     22  C   UNL     1      34.973  -8.584 -23.266  0.00  0.00    -0.005 C 
ATOM     23  C   UNL     1      32.848  -9.737 -23.109  0.00  0.00    -0.057 C 
ATOM     24  C   UNL     1      34.976  -9.910 -24.017  0.00  0.00    -0.075 C 
ATOM     25  H   UNL     1      34.282 -11.082 -22.460  0.00  0.00    -0.079 HD
BRANCH  21  27
ATOM     26  O   UNL     1      32.987  -6.319 -20.847  0.00  0.00    -0.270 OA
ATOM     27  N   UNL     1      32.893  -7.282 -22.956  0.00  0.00    -0.304 N 
ATOM     28  C   UNL     1      32.646  -6.278 -22.027  0.00  0.00    +0.252 C 
ATOM     29  H   UNL     1      32.579  -7.157 -23.881  0.00  0.00    +0.150 HD
BRANCH  28  32
ATOM     30 CL   UNL     1      30.098  -2.637 -25.322  0.00  0.00    -0.075 Cl
ATOM     31  S   UNL     1      31.596  -4.944 -24.203  0.00  0.00    -0.071 S 
ATOM     32  C   UNL     1      31.893  -5.097 -22.524  0.00  0.00    +0.084 C 
ATOM     33  C   UNL     1      31.363  -4.046 -21.808  0.00  0.00    +0.012 C 
ATOM     34  C   UNL     1      30.706  -3.103 -22.649  0.00  0.00    +0.019 C 
ATOM     35  C   UNL     1      30.757  -3.469 -23.976  0.00  0.00    +0.087 C 
ENDBRANCH  28  32
ENDBRANCH  21  27
ENDBRANCH  19  20
ENDBRANCH   3  19
TORSDOF 6
ENDMDL
MODEL 4
REMARK VINA RESULT:     -11.1      5.431     11.500
REMARK  Name = 42628060
REMARK  6 active torsions:
REMARK  status: ('A' for Active; 'I' for Inactive)
REMARK    1  A    between atoms: N_2  and  C_6
REMARK    2  A    between atoms: C_3  and  C_19
REMARK    3  A    between atoms: C_9  and  N_13
REMARK    4  A    between atoms: C_19  and  N_20
REMARK    5  A    between atoms: C_21  and  N_27
REMARK    6  A    between atoms: C_28  and  C_32
REMARK                            x       y       z     vdW  Elec       q    Type
REMARK                         _______ _______ _______ _____ _____    ______ ____
ROOT
ATOM      1  O   UNL     1      34.698 -18.462 -22.314  0.00  0.00    -0.277 OA
ATOM      2  N   UNL     1      35.354 -16.929 -20.661  0.00  0.00    -0.284 N 
ATOM      3  C   UNL     1      35.307 -18.172 -21.290  0.00  0.00    +0.205 C 
ATOM      4  H   UNL     1      35.893 -16.878 -19.839  0.00  0.00    +0.155 HD
ENDROOT
BRANCH   2   6
ATOM      5  F   UNL     1      35.561 -15.982 -23.273  0.00  0.00    -0.203 F 
ATOM      6  C   UNL     1      34.718 -15.733 -21.066  0.00  0.00    +0.078 C 
ATOM      7  C   UNL     1      34.841 -15.286 -22.382  0.00  0.00    +0.155 C 
ATOM      8  C   UNL     1      33.967 -14.999 -20.148  0.00  0.00    +0.018 C 
ATOM      9  C   UNL     1      33.462 -13.371 -21.859  0.00  0.00    +0.061 C 
ATOM     10  C   UNL     1      34.212 -14.105 -22.778  0.00  0.00    +0.046 C 
ATOM     11  C   UNL     1      33.339 -13.818 -20.544  0.00  0.00    +0.017 C 
BRANCH   9  13
ATOM     12  O   UNL     1      34.372 -11.625 -23.978  0.00  0.00    -0.269 OA
ATOM     13  N   UNL     1      32.810 -12.143 -22.271  0.00  0.00    -0.233 N 
ATOM     14  C   UNL     1      33.380 -11.352 -23.301  0.00  0.00    +0.257 C 
ATOM     15  C   UNL     1      31.611 -11.743 -21.676  0.00  0.00    +0.072 C 
ATOM     16  C   UNL     1      32.668 -10.078 -23.633  0.00  0.00    +0.059 C 
ATOM     17  C   UNL     1      30.977 -10.616 -22.014  0.00  0.00    +0.017 C 
ATOM     18  C   UNL     1      31.528  -9.757 -23.018  0.00  0.00    +0.006 C 
ENDBRANCH   9  13
ENDBRANCH   2   6
BRANCH   3  19
ATOM     19  C   UNL     1      36.136 -19.184 -20.517  0.00  0.00    +0.010 C 
BRANCH  19  20
ATOM     20  N   UNL     1      35.418 -20.447 -20.450  0.00  0.00    +0.394 N 
ATOM     21  C   UNL     1      33.740 -21.771 -19.518  0.00  0.00    +0.049 C 
ATOM     22  C   UNL     1      35.075 -22.512 -19.397  0.00  0.00    -0.005 C 
ATOM     23  C   UNL     1      34.122 -20.318 -19.780  0.00  0.00    -0.057 C 
ATOM     24  C   UNL     1      36.140 -21.459 -19.677  0.00  0.00    -0.075 C 
ATOM     25  H   UNL     1      35.312 -20.724 -21.425  0.00  0.00    -0.079 HD
BRANCH  21  27
ATOM     26  O   UNL     1      33.809 -23.927 -17.624  0.00  0.00    -0.270 OA
ATOM     27  N   UNL     1      32.913 -21.915 -18.352  0.00  0.00    -0.304 N 
ATOM     28  C   UNL     1      33.016 -22.998 -17.487  0.00  0.00    +0.252 C 
ATOM     29  H   UNL     1      32.245 -21.218 -18.158  0.00  0.00    +0.150 HD
BRANCH  28  32
ATOM     30 CL   UNL     1      30.866 -23.492 -12.415  0.00  0.00    -0.075 Cl
ATOM     31  S   UNL     1      32.652 -23.432 -14.786  0.00  0.00    -0.071 S 
ATOM     32  C   UNL     1      32.070 -23.013 -16.341  0.00  0.00    +0.084 C 
ATOM     33  C   UNL     1      30.723 -22.726 -16.330  0.00  0.00    +0.012 C 
ATOM     34  C   UNL     1      30.161 -22.852 -15.027  0.00  0.00    +0.019 C 
ATOM     35  C   UNL     1      31.099 -23.229 -14.092  0.00  0.00    +0.087 C 
ENDBRANCH  28  32
ENDBRANCH  21  27
ENDBRANCH  19  20
ENDBRANCH   3  19
TORSDOF 6
ENDMDL
MODEL 5
REMARK VINA RESULT:     -10.8      1.313      1.333
REMARK  Name = 42628060
REMARK  6 active torsions:
REMARK  status: ('A' for Active; 'I' for Inactive)
REMARK    1  A    between atoms: N_2  and  C_6
REMARK    2  A    between atoms: C_3  and  C_19
REMARK    3  A    between atoms: C_9  and  N_13
REMARK    4  A    between atoms: C_19  and  N_20
REMARK    5  A    between atoms: C_21  and  N_27
REMARK    6  A    between atoms: C_28  and  C_32
REMARK                            x       y       z     vdW  Elec       q    Type
REMARK                         _______ _______ _______ _____ _____    ______ ____
ROOT
ATOM      1  O   UNL     1      36.577 -19.477 -19.866  0.00  0.00    -0.277 OA
ATOM      2  N   UNL     1      35.035 -21.234 -19.643  0.00  0.00    -0.284 N 
ATOM      3  C   UNL     1      35.648 -20.161 -20.286  0.00  0.00    +0.205 C 
ATOM      4  H   UNL     1      34.297 -21.667 -20.128  0.00  0.00    +0.155 HD
ENDROOT
BRANCH   2   6
ATOM      5  F   UNL     1      33.145 -22.627 -18.143  0.00  0.00    -0.203 F 
ATOM      6  C   UNL     1      35.349 -21.773 -18.373  0.00  0.00    +0.078 C 
ATOM      7  C   UNL     1      34.380 -22.465 -17.647  0.00  0.00    +0.155 C 
ATOM      8  C   UNL     1      36.630 -21.609 -17.846  0.00  0.00    +0.018 C 
ATOM      9  C   UNL     1      35.974 -22.831 -15.869  0.00  0.00    +0.061 C 
ATOM     10  C   UNL     1      34.693 -22.995 -16.395  0.00  0.00    +0.046 C 
ATOM     11  C   UNL     1      36.943 -22.139 -16.594  0.00  0.00    +0.017 C 
BRANCH   9  13
ATOM     12  O   UNL     1      38.610 -23.660 -15.015  0.00  0.00    -0.269 OA
ATOM     13  N   UNL     1      36.299 -23.381 -14.567  0.00  0.00    -0.233 N 
ATOM     14  C   UNL     1      37.628 -23.788 -14.284  0.00  0.00    +0.257 C 
ATOM     15  C   UNL     1      35.317 -23.493 -13.579  0.00  0.00    +0.072 C 
ATOM     16  C   UNL     1      37.868 -24.387 -12.933  0.00  0.00    +0.059 C 
ATOM     17  C   UNL     1      35.565 -24.001 -12.368  0.00  0.00    +0.017 C 
ATOM     18  C   UNL     1      36.878 -24.467 -12.041  0.00  0.00    +0.006 C 
ENDBRANCH   9  13
ENDBRANCH   2   6
BRANCH   3  19
ATOM     19  C   UNL     1      34.997 -19.916 -21.636  0.00  0.00    +0.010 C 
BRANCH  19  20
ATOM     20  N   UNL     1      35.416 -18.619 -22.148  0.00  0.00    +0.394 N 
ATOM     21  C   UNL     1      35.253 -16.294 -22.136  0.00  0.00    +0.049 C 
ATOM     22  C   UNL     1      35.027 -16.795 -23.565  0.00  0.00    -0.005 C 
ATOM     23  C   UNL     1      35.045 -17.520 -21.254  0.00  0.00    -0.057 C 
ATOM     24  C   UNL     1      34.784 -18.293 -23.426  0.00  0.00    -0.075 C 
ATOM     25  H   UNL     1      36.428 -18.704 -22.239  0.00  0.00    -0.079 HD
BRANCH  21  27
ATOM     26  O   UNL     1      34.378 -14.161 -23.848  0.00  0.00    -0.270 OA
ATOM     27  N   UNL     1      34.378 -15.211 -21.779  0.00  0.00    -0.304 N 
ATOM     28  C   UNL     1      34.007 -14.218 -22.677  0.00  0.00    +0.252 C 
ATOM     29  H   UNL     1      34.028 -15.171 -20.859  0.00  0.00    +0.150 HD
BRANCH  28  32
ATOM     30 CL   UNL     1      31.251  -9.465 -22.035  0.00  0.00    -0.075 Cl
ATOM     31  S   UNL     1      32.997 -11.669 -22.989  0.00  0.00    -0.071 S 
ATOM     32  C   UNL     1      33.117 -13.153 -22.145  0.00  0.00    +0.084 C 
ATOM     33  C   UNL     1      32.327 -13.172 -21.017  0.00  0.00    +0.012 C 
ATOM     34  C   UNL     1      31.614 -11.951 -20.844  0.00  0.00    +0.019 C 
ATOM     35  C   UNL     1      31.886 -11.046 -21.845  0.00  0.00    +0.087 C 
ENDBRANCH  28  32
ENDBRANCH  21  27
ENDBRANCH  19  20
ENDBRANCH   3  19
TORSDOF 6
ENDMDL
MODEL 6
REMARK VINA RESULT:     -10.8      5.084     12.496
REMARK  Name = 42628060
REMARK  6 active torsions:
REMARK  status: ('A' for Active; 'I' for Inactive)
REMARK    1  A    between atoms: N_2  and  C_6
REMARK    2  A    between atoms: C_3  and  C_19
REMARK    3  A    between atoms: C_9  and  N_13
REMARK    4  A    between atoms: C_19  and  N_20
REMARK    5  A    between atoms: C_21  and  N_27
REMARK    6  A    between atoms: C_28  and  C_32
REMARK                            x       y       z     vdW  Elec       q    Type
REMARK                         _______ _______ _______ _____ _____    ______ ____
ROOT
ATOM      1  O   UNL     1      33.433 -13.878 -25.819  0.00  0.00    -0.277 OA
ATOM      2  N   UNL     1      33.037 -14.081 -23.514  0.00  0.00    -0.284 N 
ATOM      3  C   UNL     1      33.323 -14.546 -24.796  0.00  0.00    +0.205 C 
ATOM      4  H   UNL     1      32.981 -14.764 -22.807  0.00  0.00    +0.155 HD
ENDROOT
BRANCH   2   6
ATOM      5  F   UNL     1      31.621 -13.473 -21.193  0.00  0.00    -0.203 F 
ATOM      6  C   UNL     1      32.818 -12.744 -23.110  0.00  0.00    +0.078 C 
ATOM      7  C   UNL     1      32.105 -12.473 -21.942  0.00  0.00    +0.155 C 
ATOM      8  C   UNL     1      33.316 -11.694 -23.882  0.00  0.00    +0.018 C 
ATOM      9  C   UNL     1      32.388 -10.103 -22.319  0.00  0.00    +0.061 C 
ATOM     10  C   UNL     1      31.890 -11.152 -21.546  0.00  0.00    +0.046 C 
ATOM     11  C   UNL     1      33.101 -10.373 -23.486  0.00  0.00    +0.017 C 
BRANCH   9  13
ATOM     12  O   UNL     1      30.485  -8.288 -23.524  0.00  0.00    -0.269 OA
ATOM     13  N   UNL     1      32.163  -8.730 -21.909  0.00  0.00    -0.233 N 
ATOM     14  C   UNL     1      31.227  -7.928 -22.609  0.00  0.00    +0.257 C 
ATOM     15  C   UNL     1      32.848  -8.197 -20.814  0.00  0.00    +0.072 C 
ATOM     16  C   UNL     1      31.090  -6.510 -22.150  0.00  0.00    +0.059 C 
ATOM     17  C   UNL     1      32.683  -6.936 -20.403  0.00  0.00    +0.017 C 
ATOM     18  C   UNL     1      31.781  -6.067 -21.098  0.00  0.00    +0.006 C 
ENDBRANCH   9  13
ENDBRANCH   2   6
BRANCH   3  19
ATOM     19  C   UNL     1      33.484 -16.056 -24.784  0.00  0.00    +0.010 C 
BRANCH  19  20
ATOM     20  N   UNL     1      34.638 -16.413 -23.973  0.00  0.00    +0.394 N 
ATOM     21  C   UNL     1      35.683 -17.858 -22.470  0.00  0.00    +0.049 C 
ATOM     22  C   UNL     1      35.695 -16.444 -21.882  0.00  0.00    -0.005 C 
ATOM     23  C   UNL     1      34.618 -17.819 -23.561  0.00  0.00    -0.057 C 
ATOM     24  C   UNL     1      34.696 -15.657 -22.722  0.00  0.00    -0.075 C 
ATOM     25  H   UNL     1      35.436 -16.209 -24.574  0.00  0.00    -0.079 HD
BRANCH  21  27
ATOM     26  O   UNL     1      37.565 -18.976 -20.613  0.00  0.00    -0.270 OA
ATOM     27  N   UNL     1      35.419 -18.871 -21.486  0.00  0.00    -0.304 N 
ATOM     28  C   UNL     1      36.396 -19.355 -20.625  0.00  0.00    +0.252 C 
ATOM     29  H   UNL     1      34.507 -19.237 -21.420  0.00  0.00    +0.150 HD
BRANCH  28  32
ATOM     30 CL   UNL     1      33.375 -23.112 -17.913  0.00  0.00    -0.075 Cl
ATOM     31  S   UNL     1      34.352 -20.982 -19.737  0.00  0.00    -0.071 S 
ATOM     32  C   UNL     1      35.968 -20.421 -19.683  0.00  0.00    +0.084 C 
ATOM     33  C   UNL     1      36.708 -21.068 -18.717  0.00  0.00    +0.012 C 
ATOM     34  C   UNL     1      35.937 -22.037 -18.013  0.00  0.00    +0.019 C 
ATOM     35  C   UNL     1      34.638 -22.094 -18.467  0.00  0.00    +0.087 C 
ENDBRANCH  28  32
ENDBRANCH  21  27
ENDBRANCH  19  20
ENDBRANCH   3  19
TORSDOF 6
ENDMDL
MODEL 7
REMARK VINA RESULT:     -10.7      6.009     14.270
REMARK  Name = 42628060
REMARK  6 active torsions:
REMARK  status: ('A' for Active; 'I' for Inactive)
REMARK    1  A    between atoms: N_2  and  C_6
REMARK    2  A    between atoms: C_3  and  C_19
REMARK    3  A    between atoms: C_9  and  N_13
REMARK    4  A    between atoms: C_19  and  N_20
REMARK    5  A    between atoms: C_21  and  N_27
REMARK    6  A    between atoms: C_28  and  C_32
REMARK                            x       y       z     vdW  Elec       q    Type
REMARK                         _______ _______ _______ _____ _____    ______ ____
ROOT
ATOM      1  O   UNL     1      34.578 -11.250 -23.979  0.00  0.00    -0.277 OA
ATOM      2  N   UNL     1      32.409 -11.211 -23.080  0.00  0.00    -0.284 N 
ATOM      3  C   UNL     1      33.563 -11.812 -23.580  0.00  0.00    +0.205 C 
ATOM      4  H   UNL     1      31.685 -11.820 -22.809  0.00  0.00    +0.155 HD
ENDROOT
BRANCH   2   6
ATOM      5  F   UNL     1      32.263 -10.044 -20.555  0.00  0.00    -0.203 F 
ATOM      6  C   UNL     1      32.157  -9.829 -22.918  0.00  0.00    +0.078 C 
ATOM      7  C   UNL     1      32.090  -9.275 -21.639  0.00  0.00    +0.155 C 
ATOM      8  C   UNL     1      31.974  -9.019 -24.039  0.00  0.00    +0.018 C 
ATOM      9  C   UNL     1      31.658  -7.102 -22.603  0.00  0.00    +0.061 C 
ATOM     10  C   UNL     1      31.841  -7.911 -21.482  0.00  0.00    +0.046 C 
ATOM     11  C   UNL     1      31.725  -7.655 -23.881  0.00  0.00    +0.017 C 
BRANCH   9  13
ATOM     12  O   UNL     1      33.074  -4.976 -23.960  0.00  0.00    -0.269 OA
ATOM     13  N   UNL     1      31.399  -5.685 -22.439  0.00  0.00    -0.233 N 
ATOM     14  C   UNL     1      32.193  -4.736 -23.134  0.00  0.00    +0.257 C 
ATOM     15  C   UNL     1      30.357  -5.245 -21.619  0.00  0.00    +0.072 C 
ATOM     16  C   UNL     1      31.888  -3.294 -22.874  0.00  0.00    +0.059 C 
ATOM     17  C   UNL     1      30.084  -3.950 -21.428  0.00  0.00    +0.017 C 
ATOM     18  C   UNL     1      30.879  -2.948 -22.071  0.00  0.00    +0.006 C 
ENDBRANCH   9  13
ENDBRANCH   2   6
BRANCH   3  19
ATOM     19  C   UNL     1      33.409 -13.323 -23.582  0.00  0.00    +0.010 C 
BRANCH  19  20
ATOM     20  N   UNL     1      34.343 -13.906 -22.629  0.00  0.00    +0.394 N 
ATOM     21  C   UNL     1      35.086 -15.734 -21.388  0.00  0.00    +0.049 C 
ATOM     22  C   UNL     1      34.826 -14.565 -20.434  0.00  0.00    -0.005 C 
ATOM     23  C   UNL     1      34.337 -15.369 -22.666  0.00  0.00    -0.057 C 
ATOM     24  C   UNL     1      34.013 -13.564 -21.245  0.00  0.00    -0.075 C 
ATOM     25  H   UNL     1      35.248 -13.526 -22.905  0.00  0.00    -0.079 HD
BRANCH  21  27
ATOM     26  O   UNL     1      36.179 -18.313 -22.018  0.00  0.00    -0.270 OA
ATOM     27  N   UNL     1      34.665 -16.998 -20.851  0.00  0.00    -0.304 N 
ATOM     28  C   UNL     1      35.254 -18.202 -21.215  0.00  0.00    +0.252 C 
ATOM     29  H   UNL     1      33.928 -17.012 -20.198  0.00  0.00    +0.150 HD
BRANCH  28  32
ATOM     30 CL   UNL     1      34.725 -22.991 -18.497  0.00  0.00    -0.075 Cl
ATOM     31  S   UNL     1      35.736 -20.518 -19.792  0.00  0.00    -0.071 S 
ATOM     32  C   UNL     1      34.686 -19.425 -20.590  0.00  0.00    +0.084 C 
ATOM     33  C   UNL     1      33.374 -19.843 -20.546  0.00  0.00    +0.012 C 
ATOM     34  C   UNL     1      33.229 -21.076 -19.848  0.00  0.00    +0.019 C 
ATOM     35  C   UNL     1      34.435 -21.554 -19.385  0.00  0.00    +0.087 C 
ENDBRANCH  28  32
ENDBRANCH  21  27
ENDBRANCH  19  20
ENDBRANCH   3  19
TORSDOF 6
ENDMDL
MODEL 8
REMARK VINA RESULT:     -10.7      6.029     14.001
REMARK  Name = 42628060
REMARK  6 active torsions:
REMARK  status: ('A' for Active; 'I' for Inactive)
REMARK    1  A    between atoms: N_2  and  C_6
REMARK    2  A    between atoms: C_3  and  C_19
REMARK    3  A    between atoms: C_9  and  N_13
REMARK    4  A    between atoms: C_19  and  N_20
REMARK    5  A    between atoms: C_21  and  N_27
REMARK    6  A    between atoms: C_28  and  C_32
REMARK                            x       y       z     vdW  Elec       q    Type
REMARK                         _______ _______ _______ _____ _____    ______ ____
ROOT
ATOM      1  O   UNL     1      32.051 -12.695 -22.809  0.00  0.00    -0.277 OA
ATOM      2  N   UNL     1      33.823 -11.523 -23.811  0.00  0.00    -0.284 N 
ATOM      3  C   UNL     1      33.111 -12.658 -23.427  0.00  0.00    +0.205 C 
ATOM      4  H   UNL     1      34.662 -11.681 -24.300  0.00  0.00    +0.155 HD
ENDROOT
BRANCH   2   6
ATOM      5  F   UNL     1      35.768  -9.537 -23.628  0.00  0.00    -0.203 F 
ATOM      6  C   UNL     1      33.479 -10.170 -23.581  0.00  0.00    +0.078 C 
ATOM      7  C   UNL     1      34.477  -9.200 -23.494  0.00  0.00    +0.155 C 
ATOM      8  C   UNL     1      32.140  -9.808 -23.437  0.00  0.00    +0.018 C 
ATOM      9  C   UNL     1      32.796  -7.505 -23.122  0.00  0.00    +0.061 C 
ATOM     10  C   UNL     1      34.135  -7.866 -23.265  0.00  0.00    +0.046 C 
ATOM     11  C   UNL     1      31.798  -8.474 -23.209  0.00  0.00    +0.017 C 
BRANCH   9  13
ATOM     12  O   UNL     1      32.030  -6.392 -20.565  0.00  0.00    -0.269 OA
ATOM     13  N   UNL     1      32.441  -6.119 -22.884  0.00  0.00    -0.233 N 
ATOM     14  C   UNL     1      32.042  -5.705 -21.587  0.00  0.00    +0.257 C 
ATOM     15  C   UNL     1      32.508  -5.182 -23.918  0.00  0.00    +0.072 C 
ATOM     16  C   UNL     1      31.648  -4.269 -21.437  0.00  0.00    +0.059 C 
ATOM     17  C   UNL     1      32.181  -3.896 -23.750  0.00  0.00    +0.017 C 
ATOM     18  C   UNL     1      31.733  -3.431 -22.473  0.00  0.00    +0.006 C 
ENDBRANCH   9  13
ENDBRANCH   2   6
BRANCH   3  19
ATOM     19  C   UNL     1      33.839 -13.912 -23.878  0.00  0.00    +0.010 C 
BRANCH  19  20
ATOM     20  N   UNL     1      34.662 -14.413 -22.787  0.00  0.00    +0.394 N 
ATOM     21  C   UNL     1      35.255 -16.130 -21.326  0.00  0.00    +0.049 C 
ATOM     22  C   UNL     1      34.907 -14.886 -20.506  0.00  0.00    -0.005 C 
ATOM     23  C   UNL     1      34.647 -15.875 -22.702  0.00  0.00    -0.057 C 
ATOM     24  C   UNL     1      34.192 -13.956 -21.479  0.00  0.00    -0.075 C 
ATOM     25  H   UNL     1      35.595 -14.058 -22.997  0.00  0.00    -0.079 HD
BRANCH  21  27
ATOM     26  O   UNL     1      35.964 -18.809 -22.077  0.00  0.00    -0.270 OA
ATOM     27  N   UNL     1      34.768 -17.345 -20.733  0.00  0.00    -0.304 N 
ATOM     28  C   UNL     1      35.168 -18.604 -21.163  0.00  0.00    +0.252 C 
ATOM     29  H   UNL     1      34.124 -17.283 -19.990  0.00  0.00    +0.150 HD
BRANCH  28  32
ATOM     30 CL   UNL     1      34.452 -23.188 -18.151  0.00  0.00    -0.075 Cl
ATOM     31  S   UNL     1      35.559 -20.842 -19.597  0.00  0.00    -0.071 S 
ATOM     32  C   UNL     1      34.553 -19.762 -20.464  0.00  0.00    +0.084 C 
ATOM     33  C   UNL     1      33.225 -20.124 -20.396  0.00  0.00    +0.012 C 
ATOM     34  C   UNL     1      33.032 -21.304 -19.623  0.00  0.00    +0.019 C 
ATOM     35  C   UNL     1      34.218 -21.799 -19.128  0.00  0.00    +0.087 C 
ENDBRANCH  28  32
ENDBRANCH  21  27
ENDBRANCH  19  20
ENDBRANCH   3  19
TORSDOF 6
ENDMDL
MODEL 9
REMARK VINA RESULT:     -10.3      8.747     12.892
REMARK  Name = 42628060
REMARK  6 active torsions:
REMARK  status: ('A' for Active; 'I' for Inactive)
REMARK    1  A    between atoms: N_2  and  C_6
REMARK    2  A    between atoms: C_3  and  C_19
REMARK    3  A    between atoms: C_9  and  N_13
REMARK    4  A    between atoms: C_19  and  N_20
REMARK    5  A    between atoms: C_21  and  N_27
REMARK    6  A    between atoms: C_28  and  C_32
REMARK                            x       y       z     vdW  Elec       q    Type
REMARK                         _______ _______ _______ _____ _____    ______ ____
ROOT
ATOM      1  O   UNL     1      33.353  -7.862 -21.866  0.00  0.00    -0.277 OA
ATOM      2  N   UNL     1      31.515  -9.156 -22.545  0.00  0.00    -0.284 N 
ATOM      3  C   UNL     1      32.163  -7.993 -22.134  0.00  0.00    +0.205 C 
ATOM      4  H   UNL     1      30.548  -9.079 -22.713  0.00  0.00    +0.155 HD
ENDROOT
BRANCH   2   6
ATOM      5  F   UNL     1      30.608 -11.395 -21.156  0.00  0.00    -0.203 F 
ATOM      6  C   UNL     1      32.085 -10.434 -22.750  0.00  0.00    +0.078 C 
ATOM      7  C   UNL     1      31.608 -11.535 -22.038  0.00  0.00    +0.155 C 
ATOM      8  C   UNL     1      33.127 -10.593 -23.664  0.00  0.00    +0.018 C 
ATOM      9  C   UNL     1      33.214 -12.953 -23.155  0.00  0.00    +0.061 C 
ATOM     10  C   UNL     1      32.173 -12.795 -22.241  0.00  0.00    +0.046 C 
ATOM     11  C   UNL     1      33.691 -11.853 -23.867  0.00  0.00    +0.017 C 
BRANCH   9  13
ATOM     12  O   UNL     1      32.962 -14.530 -25.566  0.00  0.00    -0.269 OA
ATOM     13  N   UNL     1      33.802 -14.262 -23.366  0.00  0.00    -0.233 N 
ATOM     14  C   UNL     1      33.570 -14.953 -24.583  0.00  0.00    +0.257 C 
ATOM     15  C   UNL     1      34.613 -14.840 -22.387  0.00  0.00    +0.072 C 
ATOM     16  C   UNL     1      34.175 -16.317 -24.700  0.00  0.00    +0.059 C 
ATOM     17  C   UNL     1      35.170 -16.048 -22.530  0.00  0.00    +0.017 C 
ATOM     18  C   UNL     1      34.936 -16.809 -23.720  0.00  0.00    +0.006 C 
ENDBRANCH   9  13
ENDBRANCH   2   6
BRANCH   3  19
ATOM     19  C   UNL     1      31.173  -6.844 -22.042  0.00  0.00    +0.010 C 
BRANCH  19  20
ATOM     20  N   UNL     1      31.327  -5.979 -23.202  0.00  0.00    +0.394 N 
ATOM     21  C   UNL     1      32.217  -5.577 -25.319  0.00  0.00    +0.049 C 
ATOM     22  C   UNL     1      32.610  -4.423 -24.394  0.00  0.00    -0.005 C 
ATOM     23  C   UNL     1      31.802  -6.706 -24.382  0.00  0.00    -0.057 C 
ATOM     24  C   UNL     1      32.321  -4.927 -22.985  0.00  0.00    -0.075 C 
ATOM     25  H   UNL     1      30.395  -5.592 -23.348  0.00  0.00    -0.079 HD
BRANCH  21  27
ATOM     26  O   UNL     1      32.668  -4.606 -27.983  0.00  0.00    -0.270 OA
ATOM     27  N   UNL     1      33.277  -5.968 -26.207  0.00  0.00    -0.304 N 
ATOM     28  C   UNL     1      33.418  -5.443 -27.485  0.00  0.00    +0.252 C 
ATOM     29  H   UNL     1      33.931  -6.636 -25.896  0.00  0.00    +0.150 HD
BRANCH  28  32
ATOM     30 CL   UNL     1      38.500  -6.780 -29.214  0.00  0.00    -0.075 Cl
ATOM     31  S   UNL     1      36.150  -5.767 -27.708  0.00  0.00    -0.071 S 
ATOM     32  C   UNL     1      34.552  -5.970 -28.288  0.00  0.00    +0.084 C 
ATOM     33  C   UNL     1      34.520  -6.636 -29.494  0.00  0.00    +0.012 C 
ATOM     34  C   UNL     1      35.826  -6.984 -29.947  0.00  0.00    +0.019 C 
ATOM     35  C   UNL     1      36.805  -6.571 -29.071  0.00  0.00    +0.087 C 
ENDBRANCH  28  32
ENDBRANCH  21  27
ENDBRANCH  19  20
ENDBRANCH   3  19
TORSDOF 6
ENDMDL
