MODEL 1
REMARK VINA RESULT:     -10.6      0.000      0.000
REMARK  Name = 11710963
REMARK  3 active torsions:
REMARK  status: ('A' for Active; 'I' for Inactive)
REMARK    1  A    between atoms: C_3  and  C_17
REMARK    2  A    between atoms: C_4  and  N_27
REMARK    3  A    between atoms: C_12  and  S_23
REMARK                            x       y       z     vdW  Elec       q    Type
REMARK                         _______ _______ _______ _____ _____    ______ ____
ROOT
ATOM      1  N   UNL     1      35.010 -21.622 -18.201  0.00  0.00    -0.266 N 
ATOM      2  N   UNL     1      37.156 -21.280 -17.762  0.00  0.00    -0.394 NA
ATOM      3  C   UNL     1      35.010 -20.216 -20.681  0.00  0.00    +0.015 C 
ATOM      4  C   UNL     1      33.688 -20.334 -19.872  0.00  0.00    -0.041 C 
ATOM      5  C   UNL     1      36.205 -20.029 -19.720  0.00  0.00    +0.077 C 
ATOM      6  C   UNL     1      33.753 -21.540 -18.922  0.00  0.00    +0.076 C 
ATOM      7  C   UNL     1      36.163 -20.977 -18.571  0.00  0.00    +0.164 C 
ATOM      8  C   UNL     1      35.278 -22.395 -17.101  0.00  0.00    +0.079 C 
ATOM      9  C   UNL     1      36.627 -22.159 -16.845  0.00  0.00    +0.129 C 
ATOM     10  C   UNL     1      34.499 -23.259 -16.326  0.00  0.00    +0.018 C 
ATOM     11  C   UNL     1      37.245 -22.806 -15.761  0.00  0.00    +0.105 C 
ATOM     12  C   UNL     1      36.479 -23.672 -14.971  0.00  0.00    +0.091 C 
ATOM     13  C   UNL     1      35.130 -23.894 -15.252  0.00  0.00    +0.016 C 
ENDROOT
BRANCH   3  17
ATOM     14  F   UNL     1      34.777 -20.705 -23.467  0.00  0.00    -0.204 F 
ATOM     15  F   UNL     1      35.243 -15.488 -21.893  0.00  0.00    -0.202 F 
ATOM     16  F   UNL     1      35.010 -16.104 -24.546  0.00  0.00    -0.202 F 
ATOM     17  C   UNL     1      35.010 -19.110 -21.725  0.00  0.00    +0.006 C 
ATOM     18  C   UNL     1      34.890 -19.428 -23.074  0.00  0.00    +0.138 C 
ATOM     19  C   UNL     1      35.129 -17.783 -21.321  0.00  0.00    +0.030 C 
ATOM     20  C   UNL     1      35.127 -16.766 -22.276  0.00  0.00    +0.167 C 
ATOM     21  C   UNL     1      34.890 -18.411 -24.029  0.00  0.00    +0.061 C 
ATOM     22  C   UNL     1      35.008 -17.080 -23.630  0.00  0.00    +0.170 C 
ENDBRANCH   3  17
BRANCH  12  23
ATOM     23  S   UNL     1      37.226 -24.487 -13.618  0.00  0.00    +0.007 S 
ATOM     24  O   UNL     1      36.655 -25.823 -13.531  0.00  0.00    -0.169 OA
ATOM     25  O   UNL     1      38.669 -24.321 -13.708  0.00  0.00    -0.169 OA
ATOM     26  C   UNL     1      36.685 -23.566 -12.196  0.00  0.00    +0.181 C 
ENDBRANCH  12  23
BRANCH   4  27
ATOM     27  N   UNL     1      32.513 -20.497 -20.730  0.00  0.00    +0.383 N 
ATOM     28  H   UNL     1      32.701 -20.093 -21.648  0.00  0.00    -0.089 HD
ATOM     29  H   UNL     1      31.715 -20.023 -20.308  0.00  0.00    -0.089 HD
ATOM     30  H   UNL     1      32.302 -21.490 -20.832  0.00  0.00    -0.089 HD
ENDBRANCH   4  27
TORSDOF 3
ENDMDL
MODEL 2
REMARK VINA RESULT:     -10.6      1.780      2.513
REMARK  Name = 11710963
REMARK  3 active torsions:
REMARK  status: ('A' for Active; 'I' for Inactive)
REMARK    1  A    between atoms: C_3  and  C_17
REMARK    2  A    between atoms: C_4  and  N_27
REMARK    3  A    between atoms: C_12  and  S_23
REMARK                            x       y       z     vdW  Elec       q    Type
REMARK                         _______ _______ _______ _____ _____    ______ ____
ROOT
ATOM      1  N   UNL     1      35.282 -22.652 -16.573  0.00  0.00    -0.266 N 
ATOM      2  N   UNL     1      37.303 -22.076 -15.864  0.00  0.00    -0.394 NA
ATOM      3  C   UNL     1      35.532 -21.426 -19.136  0.00  0.00    +0.015 C 
ATOM      4  C   UNL     1      34.119 -21.614 -18.515  0.00  0.00    -0.041 C 
ATOM      5  C   UNL     1      36.550 -21.060 -18.033  0.00  0.00    +0.077 C 
ATOM      6  C   UNL     1      34.144 -22.741 -17.470  0.00  0.00    +0.076 C 
ATOM      7  C   UNL     1      36.419 -21.926 -16.828  0.00  0.00    +0.164 C 
ATOM      8  C   UNL     1      35.448 -23.318 -15.387  0.00  0.00    +0.079 C 
ATOM      9  C   UNL     1      36.720 -22.938 -14.963  0.00  0.00    +0.129 C 
ATOM     10  C   UNL     1      34.639 -24.198 -14.662  0.00  0.00    +0.018 C 
ATOM     11  C   UNL     1      37.222 -23.446 -13.753  0.00  0.00    +0.105 C 
ATOM     12  C   UNL     1      36.424 -24.326 -13.011  0.00  0.00    +0.091 C 
ATOM     13  C   UNL     1      35.155 -24.695 -13.461  0.00  0.00    +0.016 C 
ENDROOT
BRANCH   3  17
ATOM     14  F   UNL     1      37.630 -19.533 -19.400  0.00  0.00    -0.204 F 
ATOM     15  F   UNL     1      33.664 -19.385 -23.163  0.00  0.00    -0.202 F 
ATOM     16  F   UNL     1      35.747 -17.620 -23.297  0.00  0.00    -0.202 F 
ATOM     17  C   UNL     1      35.593 -20.400 -20.255  0.00  0.00    +0.006 C 
ATOM     18  C   UNL     1      36.655 -19.504 -20.320  0.00  0.00    +0.138 C 
ATOM     19  C   UNL     1      34.582 -20.364 -21.212  0.00  0.00    +0.030 C 
ATOM     20  C   UNL     1      34.635 -19.424 -22.242  0.00  0.00    +0.167 C 
ATOM     21  C   UNL     1      36.708 -18.563 -21.349  0.00  0.00    +0.061 C 
ATOM     22  C   UNL     1      35.698 -18.523 -22.309  0.00  0.00    +0.170 C 
ENDBRANCH   3  17
BRANCH  12  23
ATOM     23  S   UNL     1      37.028 -24.971 -11.504  0.00  0.00    +0.007 S 
ATOM     24  O   UNL     1      37.078 -26.420 -11.627  0.00  0.00    -0.169 OA
ATOM     25  O   UNL     1      38.225 -24.235 -11.124  0.00  0.00    -0.169 OA
ATOM     26  C   UNL     1      35.769 -24.564 -10.316  0.00  0.00    +0.181 C 
ENDBRANCH  12  23
BRANCH   4  27
ATOM     27  N   UNL     1      33.102 -21.948 -19.515  0.00  0.00    +0.383 N 
ATOM     28  H   UNL     1      33.256 -22.898 -19.854  0.00  0.00    -0.089 HD
ATOM     29  H   UNL     1      33.166 -21.295 -20.296  0.00  0.00    -0.089 HD
ATOM     30  H   UNL     1      32.176 -21.883 -19.092  0.00  0.00    -0.089 HD
ENDBRANCH   4  27
TORSDOF 3
ENDMDL
MODEL 3
REMARK VINA RESULT:     -10.5      9.818     13.106
REMARK  Name = 11710963
REMARK  3 active torsions:
REMARK  status: ('A' for Active; 'I' for Inactive)
REMARK    1  A    between atoms: C_3  and  C_17
REMARK    2  A    between atoms: C_4  and  N_27
REMARK    3  A    between atoms: C_12  and  S_23
REMARK                            x       y       z     vdW  Elec       q    Type
REMARK                         _______ _______ _______ _____ _____    ______ ____
ROOT
ATOM      1  N   UNL     1      32.612 -10.980 -22.243  0.00  0.00    -0.266 N 
ATOM      2  N   UNL     1      33.937 -10.236 -23.858  0.00  0.00    -0.394 NA
ATOM      3  C   UNL     1      33.930 -13.490 -21.942  0.00  0.00    +0.015 C 
ATOM      4  C   UNL     1      32.431 -13.365 -21.552  0.00  0.00    -0.041 C 
ATOM      5  C   UNL     1      34.223 -12.642 -23.199  0.00  0.00    +0.077 C 
ATOM      6  C   UNL     1      32.081 -11.898 -21.253  0.00  0.00    +0.076 C 
ATOM      7  C   UNL     1      33.627 -11.279 -23.116  0.00  0.00    +0.164 C 
ATOM      8  C   UNL     1      32.258  -9.668 -22.421  0.00  0.00    +0.079 C 
ATOM      9  C   UNL     1      33.100  -9.227 -23.440  0.00  0.00    +0.129 C 
ATOM     10  C   UNL     1      31.314  -8.839 -21.806  0.00  0.00    +0.018 C 
ATOM     11  C   UNL     1      33.004  -7.898 -23.886  0.00  0.00    +0.105 C 
ATOM     12  C   UNL     1      32.061  -7.055 -23.284  0.00  0.00    +0.091 C 
ATOM     13  C   UNL     1      31.232  -7.520 -22.262  0.00  0.00    +0.016 C 
ENDROOT
BRANCH   3  17
ATOM     14  F   UNL     1      34.887 -15.151 -19.849  0.00  0.00    -0.204 F 
ATOM     15  F   UNL     1      34.787 -17.301 -24.876  0.00  0.00    -0.202 F 
ATOM     16  F   UNL     1      35.684 -18.790 -22.766  0.00  0.00    -0.202 F 
ATOM     17  C   UNL     1      34.403 -14.918 -22.161  0.00  0.00    +0.006 C 
ATOM     18  C   UNL     1      34.859 -15.673 -21.084  0.00  0.00    +0.138 C 
ATOM     19  C   UNL     1      34.377 -15.463 -23.442  0.00  0.00    +0.030 C 
ATOM     20  C   UNL     1      34.809 -16.774 -23.646  0.00  0.00    +0.167 C 
ATOM     21  C   UNL     1      35.292 -16.983 -21.288  0.00  0.00    +0.061 C 
ATOM     22  C   UNL     1      35.267 -17.533 -22.569  0.00  0.00    +0.170 C 
ENDBRANCH   3  17
BRANCH  12  23
ATOM     23  S   UNL     1      31.924  -5.398 -23.821  0.00  0.00    +0.007 S 
ATOM     24  O   UNL     1      33.147  -5.057 -24.532  0.00  0.00    -0.169 OA
ATOM     25  O   UNL     1      30.635  -5.220 -24.472  0.00  0.00    -0.169 OA
ATOM     26  C   UNL     1      31.882  -4.450 -22.317  0.00  0.00    +0.181 C 
ENDBRANCH  12  23
BRANCH   4  27
ATOM     27  N   UNL     1      32.084 -14.161 -20.373  0.00  0.00    +0.383 N 
ATOM     28  H   UNL     1      32.313 -15.141 -20.543  0.00  0.00    -0.089 HD
ATOM     29  H   UNL     1      31.086 -14.074 -20.185  0.00  0.00    -0.089 HD
ATOM     30  H   UNL     1      32.612 -13.824 -19.568  0.00  0.00    -0.089 HD
ENDBRANCH   4  27
TORSDOF 3
ENDMDL
MODEL 4
REMARK VINA RESULT:     -10.2     11.052     14.467
REMARK  Name = 11710963
REMARK  3 active torsions:
REMARK  status: ('A' for Active; 'I' for Inactive)
REMARK    1  A    between atoms: C_3  and  C_17
REMARK    2  A    between atoms: C_4  and  N_27
REMARK    3  A    between atoms: C_12  and  S_23
REMARK                            x       y       z     vdW  Elec       q    Type
REMARK                         _______ _______ _______ _____ _____    ______ ____
ROOT
ATOM      1  N   UNL     1      32.031  -9.286 -22.541  0.00  0.00    -0.266 N 
ATOM      2  N   UNL     1      33.230  -8.383 -24.172  0.00  0.00    -0.394 NA
ATOM      3  C   UNL     1      33.271 -11.851 -22.677  0.00  0.00    +0.015 C 
ATOM      4  C   UNL     1      31.819 -11.734 -22.134  0.00  0.00    -0.041 C 
ATOM      5  C   UNL     1      33.481 -10.859 -23.843  0.00  0.00    +0.077 C 
ATOM      6  C   UNL     1      31.556 -10.307 -21.625  0.00  0.00    +0.076 C 
ATOM      7  C   UNL     1      32.949  -9.501 -23.537  0.00  0.00    +0.164 C 
ATOM      8  C   UNL     1      31.713  -7.953 -22.522  0.00  0.00    +0.079 C 
ATOM      9  C   UNL     1      32.475  -7.411 -23.555  0.00  0.00    +0.129 C 
ATOM     10  C   UNL     1      30.863  -7.183 -21.722  0.00  0.00    +0.018 C 
ATOM     11  C   UNL     1      32.392  -6.034 -23.822  0.00  0.00    +0.105 C 
ATOM     12  C   UNL     1      31.542  -5.248 -23.035  0.00  0.00    +0.091 C 
ATOM     13  C   UNL     1      30.793  -5.815 -22.002  0.00  0.00    +0.016 C 
ENDROOT
BRANCH   3  17
ATOM     14  F   UNL     1      34.883 -13.576 -21.103  0.00  0.00    -0.204 F 
ATOM     15  F   UNL     1      33.170 -15.496 -25.929  0.00  0.00    -0.202 F 
ATOM     16  F   UNL     1      34.729 -17.052 -24.310  0.00  0.00    -0.202 F 
ATOM     17  C   UNL     1      33.665 -13.252 -23.114  0.00  0.00    +0.006 C 
ATOM     18  C   UNL     1      34.458 -14.041 -22.287  0.00  0.00    +0.138 C 
ATOM     19  C   UNL     1      33.227 -13.738 -24.343  0.00  0.00    +0.030 C 
ATOM     20  C   UNL     1      33.586 -15.025 -24.747  0.00  0.00    +0.167 C 
ATOM     21  C   UNL     1      34.818 -15.327 -22.691  0.00  0.00    +0.061 C 
ATOM     22  C   UNL     1      34.382 -15.818 -23.921  0.00  0.00    +0.170 C 
ENDBRANCH   3  17
BRANCH  12  23
ATOM     23  S   UNL     1      31.422  -3.533 -23.348  0.00  0.00    +0.007 S 
ATOM     24  O   UNL     1      30.075  -3.260 -23.824  0.00  0.00    -0.169 OA
ATOM     25  O   UNL     1      31.946  -2.808 -22.200  0.00  0.00    -0.169 OA
ATOM     26  C   UNL     1      32.547  -3.253 -24.697  0.00  0.00    +0.181 C 
ENDBRANCH  12  23
BRANCH   4  27
ATOM     27  N   UNL     1      31.550 -12.663 -21.034  0.00  0.00    +0.383 N 
ATOM     28  H   UNL     1      32.339 -12.661 -20.386  0.00  0.00    -0.089 HD
ATOM     29  H   UNL     1      31.420 -13.603 -21.407  0.00  0.00    -0.089 HD
ATOM     30  H   UNL     1      30.706 -12.372 -20.542  0.00  0.00    -0.089 HD
ENDBRANCH   4  27
TORSDOF 3
ENDMDL
MODEL 5
REMARK VINA RESULT:     -10.1      2.525      3.735
REMARK  Name = 11710963
REMARK  3 active torsions:
REMARK  status: ('A' for Active; 'I' for Inactive)
REMARK    1  A    between atoms: C_3  and  C_17
REMARK    2  A    between atoms: C_4  and  N_27
REMARK    3  A    between atoms: C_12  and  S_23
REMARK                            x       y       z     vdW  Elec       q    Type
REMARK                         _______ _______ _______ _____ _____    ______ ____
ROOT
ATOM      1  N   UNL     1      34.242 -21.886 -18.096  0.00  0.00    -0.266 N 
ATOM      2  N   UNL     1      32.029 -21.747 -18.092  0.00  0.00    -0.394 NA
ATOM      3  C   UNL     1      34.639 -19.870 -20.073  0.00  0.00    +0.015 C 
ATOM      4  C   UNL     1      35.710 -20.983 -19.893  0.00  0.00    -0.041 C 
ATOM      5  C   UNL     1      33.224 -20.461 -19.887  0.00  0.00    +0.077 C 
ATOM      6  C   UNL     1      35.609 -21.594 -18.486  0.00  0.00    +0.076 C 
ATOM      7  C   UNL     1      33.130 -21.344 -18.690  0.00  0.00    +0.164 C 
ATOM      8  C   UNL     1      33.836 -22.670 -17.047  0.00  0.00    +0.079 C 
ATOM      9  C   UNL     1      32.447 -22.568 -17.069  0.00  0.00    +0.129 C 
ATOM     10  C   UNL     1      34.525 -23.434 -16.101  0.00  0.00    +0.018 C 
ATOM     11  C   UNL     1      31.691 -23.263 -16.110  0.00  0.00    +0.105 C 
ATOM     12  C   UNL     1      32.364 -24.037 -15.157  0.00  0.00    +0.091 C 
ATOM     13  C   UNL     1      33.757 -24.119 -15.154  0.00  0.00    +0.016 C 
ENDROOT
BRANCH   3  17
ATOM     14  F   UNL     1      35.607 -17.213 -20.321  0.00  0.00    -0.204 F 
ATOM     15  F   UNL     1      33.977 -19.700 -24.911  0.00  0.00    -0.202 F 
ATOM     16  F   UNL     1      34.933 -17.140 -25.003  0.00  0.00    -0.202 F 
ATOM     17  C   UNL     1      34.720 -19.132 -21.400  0.00  0.00    +0.006 C 
ATOM     18  C   UNL     1      35.207 -17.830 -21.442  0.00  0.00    +0.138 C 
ATOM     19  C   UNL     1      34.304 -19.768 -22.567  0.00  0.00    +0.030 C 
ATOM     20  C   UNL     1      34.378 -19.094 -23.786  0.00  0.00    +0.167 C 
ATOM     21  C   UNL     1      35.280 -17.155 -22.661  0.00  0.00    +0.061 C 
ATOM     22  C   UNL     1      34.865 -17.787 -23.833  0.00  0.00    +0.170 C 
ENDBRANCH   3  17
BRANCH  12  23
ATOM     23  S   UNL     1      31.444 -24.910 -13.954  0.00  0.00    +0.007 S 
ATOM     24  O   UNL     1      30.615 -25.885 -14.647  0.00  0.00    -0.169 OA
ATOM     25  O   UNL     1      32.347 -25.347 -12.900  0.00  0.00    -0.169 OA
ATOM     26  C   UNL     1      30.371 -23.683 -13.245  0.00  0.00    +0.181 C 
ENDBRANCH  12  23
BRANCH   4  27
ATOM     27  N   UNL     1      37.076 -20.488 -20.074  0.00  0.00    +0.383 N 
ATOM     28  H   UNL     1      37.556 -21.057 -20.771  0.00  0.00    -0.089 HD
ATOM     29  H   UNL     1      37.577 -20.543 -19.187  0.00  0.00    -0.089 HD
ATOM     30  H   UNL     1      37.047 -19.518 -20.388  0.00  0.00    -0.089 HD
ENDBRANCH   4  27
TORSDOF 3
ENDMDL
MODEL 6
REMARK VINA RESULT:      -9.9      5.745      9.364
REMARK  Name = 11710963
REMARK  3 active torsions:
REMARK  status: ('A' for Active; 'I' for Inactive)
REMARK    1  A    between atoms: C_3  and  C_17
REMARK    2  A    between atoms: C_4  and  N_27
REMARK    3  A    between atoms: C_12  and  S_23
REMARK                            x       y       z     vdW  Elec       q    Type
REMARK                         _______ _______ _______ _____ _____    ______ ____
ROOT
ATOM      1  N   UNL     1      34.810 -22.175 -17.608  0.00  0.00    -0.266 N 
ATOM      2  N   UNL     1      36.846 -21.426 -18.065  0.00  0.00    -0.394 NA
ATOM      3  C   UNL     1      35.503 -23.338 -15.098  0.00  0.00    +0.015 C 
ATOM      4  C   UNL     1      34.294 -23.906 -15.894  0.00  0.00    -0.041 C 
ATOM      5  C   UNL     1      36.634 -22.936 -16.070  0.00  0.00    +0.077 C 
ATOM      6  C   UNL     1      33.756 -22.847 -16.870  0.00  0.00    +0.076 C 
ATOM      7  C   UNL     1      36.131 -22.159 -17.238  0.00  0.00    +0.164 C 
ATOM      8  C   UNL     1      34.663 -21.397 -18.727  0.00  0.00    +0.079 C 
ATOM      9  C   UNL     1      35.953 -20.943 -18.994  0.00  0.00    +0.129 C 
ATOM     10  C   UNL     1      33.559 -21.047 -19.510  0.00  0.00    +0.018 C 
ATOM     11  C   UNL     1      36.172 -20.103 -20.098  0.00  0.00    +0.105 C 
ATOM     12  C   UNL     1      35.079 -19.745 -20.897  0.00  0.00    +0.091 C 
ATOM     13  C   UNL     1      33.795 -20.210 -20.605  0.00  0.00    +0.016 C 
ENDROOT
BRANCH   3  17
ATOM     14  F   UNL     1      34.752 -23.189 -12.365  0.00  0.00    -0.204 F 
ATOM     15  F   UNL     1      38.341 -27.078 -13.746  0.00  0.00    -0.202 F 
ATOM     16  F   UNL     1      37.529 -26.822 -11.148  0.00  0.00    -0.202 F 
ATOM     17  C   UNL     1      36.047 -24.275 -14.032  0.00  0.00    +0.006 C 
ATOM     18  C   UNL     1      35.630 -24.142 -12.711  0.00  0.00    +0.138 C 
ATOM     19  C   UNL     1      36.960 -25.264 -14.387  0.00  0.00    +0.030 C 
ATOM     20  C   UNL     1      37.460 -26.127 -13.411  0.00  0.00    +0.167 C 
ATOM     21  C   UNL     1      36.131 -25.003 -11.735  0.00  0.00    +0.061 C 
ATOM     22  C   UNL     1      37.046 -25.996 -12.085  0.00  0.00    +0.170 C 
ENDBRANCH   3  17
BRANCH  12  23
ATOM     23  S   UNL     1      35.328 -18.701 -22.275  0.00  0.00    +0.007 S 
ATOM     24  O   UNL     1      36.722 -18.815 -22.676  0.00  0.00    -0.169 OA
ATOM     25  O   UNL     1      34.273 -18.947 -23.247  0.00  0.00    -0.169 OA
ATOM     26  C   UNL     1      35.073 -17.061 -21.636  0.00  0.00    +0.181 C 
ENDBRANCH  12  23
BRANCH   4  27
ATOM     27  N   UNL     1      33.190 -24.322 -15.026  0.00  0.00    +0.383 N 
ATOM     28  H   UNL     1      33.564 -24.786 -14.198  0.00  0.00    -0.089 HD
ATOM     29  H   UNL     1      32.585 -24.968 -15.532  0.00  0.00    -0.089 HD
ATOM     30  H   UNL     1      32.653 -23.503 -14.744  0.00  0.00    -0.089 HD
ENDBRANCH   4  27
TORSDOF 3
ENDMDL
MODEL 7
REMARK VINA RESULT:      -9.9     10.479     13.834
REMARK  Name = 11710963
REMARK  3 active torsions:
REMARK  status: ('A' for Active; 'I' for Inactive)
REMARK    1  A    between atoms: C_3  and  C_17
REMARK    2  A    between atoms: C_4  and  N_27
REMARK    3  A    between atoms: C_12  and  S_23
REMARK                            x       y       z     vdW  Elec       q    Type
REMARK                         _______ _______ _______ _____ _____    ______ ____
ROOT
ATOM      1  N   UNL     1      32.263 -10.068 -22.578  0.00  0.00    -0.266 N 
ATOM      2  N   UNL     1      33.396  -9.173 -24.260  0.00  0.00    -0.394 NA
ATOM      3  C   UNL     1      33.507 -12.628 -22.740  0.00  0.00    +0.015 C 
ATOM      4  C   UNL     1      32.077 -12.512 -22.143  0.00  0.00    -0.041 C 
ATOM      5  C   UNL     1      33.669 -11.646 -23.921  0.00  0.00    +0.077 C 
ATOM      6  C   UNL     1      31.827 -11.083 -21.636  0.00  0.00    +0.076 C 
ATOM      7  C   UNL     1      33.144 -10.287 -23.606  0.00  0.00    +0.164 C 
ATOM      8  C   UNL     1      31.941  -8.736 -22.557  0.00  0.00    +0.079 C 
ATOM      9  C   UNL     1      32.661  -8.199 -23.623  0.00  0.00    +0.129 C 
ATOM     10  C   UNL     1      31.118  -7.962 -21.733  0.00  0.00    +0.018 C 
ATOM     11  C   UNL     1      32.561  -6.825 -23.898  0.00  0.00    +0.105 C 
ATOM     12  C   UNL     1      31.739  -6.035 -23.086  0.00  0.00    +0.091 C 
ATOM     13  C   UNL     1      31.031  -6.597 -22.021  0.00  0.00    +0.016 C 
ENDROOT
BRANCH   3  17
ATOM     14  F   UNL     1      32.638 -13.786 -25.181  0.00  0.00    -0.204 F 
ATOM     15  F   UNL     1      35.847 -16.850 -21.984  0.00  0.00    -0.202 F 
ATOM     16  F   UNL     1      34.937 -17.840 -24.365  0.00  0.00    -0.202 F 
ATOM     17  C   UNL     1      33.891 -14.032 -23.180  0.00  0.00    +0.006 C 
ATOM     18  C   UNL     1      33.426 -14.531 -24.393  0.00  0.00    +0.138 C 
ATOM     19  C   UNL     1      34.708 -14.810 -22.365  0.00  0.00    +0.030 C 
ATOM     20  C   UNL     1      35.063 -16.098 -22.766  0.00  0.00    +0.167 C 
ATOM     21  C   UNL     1      33.780 -15.819 -24.794  0.00  0.00    +0.061 C 
ATOM     22  C   UNL     1      34.598 -16.603 -23.981  0.00  0.00    +0.170 C 
ENDBRANCH   3  17
BRANCH  12  23
ATOM     23  S   UNL     1      31.600  -4.324 -23.409  0.00  0.00    +0.007 S 
ATOM     24  O   UNL     1      30.274  -4.079 -23.956  0.00  0.00    -0.169 OA
ATOM     25  O   UNL     1      32.046  -3.587 -22.235  0.00  0.00    -0.169 OA
ATOM     26  C   UNL     1      32.789  -4.021 -24.695  0.00  0.00    +0.181 C 
ENDBRANCH  12  23
BRANCH   4  27
ATOM     27  N   UNL     1      31.854 -13.433 -21.026  0.00  0.00    +0.383 N 
ATOM     28  H   UNL     1      32.016 -14.391 -21.336  0.00  0.00    -0.089 HD
ATOM     29  H   UNL     1      30.893 -13.341 -20.696  0.00  0.00    -0.089 HD
ATOM     30  H   UNL     1      32.497 -13.208 -20.267  0.00  0.00    -0.089 HD
ENDBRANCH   4  27
TORSDOF 3
ENDMDL
MODEL 8
REMARK VINA RESULT:      -9.7      1.418      2.770
REMARK  Name = 11710963
REMARK  3 active torsions:
REMARK  status: ('A' for Active; 'I' for Inactive)
REMARK    1  A    between atoms: C_3  and  C_17
REMARK    2  A    between atoms: C_4  and  N_27
REMARK    3  A    between atoms: C_12  and  S_23
REMARK                            x       y       z     vdW  Elec       q    Type
REMARK                         _______ _______ _______ _____ _____    ______ ____
ROOT
ATOM      1  N   UNL     1      36.065 -21.101 -18.540  0.00  0.00    -0.266 N 
ATOM      2  N   UNL     1      34.015 -21.907 -18.292  0.00  0.00    -0.394 NA
ATOM      3  C   UNL     1      35.375 -19.214 -20.563  0.00  0.00    +0.015 C 
ATOM      4  C   UNL     1      36.828 -19.761 -20.495  0.00  0.00    -0.041 C 
ATOM      5  C   UNL     1      34.370 -20.336 -20.218  0.00  0.00    +0.077 C 
ATOM      6  C   UNL     1      37.134 -20.282 -19.081  0.00  0.00    +0.076 C 
ATOM      7  C   UNL     1      34.776 -21.111 -19.011  0.00  0.00    +0.164 C 
ATOM      8  C   UNL     1      36.135 -21.926 -17.447  0.00  0.00    +0.079 C 
ATOM      9  C   UNL     1      34.838 -22.420 -17.316  0.00  0.00    +0.129 C 
ATOM     10  C   UNL     1      37.171 -22.277 -16.578  0.00  0.00    +0.018 C 
ATOM     11  C   UNL     1      34.546 -23.317 -16.275  0.00  0.00    +0.105 C 
ATOM     12  C   UNL     1      35.573 -23.684 -15.396  0.00  0.00    +0.091 C 
ATOM     13  C   UNL     1      36.863 -23.170 -15.547  0.00  0.00    +0.016 C 
ENDROOT
BRANCH   3  17
ATOM     14  F   UNL     1      35.579 -16.431 -21.077  0.00  0.00    -0.204 F 
ATOM     15  F   UNL     1      33.751 -19.581 -25.157  0.00  0.00    -0.202 F 
ATOM     16  F   UNL     1      33.999 -16.881 -25.514  0.00  0.00    -0.202 F 
ATOM     17  C   UNL     1      35.005 -18.583 -21.896  0.00  0.00    +0.006 C 
ATOM     18  C   UNL     1      35.133 -17.209 -22.074  0.00  0.00    +0.138 C 
ATOM     19  C   UNL     1      34.540 -19.387 -22.932  0.00  0.00    +0.030 C 
ATOM     20  C   UNL     1      34.201 -18.811 -24.157  0.00  0.00    +0.167 C 
ATOM     21  C   UNL     1      34.793 -16.633 -23.297  0.00  0.00    +0.061 C 
ATOM     22  C   UNL     1      34.327 -17.434 -24.339  0.00  0.00    +0.170 C 
ENDBRANCH   3  17
BRANCH  12  23
ATOM     23  S   UNL     1      35.233 -24.797 -14.093  0.00  0.00    +0.007 S 
ATOM     24  O   UNL     1      33.807 -24.732 -13.811  0.00  0.00    -0.169 OA
ATOM     25  O   UNL     1      35.853 -26.078 -14.397  0.00  0.00    -0.169 OA
ATOM     26  C   UNL     1      36.100 -24.118 -12.697  0.00  0.00    +0.181 C 
ENDBRANCH  12  23
BRANCH   4  27
ATOM     27  N   UNL     1      37.831 -18.747 -20.829  0.00  0.00    +0.383 N 
ATOM     28  H   UNL     1      38.093 -18.837 -21.811  0.00  0.00    -0.089 HD
ATOM     29  H   UNL     1      38.656 -18.879 -20.245  0.00  0.00    -0.089 HD
ATOM     30  H   UNL     1      37.442 -17.819 -20.664  0.00  0.00    -0.089 HD
ENDBRANCH   4  27
TORSDOF 3
ENDMDL
MODEL 9
REMARK VINA RESULT:      -9.1      7.277     10.486
REMARK  Name = 11710963
REMARK  3 active torsions:
REMARK  status: ('A' for Active; 'I' for Inactive)
REMARK    1  A    between atoms: C_3  and  C_17
REMARK    2  A    between atoms: C_4  and  N_27
REMARK    3  A    between atoms: C_12  and  S_23
REMARK                            x       y       z     vdW  Elec       q    Type
REMARK                         _______ _______ _______ _____ _____    ______ ____
ROOT
ATOM      1  N   UNL     1      34.377 -15.303 -22.856  0.00  0.00    -0.266 N 
ATOM      2  N   UNL     1      34.382 -14.090 -21.000  0.00  0.00    -0.394 NA
ATOM      3  C   UNL     1      34.659 -17.817 -21.541  0.00  0.00    +0.015 C 
ATOM      4  C   UNL     1      35.162 -17.661 -23.004  0.00  0.00    -0.041 C 
ATOM      5  C   UNL     1      34.941 -16.524 -20.744  0.00  0.00    +0.077 C 
ATOM      6  C   UNL     1      34.443 -16.488 -23.690  0.00  0.00    +0.076 C 
ATOM      7  C   UNL     1      34.554 -15.297 -21.496  0.00  0.00    +0.164 C 
ATOM      8  C   UNL     1      34.059 -14.031 -23.259  0.00  0.00    +0.079 C 
ATOM      9  C   UNL     1      34.073 -13.291 -22.078  0.00  0.00    +0.129 C 
ATOM     10  C   UNL     1      33.763 -13.467 -24.503  0.00  0.00    +0.018 C 
ATOM     11  C   UNL     1      33.785 -11.917 -22.124  0.00  0.00    +0.105 C 
ATOM     12  C   UNL     1      33.490 -11.334 -23.362  0.00  0.00    +0.091 C 
ATOM     13  C   UNL     1      33.479 -12.098 -24.530  0.00  0.00    +0.016 C 
ENDROOT
BRANCH   3  17
ATOM     14  F   UNL     1      37.444 -18.229 -21.186  0.00  0.00    -0.204 F 
ATOM     15  F   UNL     1      34.088 -21.995 -19.073  0.00  0.00    -0.202 F 
ATOM     16  F   UNL     1      36.795 -22.265 -18.804  0.00  0.00    -0.202 F 
ATOM     17  C   UNL     1      35.237 -19.014 -20.804  0.00  0.00    +0.006 C 
ATOM     18  C   UNL     1      36.616 -19.148 -20.669  0.00  0.00    +0.138 C 
ATOM     19  C   UNL     1      34.381 -19.971 -20.268  0.00  0.00    +0.030 C 
ATOM     20  C   UNL     1      34.908 -21.071 -19.589  0.00  0.00    +0.167 C 
ATOM     21  C   UNL     1      37.143 -20.247 -19.992  0.00  0.00    +0.061 C 
ATOM     22  C   UNL     1      36.289 -21.209 -19.453  0.00  0.00    +0.170 C 
ENDBRANCH   3  17
BRANCH  12  23
ATOM     23  S   UNL     1      33.128  -9.626 -23.443  0.00  0.00    +0.007 S 
ATOM     24  O   UNL     1      34.391  -8.902 -23.440  0.00  0.00    -0.169 OA
ATOM     25  O   UNL     1      32.167  -9.400 -24.513  0.00  0.00    -0.169 OA
ATOM     26  C   UNL     1      32.293  -9.280 -21.912  0.00  0.00    +0.181 C 
ENDBRANCH  12  23
BRANCH   4  27
ATOM     27  N   UNL     1      34.938 -18.863 -23.810  0.00  0.00    +0.383 N 
ATOM     28  H   UNL     1      35.597 -19.590 -23.530  0.00  0.00    -0.089 HD
ATOM     29  H   UNL     1      35.078 -18.641 -24.796  0.00  0.00    -0.089 HD
ATOM     30  H   UNL     1      33.984 -19.194 -23.668  0.00  0.00    -0.089 HD
ENDBRANCH   4  27
TORSDOF 3
ENDMDL
