MODEL 1
REMARK VINA RESULT:     -11.7      0.000      0.000
REMARK  Name = 11978813
REMARK  7 active torsions:
REMARK  status: ('A' for Active; 'I' for Inactive)
REMARK    1  A    between atoms: C_1  and  N_2
REMARK    2  A    between atoms: C_1  and  C_18
REMARK    3  A    between atoms: N_3  and  C_10
REMARK    4  A    between atoms: C_18  and  C_19
REMARK    5  A    between atoms: C_19  and  C_20
REMARK    6  A    between atoms: C_20  and  O_21
REMARK    7  A    between atoms: O_21  and  C_24
REMARK                            x       y       z     vdW  Elec       q    Type
REMARK                         _______ _______ _______ _____ _____    ______ ____
ROOT
ATOM      1  C   UNL     1      35.989 -21.759 -18.686  0.00  0.00    -0.077 C 
ENDROOT
BRANCH   1   2
ATOM      2  N   UNL     1      35.895 -20.935 -19.890  0.00  0.00    +0.389 N 
ATOM      3  N   UNL     1      35.313 -18.581 -21.400  0.00  0.00    -0.312 N 
ATOM      4  C   UNL     1      34.505 -20.534 -20.133  0.00  0.00    -0.055 C 
ATOM      5  C   UNL     1      36.744 -19.744 -19.766  0.00  0.00    -0.055 C 
ATOM      6  C   UNL     1      34.385 -19.718 -21.422  0.00  0.00    +0.068 C 
ATOM      7  C   UNL     1      36.699 -18.900 -21.043  0.00  0.00    +0.068 C 
ATOM      8  H   UNL     1      36.221 -21.490 -20.681  0.00  0.00    -0.080 HD
BRANCH   3  10
ATOM      9  S   UNL     1      34.298 -13.644 -21.825  0.00  0.00    -0.086 S 
ATOM     10  C   UNL     1      35.047 -17.497 -22.245  0.00  0.00    +0.048 C 
ATOM     11  C   UNL     1      34.811 -16.176 -21.743  0.00  0.00    +0.020 C 
ATOM     12  C   UNL     1      35.006 -17.699 -23.642  0.00  0.00    +0.015 C 
ATOM     13  C   UNL     1      34.550 -15.139 -22.644  0.00  0.00    +0.031 C 
ATOM     14  C   UNL     1      34.795 -15.703 -20.389  0.00  0.00    +0.009 C 
ATOM     15  C   UNL     1      34.744 -16.654 -24.517  0.00  0.00    +0.002 C 
ATOM     16  C   UNL     1      34.513 -15.363 -24.035  0.00  0.00    +0.007 C 
ATOM     17  C   UNL     1      34.531 -14.358 -20.295  0.00  0.00    +0.035 C 
ENDBRANCH   3  10
ENDBRANCH   1   2
BRANCH   1  18
ATOM     18  C   UNL     1      36.827 -21.053 -17.622  0.00  0.00    -0.019 C 
BRANCH  18  19
ATOM     19  C   UNL     1      37.276 -22.028 -16.535  0.00  0.00    +0.045 C 
BRANCH  19  20
ATOM     20  C   UNL     1      36.161 -22.308 -15.536  0.00  0.00    +0.205 C 
BRANCH  20  21
ATOM     21  O   UNL     1      35.467 -23.492 -15.908  0.00  0.00    -0.475 OA
BRANCH  21  24
ATOM     22  O   UNL     1      28.494 -22.386 -16.785  0.00  0.00    -0.270 OA
ATOM     23  N   UNL     1      30.754 -22.734 -16.516  0.00  0.00    -0.280 N 
ATOM     24  C   UNL     1      34.178 -23.619 -15.460  0.00  0.00    +0.140 C 
ATOM     25  C   UNL     1      33.134 -23.108 -16.222  0.00  0.00    +0.052 C 
ATOM     26  C   UNL     1      31.823 -23.244 -15.757  0.00  0.00    +0.054 C 
ATOM     27  C   UNL     1      33.932 -24.258 -14.249  0.00  0.00    +0.037 C 
ATOM     28  C   UNL     1      31.559 -23.884 -14.541  0.00  0.00    +0.014 C 
ATOM     29  C   UNL     1      32.621 -24.392 -13.787  0.00  0.00    +0.004 C 
ATOM     30  C   UNL     1      30.174 -24.005 -14.092  0.00  0.00    +0.006 C 
ATOM     31  C   UNL     1      29.433 -22.829 -16.126  0.00  0.00    +0.250 C 
ATOM     32  C   UNL     1      29.173 -23.512 -14.830  0.00  0.00    +0.058 C 
ATOM     33  H   UNL     1      30.958 -22.286 -17.369  0.00  0.00    +0.155 HD
ENDBRANCH  21  24
ENDBRANCH  20  21
ENDBRANCH  19  20
ENDBRANCH  18  19
ENDBRANCH   1  18
TORSDOF 7
ENDMDL
MODEL 2
REMARK VINA RESULT:     -11.4      3.468      6.161
REMARK  Name = 11978813
REMARK  7 active torsions:
REMARK  status: ('A' for Active; 'I' for Inactive)
REMARK    1  A    between atoms: C_1  and  N_2
REMARK    2  A    between atoms: C_1  and  C_18
REMARK    3  A    between atoms: N_3  and  C_10
REMARK    4  A    between atoms: C_18  and  C_19
REMARK    5  A    between atoms: C_19  and  C_20
REMARK    6  A    between atoms: C_20  and  O_21
REMARK    7  A    between atoms: O_21  and  C_24
REMARK                            x       y       z     vdW  Elec       q    Type
REMARK                         _______ _______ _______ _____ _____    ______ ____
ROOT
ATOM      1  C   UNL     1      34.989 -16.380 -24.044  0.00  0.00    -0.077 C 
ENDROOT
BRANCH   1   2
ATOM      2  N   UNL     1      34.061 -15.540 -23.289  0.00  0.00    +0.389 N 
ATOM      3  N   UNL     1      33.072 -13.112 -22.155  0.00  0.00    -0.312 N 
ATOM      4  C   UNL     1      34.739 -14.927 -22.140  0.00  0.00    -0.055 C 
ATOM      5  C   UNL     1      33.493 -14.496 -24.149  0.00  0.00    -0.055 C 
ATOM      6  C   UNL     1      33.763 -14.092 -21.308  0.00  0.00    +0.068 C 
ATOM      7  C   UNL     1      32.476 -13.645 -23.385  0.00  0.00    +0.068 C 
ATOM      8  H   UNL     1      33.304 -16.132 -22.946  0.00  0.00    -0.080 HD
BRANCH   3  10
ATOM      9  S   UNL     1      31.704  -8.256 -22.533  0.00  0.00    -0.086 S 
ATOM     10  C   UNL     1      32.503 -11.993 -21.537  0.00  0.00    +0.048 C 
ATOM     11  C   UNL     1      32.357 -10.737 -22.212  0.00  0.00    +0.020 C 
ATOM     12  C   UNL     1      32.053 -12.090 -20.202  0.00  0.00    +0.015 C 
ATOM     13  C   UNL     1      31.779  -9.659 -21.534  0.00  0.00    +0.031 C 
ATOM     14  C   UNL     1      32.725 -10.371 -23.550  0.00  0.00    +0.009 C 
ATOM     15  C   UNL     1      31.483 -11.006 -19.549  0.00  0.00    +0.002 C 
ATOM     16  C   UNL     1      31.338  -9.779 -20.201  0.00  0.00    +0.007 C 
ATOM     17  C   UNL     1      32.427  -9.063 -23.848  0.00  0.00    +0.035 C 
ENDBRANCH   3  10
ENDBRANCH   1   2
BRANCH   1  18
ATOM     18  C   UNL     1      34.654 -17.857 -23.842  0.00  0.00    -0.019 C 
BRANCH  18  19
ATOM     19  C   UNL     1      35.694 -18.543 -22.956  0.00  0.00    +0.045 C 
BRANCH  19  20
ATOM     20  C   UNL     1      35.216 -18.657 -21.515  0.00  0.00    +0.205 C 
BRANCH  20  21
ATOM     21  O   UNL     1      34.298 -19.735 -21.395  0.00  0.00    -0.475 OA
BRANCH  21  24
ATOM     22  O   UNL     1      31.293 -23.410 -16.095  0.00  0.00    -0.270 OA
ATOM     23  N   UNL     1      32.249 -22.214 -17.815  0.00  0.00    -0.280 N 
ATOM     24  C   UNL     1      34.415 -20.526 -20.280  0.00  0.00    +0.140 C 
ATOM     25  C   UNL     1      33.269 -20.960 -19.624  0.00  0.00    +0.052 C 
ATOM     26  C   UNL     1      33.399 -21.766 -18.491  0.00  0.00    +0.054 C 
ATOM     27  C   UNL     1      35.678 -20.882 -19.822  0.00  0.00    +0.037 C 
ATOM     28  C   UNL     1      34.662 -22.133 -18.016  0.00  0.00    +0.014 C 
ATOM     29  C   UNL     1      35.805 -21.688 -18.687  0.00  0.00    +0.004 C 
ATOM     30  C   UNL     1      34.754 -22.977 -16.827  0.00  0.00    +0.006 C 
ATOM     31  C   UNL     1      32.294 -23.013 -16.690  0.00  0.00    +0.250 C 
ATOM     32  C   UNL     1      33.646 -23.393 -16.200  0.00  0.00    +0.058 C 
ATOM     33  H   UNL     1      31.368 -21.945 -18.163  0.00  0.00    +0.155 HD
ENDBRANCH  21  24
ENDBRANCH  20  21
ENDBRANCH  19  20
ENDBRANCH  18  19
ENDBRANCH   1  18
TORSDOF 7
ENDMDL
MODEL 3
REMARK VINA RESULT:     -11.3      5.145      8.291
REMARK  Name = 11978813
REMARK  7 active torsions:
REMARK  status: ('A' for Active; 'I' for Inactive)
REMARK    1  A    between atoms: C_1  and  N_2
REMARK    2  A    between atoms: C_1  and  C_18
REMARK    3  A    between atoms: N_3  and  C_10
REMARK    4  A    between atoms: C_18  and  C_19
REMARK    5  A    between atoms: C_19  and  C_20
REMARK    6  A    between atoms: C_20  and  O_21
REMARK    7  A    between atoms: O_21  and  C_24
REMARK                            x       y       z     vdW  Elec       q    Type
REMARK                         _______ _______ _______ _____ _____    ______ ____
ROOT
ATOM      1  C   UNL     1      33.477 -14.458 -22.163  0.00  0.00    -0.077 C 
ENDROOT
BRANCH   1   2
ATOM      2  N   UNL     1      32.896 -13.224 -22.690  0.00  0.00    +0.389 N 
ATOM      3  N   UNL     1      32.510 -10.401 -22.893  0.00  0.00    -0.312 N 
ATOM      4  C   UNL     1      32.190 -12.494 -21.631  0.00  0.00    -0.055 C 
ATOM      5  C   UNL     1      33.937 -12.372 -23.275  0.00  0.00    -0.055 C 
ATOM      6  C   UNL     1      31.527 -11.229 -22.183  0.00  0.00    +0.068 C 
ATOM      7  C   UNL     1      33.334 -11.102 -23.882  0.00  0.00    +0.068 C 
ATOM      8  H   UNL     1      32.227 -13.474 -23.419  0.00  0.00    -0.080 HD
BRANCH   3  10
ATOM      9  S   UNL     1      32.353  -5.771 -20.861  0.00  0.00    -0.086 S 
ATOM     10  C   UNL     1      32.222  -9.043 -23.067  0.00  0.00    +0.048 C 
ATOM     11  C   UNL     1      32.388  -8.084 -22.016  0.00  0.00    +0.020 C 
ATOM     12  C   UNL     1      31.751  -8.588 -24.318  0.00  0.00    +0.015 C 
ATOM     13  C   UNL     1      32.080  -6.741 -22.259  0.00  0.00    +0.031 C 
ATOM     14  C   UNL     1      32.843  -8.275 -20.669  0.00  0.00    +0.009 C 
ATOM     15  C   UNL     1      31.452  -7.250 -24.537  0.00  0.00    +0.002 C 
ATOM     16  C   UNL     1      31.611  -6.310 -23.516  0.00  0.00    +0.007 C 
ATOM     17  C   UNL     1      32.871  -7.109 -19.942  0.00  0.00    +0.035 C 
ENDBRANCH   3  10
ENDBRANCH   1   2
BRANCH   1  18
ATOM     18  C   UNL     1      34.704 -14.859 -22.981  0.00  0.00    -0.019 C 
BRANCH  18  19
ATOM     19  C   UNL     1      34.370 -15.982 -23.962  0.00  0.00    +0.045 C 
BRANCH  19  20
ATOM     20  C   UNL     1      34.966 -17.311 -23.516  0.00  0.00    +0.205 C 
BRANCH  20  21
ATOM     21  O   UNL     1      35.681 -17.135 -22.300  0.00  0.00    -0.475 OA
BRANCH  21  24
ATOM     22  O   UNL     1      32.583 -22.358 -18.593  0.00  0.00    -0.270 OA
ATOM     23  N   UNL     1      33.569 -20.661 -19.796  0.00  0.00    -0.280 N 
ATOM     24  C   UNL     1      35.777 -18.227 -21.476  0.00  0.00    +0.140 C 
ATOM     25  C   UNL     1      34.621 -18.878 -21.063  0.00  0.00    +0.052 C 
ATOM     26  C   UNL     1      34.729 -19.990 -20.224  0.00  0.00    +0.054 C 
ATOM     27  C   UNL     1      37.030 -18.667 -21.065  0.00  0.00    +0.037 C 
ATOM     28  C   UNL     1      35.982 -20.445 -19.800  0.00  0.00    +0.014 C 
ATOM     29  C   UNL     1      37.136 -19.779 -20.225  0.00  0.00    +0.004 C 
ATOM     30  C   UNL     1      36.052 -21.612 -18.923  0.00  0.00    +0.006 C 
ATOM     31  C   UNL     1      33.593 -21.766 -18.969  0.00  0.00    +0.250 C 
ATOM     32  C   UNL     1      34.935 -22.235 -18.529  0.00  0.00    +0.058 C 
ATOM     33  H   UNL     1      32.695 -20.325 -20.103  0.00  0.00    +0.155 HD
ENDBRANCH  21  24
ENDBRANCH  20  21
ENDBRANCH  19  20
ENDBRANCH  18  19
ENDBRANCH   1  18
TORSDOF 7
ENDMDL
MODEL 4
REMARK VINA RESULT:     -11.2      3.179      6.009
REMARK  Name = 11978813
REMARK  7 active torsions:
REMARK  status: ('A' for Active; 'I' for Inactive)
REMARK    1  A    between atoms: C_1  and  N_2
REMARK    2  A    between atoms: C_1  and  C_18
REMARK    3  A    between atoms: N_3  and  C_10
REMARK    4  A    between atoms: C_18  and  C_19
REMARK    5  A    between atoms: C_19  and  C_20
REMARK    6  A    between atoms: C_20  and  O_21
REMARK    7  A    between atoms: O_21  and  C_24
REMARK                            x       y       z     vdW  Elec       q    Type
REMARK                         _______ _______ _______ _____ _____    ______ ____
ROOT
ATOM      1  C   UNL     1      34.800 -17.388 -24.169  0.00  0.00    -0.077 C 
ENDROOT
BRANCH   1   2
ATOM      2  N   UNL     1      34.692 -15.932 -24.096  0.00  0.00    +0.389 N 
ATOM      3  N   UNL     1      33.500 -13.437 -23.376  0.00  0.00    -0.312 N 
ATOM      4  C   UNL     1      33.470 -15.472 -24.767  0.00  0.00    -0.055 C 
ATOM      5  C   UNL     1      34.694 -15.483 -22.699  0.00  0.00    -0.055 C 
ATOM      6  C   UNL     1      33.375 -13.944 -24.748  0.00  0.00    +0.068 C 
ATOM      7  C   UNL     1      34.638 -13.957 -22.610  0.00  0.00    +0.068 C 
ATOM      8  H   UNL     1      35.500 -15.529 -24.572  0.00  0.00    -0.080 HD
BRANCH   3  10
ATOM      9  S   UNL     1      31.377 -10.318 -20.007  0.00  0.00    -0.086 S 
ATOM     10  C   UNL     1      33.002 -12.159 -23.098  0.00  0.00    +0.048 C 
ATOM     11  C   UNL     1      32.461 -11.811 -21.819  0.00  0.00    +0.020 C 
ATOM     12  C   UNL     1      33.028 -11.170 -24.105  0.00  0.00    +0.015 C 
ATOM     13  C   UNL     1      31.979 -10.514 -21.610  0.00  0.00    +0.031 C 
ATOM     14  C   UNL     1      32.317 -12.613 -20.638  0.00  0.00    +0.009 C 
ATOM     15  C   UNL     1      32.544  -9.889 -23.875  0.00  0.00    +0.002 C 
ATOM     16  C   UNL     1      32.014  -9.543 -22.630  0.00  0.00    +0.007 C 
ATOM     17  C   UNL     1      31.748 -11.929 -19.592  0.00  0.00    +0.035 C 
ENDBRANCH   3  10
ENDBRANCH   1   2
BRANCH   1  18
ATOM     18  C   UNL     1      35.322 -17.948 -22.847  0.00  0.00    -0.019 C 
BRANCH  18  19
ATOM     19  C   UNL     1      34.581 -19.227 -22.458  0.00  0.00    +0.045 C 
BRANCH  19  20
ATOM     20  C   UNL     1      34.591 -19.445 -20.951  0.00  0.00    +0.205 C 
BRANCH  20  21
ATOM     21  O   UNL     1      35.537 -20.452 -20.616  0.00  0.00    -0.475 OA
BRANCH  21  24
ATOM     22  O   UNL     1      37.849 -23.089 -14.426  0.00  0.00    -0.270 OA
ATOM     23  N   UNL     1      37.118 -22.230 -16.433  0.00  0.00    -0.280 N 
ATOM     24  C   UNL     1      35.306 -21.159 -19.464  0.00  0.00    +0.140 C 
ATOM     25  C   UNL     1      36.334 -21.329 -18.545  0.00  0.00    +0.052 C 
ATOM     26  C   UNL     1      36.088 -22.050 -17.374  0.00  0.00    +0.054 C 
ATOM     27  C   UNL     1      34.045 -21.698 -19.232  0.00  0.00    +0.037 C 
ATOM     28  C   UNL     1      34.825 -22.599 -17.126  0.00  0.00    +0.014 C 
ATOM     29  C   UNL     1      33.801 -22.419 -18.060  0.00  0.00    +0.004 C 
ATOM     30  C   UNL     1      34.610 -23.346 -15.889  0.00  0.00    +0.006 C 
ATOM     31  C   UNL     1      36.954 -22.929 -15.253  0.00  0.00    +0.250 C 
ATOM     32  C   UNL     1      35.604 -23.505 -15.007  0.00  0.00    +0.058 C 
ATOM     33  H   UNL     1      38.001 -21.838 -16.625  0.00  0.00    +0.155 HD
ENDBRANCH  21  24
ENDBRANCH  20  21
ENDBRANCH  19  20
ENDBRANCH  18  19
ENDBRANCH   1  18
TORSDOF 7
ENDMDL
MODEL 5
REMARK VINA RESULT:     -11.2      3.137      5.480
REMARK  Name = 11978813
REMARK  7 active torsions:
REMARK  status: ('A' for Active; 'I' for Inactive)
REMARK    1  A    between atoms: C_1  and  N_2
REMARK    2  A    between atoms: C_1  and  C_18
REMARK    3  A    between atoms: N_3  and  C_10
REMARK    4  A    between atoms: C_18  and  C_19
REMARK    5  A    between atoms: C_19  and  C_20
REMARK    6  A    between atoms: C_20  and  O_21
REMARK    7  A    between atoms: O_21  and  C_24
REMARK                            x       y       z     vdW  Elec       q    Type
REMARK                         _______ _______ _______ _____ _____    ______ ____
ROOT
ATOM      1  C   UNL     1      34.717 -17.317 -24.142  0.00  0.00    -0.077 C 
ENDROOT
BRANCH   1   2
ATOM      2  N   UNL     1      34.636 -15.861 -24.049  0.00  0.00    +0.389 N 
ATOM      3  N   UNL     1      33.471 -13.353 -23.330  0.00  0.00    -0.312 N 
ATOM      4  C   UNL     1      33.449 -15.364 -24.755  0.00  0.00    -0.055 C 
ATOM      5  C   UNL     1      34.596 -15.435 -22.645  0.00  0.00    -0.055 C 
ATOM      6  C   UNL     1      33.384 -13.836 -24.714  0.00  0.00    +0.068 C 
ATOM      7  C   UNL     1      34.569 -13.909 -22.532  0.00  0.00    +0.068 C 
ATOM      8  H   UNL     1      35.469 -15.468 -24.488  0.00  0.00    -0.080 HD
BRANCH   3  10
ATOM      9  S   UNL     1      31.406 -10.211 -19.946  0.00  0.00    -0.086 S 
ATOM     10  C   UNL     1      32.989 -12.070 -23.049  0.00  0.00    +0.048 C 
ATOM     11  C   UNL     1      32.460 -11.716 -21.765  0.00  0.00    +0.020 C 
ATOM     12  C   UNL     1      33.019 -11.081 -24.056  0.00  0.00    +0.015 C 
ATOM     13  C   UNL     1      31.995 -10.414 -21.553  0.00  0.00    +0.031 C 
ATOM     14  C   UNL     1      32.315 -12.517 -20.584  0.00  0.00    +0.009 C 
ATOM     15  C   UNL     1      32.551  -9.795 -23.822  0.00  0.00    +0.002 C 
ATOM     16  C   UNL     1      32.034  -9.442 -22.573  0.00  0.00    +0.007 C 
ATOM     17  C   UNL     1      31.761 -11.826 -19.533  0.00  0.00    +0.035 C 
ENDBRANCH   3  10
ENDBRANCH   1   2
BRANCH   1  18
ATOM     18  C   UNL     1      35.210 -17.908 -22.822  0.00  0.00    -0.019 C 
BRANCH  18  19
ATOM     19  C   UNL     1      34.842 -19.386 -22.706  0.00  0.00    +0.045 C 
BRANCH  19  20
ATOM     20  C   UNL     1      34.502 -19.769 -21.272  0.00  0.00    +0.205 C 
BRANCH  20  21
ATOM     21  O   UNL     1      35.579 -20.500 -20.700  0.00  0.00    -0.475 OA
BRANCH  21  24
ATOM     22  O   UNL     1      30.990 -23.450 -16.133  0.00  0.00    -0.270 OA
ATOM     23  N   UNL     1      32.461 -22.489 -17.621  0.00  0.00    -0.280 N 
ATOM     24  C   UNL     1      35.328 -21.147 -19.518  0.00  0.00    +0.140 C 
ATOM     25  C   UNL     1      34.022 -21.482 -19.182  0.00  0.00    +0.052 C 
ATOM     26  C   UNL     1      33.778 -22.143 -17.976  0.00  0.00    +0.054 C 
ATOM     27  C   UNL     1      36.386 -21.460 -18.670  0.00  0.00    +0.037 C 
ATOM     28  C   UNL     1      34.830 -22.464 -17.112  0.00  0.00    +0.014 C 
ATOM     29  C   UNL     1      36.139 -22.121 -17.464  0.00  0.00    +0.004 C 
ATOM     30  C   UNL     1      34.531 -23.156 -15.860  0.00  0.00    +0.006 C 
ATOM     31  C   UNL     1      32.138 -23.143 -16.448  0.00  0.00    +0.250 C 
ATOM     32  C   UNL     1      33.271 -23.477 -15.543  0.00  0.00    +0.058 C 
ATOM     33  H   UNL     1      31.732 -22.254 -18.241  0.00  0.00    +0.155 HD
ENDBRANCH  21  24
ENDBRANCH  20  21
ENDBRANCH  19  20
ENDBRANCH  18  19
ENDBRANCH   1  18
TORSDOF 7
ENDMDL
MODEL 6
REMARK VINA RESULT:     -10.9      2.428      4.560
REMARK  Name = 11978813
REMARK  7 active torsions:
REMARK  status: ('A' for Active; 'I' for Inactive)
REMARK    1  A    between atoms: C_1  and  N_2
REMARK    2  A    between atoms: C_1  and  C_18
REMARK    3  A    between atoms: N_3  and  C_10
REMARK    4  A    between atoms: C_18  and  C_19
REMARK    5  A    between atoms: C_19  and  C_20
REMARK    6  A    between atoms: C_20  and  O_21
REMARK    7  A    between atoms: O_21  and  C_24
REMARK                            x       y       z     vdW  Elec       q    Type
REMARK                         _______ _______ _______ _____ _____    ______ ____
ROOT
ATOM      1  C   UNL     1      36.058 -21.655 -18.798  0.00  0.00    -0.077 C 
ENDROOT
BRANCH   1   2
ATOM      2  N   UNL     1      35.944 -20.831 -20.000  0.00  0.00    +0.389 N 
ATOM      3  N   UNL     1      35.321 -18.483 -21.503  0.00  0.00    -0.312 N 
ATOM      4  C   UNL     1      34.546 -20.445 -20.230  0.00  0.00    -0.055 C 
ATOM      5  C   UNL     1      36.780 -19.631 -19.884  0.00  0.00    -0.055 C 
ATOM      6  C   UNL     1      34.406 -19.630 -21.517  0.00  0.00    +0.068 C 
ATOM      7  C   UNL     1      36.714 -18.787 -21.159  0.00  0.00    +0.068 C 
ATOM      8  H   UNL     1      36.268 -21.382 -20.795  0.00  0.00    -0.080 HD
BRANCH   3  10
ATOM      9  S   UNL     1      34.262 -13.553 -21.915  0.00  0.00    -0.086 S 
ATOM     10  C   UNL     1      35.035 -17.402 -22.344  0.00  0.00    +0.048 C 
ATOM     11  C   UNL     1      34.796 -16.082 -21.840  0.00  0.00    +0.020 C 
ATOM     12  C   UNL     1      34.976 -17.604 -23.741  0.00  0.00    +0.015 C 
ATOM     13  C   UNL     1      34.514 -15.047 -22.738  0.00  0.00    +0.031 C 
ATOM     14  C   UNL     1      34.795 -15.608 -20.486  0.00  0.00    +0.009 C 
ATOM     15  C   UNL     1      34.694 -16.561 -24.613  0.00  0.00    +0.002 C 
ATOM     16  C   UNL     1      34.460 -15.272 -24.127  0.00  0.00    +0.007 C 
ATOM     17  C   UNL     1      34.521 -14.265 -20.389  0.00  0.00    +0.035 C 
ENDBRANCH   3  10
ENDBRANCH   1   2
BRANCH   1  18
ATOM     18  C   UNL     1      34.718 -21.714 -18.065  0.00  0.00    -0.019 C 
BRANCH  18  19
ATOM     19  C   UNL     1      34.151 -23.133 -18.065  0.00  0.00    +0.045 C 
BRANCH  19  20
ATOM     20  C   UNL     1      33.583 -23.510 -16.704  0.00  0.00    +0.205 C 
BRANCH  20  21
ATOM     21  O   UNL     1      34.262 -22.792 -15.682  0.00  0.00    -0.475 OA
BRANCH  21  24
ATOM     22  O   UNL     1      40.885 -25.123 -14.535  0.00  0.00    -0.270 OA
ATOM     23  N   UNL     1      38.747 -24.362 -14.922  0.00  0.00    -0.280 N 
ATOM     24  C   UNL     1      35.159 -23.498 -14.922  0.00  0.00    +0.140 C 
ATOM     25  C   UNL     1      36.489 -23.565 -15.318  0.00  0.00    +0.052 C 
ATOM     26  C   UNL     1      37.397 -24.285 -14.536  0.00  0.00    +0.054 C 
ATOM     27  C   UNL     1      34.726 -24.137 -13.766  0.00  0.00    +0.037 C 
ATOM     28  C   UNL     1      36.976 -24.934 -13.371  0.00  0.00    +0.014 C 
ATOM     29  C   UNL     1      35.634 -24.857 -12.986  0.00  0.00    +0.004 C 
ATOM     30  C   UNL     1      37.956 -25.676 -12.582  0.00  0.00    +0.006 C 
ATOM     31  C   UNL     1      39.703 -25.053 -14.204  0.00  0.00    +0.250 C 
ATOM     32  C   UNL     1      39.237 -25.736 -12.968  0.00  0.00    +0.058 C 
ATOM     33  H   UNL     1      39.025 -23.900 -15.747  0.00  0.00    +0.155 HD
ENDBRANCH  21  24
ENDBRANCH  20  21
ENDBRANCH  19  20
ENDBRANCH  18  19
ENDBRANCH   1  18
TORSDOF 7
ENDMDL
MODEL 7
REMARK VINA RESULT:     -10.9      2.451      3.968
REMARK  Name = 11978813
REMARK  7 active torsions:
REMARK  status: ('A' for Active; 'I' for Inactive)
REMARK    1  A    between atoms: C_1  and  N_2
REMARK    2  A    between atoms: C_1  and  C_18
REMARK    3  A    between atoms: N_3  and  C_10
REMARK    4  A    between atoms: C_18  and  C_19
REMARK    5  A    between atoms: C_19  and  C_20
REMARK    6  A    between atoms: C_20  and  O_21
REMARK    7  A    between atoms: O_21  and  C_24
REMARK                            x       y       z     vdW  Elec       q    Type
REMARK                         _______ _______ _______ _____ _____    ______ ____
ROOT
ATOM      1  C   UNL     1      36.181 -21.590 -19.204  0.00  0.00    -0.077 C 
ENDROOT
BRANCH   1   2
ATOM      2  N   UNL     1      36.037 -20.701 -20.356  0.00  0.00    +0.389 N 
ATOM      3  N   UNL     1      35.304 -18.304 -21.725  0.00  0.00    -0.312 N 
ATOM      4  C   UNL     1      34.623 -20.381 -20.586  0.00  0.00    -0.055 C 
ATOM      5  C   UNL     1      36.803 -19.466 -20.153  0.00  0.00    -0.055 C 
ATOM      6  C   UNL     1      34.454 -19.497 -21.824  0.00  0.00    +0.068 C 
ATOM      7  C   UNL     1      36.706 -18.551 -21.376  0.00  0.00    +0.068 C 
ATOM      8  H   UNL     1      36.403 -21.184 -21.178  0.00  0.00    -0.080 HD
BRANCH   3  10
ATOM      9  S   UNL     1      34.135 -13.384 -21.868  0.00  0.00    -0.086 S 
ATOM     10  C   UNL     1      34.968 -17.191 -22.504  0.00  0.00    +0.048 C 
ATOM     11  C   UNL     1      34.720 -15.902 -21.930  0.00  0.00    +0.020 C 
ATOM     12  C   UNL     1      34.866 -17.329 -23.906  0.00  0.00    +0.015 C 
ATOM     13  C   UNL     1      34.389 -14.832 -22.769  0.00  0.00    +0.031 C 
ATOM     14  C   UNL     1      34.756 -15.492 -20.556  0.00  0.00    +0.009 C 
ATOM     15  C   UNL     1      34.535 -16.253 -24.718  0.00  0.00    +0.002 C 
ATOM     16  C   UNL     1      34.292 -14.993 -24.165  0.00  0.00    +0.007 C 
ATOM     17  C   UNL     1      34.460 -14.161 -20.387  0.00  0.00    +0.035 C 
ENDBRANCH   3  10
ENDBRANCH   1   2
BRANCH   1  18
ATOM     18  C   UNL     1      34.924 -21.544 -18.337  0.00  0.00    -0.019 C 
BRANCH  18  19
ATOM     19  C   UNL     1      34.205 -22.892 -18.335  0.00  0.00    +0.045 C 
BRANCH  19  20
ATOM     20  C   UNL     1      33.675 -23.244 -16.951  0.00  0.00    +0.205 C 
BRANCH  20  21
ATOM     21  O   UNL     1      34.447 -24.299 -16.393  0.00  0.00    -0.475 OA
BRANCH  21  24
ATOM     22  O   UNL     1      35.369 -25.024  -9.376  0.00  0.00    -0.270 OA
ATOM     23  N   UNL     1      35.055 -24.799 -11.646  0.00  0.00    -0.280 N 
ATOM     24  C   UNL     1      35.150 -24.015 -15.251  0.00  0.00    +0.140 C 
ATOM     25  C   UNL     1      34.736 -24.555 -14.039  0.00  0.00    +0.052 C 
ATOM     26  C   UNL     1      35.460 -24.260 -12.880  0.00  0.00    +0.054 C 
ATOM     27  C   UNL     1      36.267 -23.190 -15.320  0.00  0.00    +0.037 C 
ATOM     28  C   UNL     1      36.586 -23.432 -12.933  0.00  0.00    +0.014 C 
ATOM     29  C   UNL     1      36.989 -22.896 -14.160  0.00  0.00    +0.004 C 
ATOM     30  C   UNL     1      37.314 -23.149 -11.699  0.00  0.00    +0.006 C 
ATOM     31  C   UNL     1      35.716 -24.556 -10.458  0.00  0.00    +0.250 C 
ATOM     32  C   UNL     1      36.911 -23.672 -10.535  0.00  0.00    +0.058 C 
ATOM     33  H   UNL     1      34.259 -25.379 -11.627  0.00  0.00    +0.155 HD
ENDBRANCH  21  24
ENDBRANCH  20  21
ENDBRANCH  19  20
ENDBRANCH  18  19
ENDBRANCH   1  18
TORSDOF 7
ENDMDL
MODEL 8
REMARK VINA RESULT:     -10.9      4.036     10.035
REMARK  Name = 11978813
REMARK  7 active torsions:
REMARK  status: ('A' for Active; 'I' for Inactive)
REMARK    1  A    between atoms: C_1  and  N_2
REMARK    2  A    between atoms: C_1  and  C_18
REMARK    3  A    between atoms: N_3  and  C_10
REMARK    4  A    between atoms: C_18  and  C_19
REMARK    5  A    between atoms: C_19  and  C_20
REMARK    6  A    between atoms: C_20  and  O_21
REMARK    7  A    between atoms: O_21  and  C_24
REMARK                            x       y       z     vdW  Elec       q    Type
REMARK                         _______ _______ _______ _____ _____    ______ ____
ROOT
ATOM      1  C   UNL     1      36.027 -20.635 -20.197  0.00  0.00    -0.077 C 
ENDROOT
BRANCH   1   2
ATOM      2  N   UNL     1      35.680 -21.660 -19.214  0.00  0.00    +0.389 N 
ATOM      3  N   UNL     1      34.482 -22.694 -16.835  0.00  0.00    -0.312 N 
ATOM      4  C   UNL     1      36.230 -21.318 -17.897  0.00  0.00    -0.055 C 
ATOM      5  C   UNL     1      34.224 -21.814 -19.122  0.00  0.00    -0.055 C 
ATOM      6  C   UNL     1      35.922 -22.412 -16.872  0.00  0.00    +0.068 C 
ATOM      7  C   UNL     1      33.848 -22.924 -18.137  0.00  0.00    +0.068 C 
ATOM      8  H   UNL     1      36.086 -22.545 -19.520  0.00  0.00    -0.080 HD
BRANCH   3  10
ATOM      9  S   UNL     1      30.382 -23.917 -14.137  0.00  0.00    -0.086 S 
ATOM     10  C   UNL     1      33.960 -23.307 -15.691  0.00  0.00    +0.048 C 
ATOM     11  C   UNL     1      32.554 -23.352 -15.421  0.00  0.00    +0.020 C 
ATOM     12  C   UNL     1      34.838 -23.906 -14.762  0.00  0.00    +0.015 C 
ATOM     13  C   UNL     1      32.100 -23.981 -14.257  0.00  0.00    +0.031 C 
ATOM     14  C   UNL     1      31.459 -22.829 -16.187  0.00  0.00    +0.009 C 
ATOM     15  C   UNL     1      34.365 -24.525 -13.613  0.00  0.00    +0.002 C 
ATOM     16  C   UNL     1      32.995 -24.572 -13.343  0.00  0.00    +0.007 C 
ATOM     17  C   UNL     1      30.237 -23.066 -15.606  0.00  0.00    +0.035 C 
ENDBRANCH   3  10
ENDBRANCH   1   2
BRANCH   1  18
ATOM     18  C   UNL     1      34.779 -19.864 -20.624  0.00  0.00    -0.019 C 
BRANCH  18  19
ATOM     19  C   UNL     1      35.028 -19.079 -21.911  0.00  0.00    +0.045 C 
BRANCH  19  20
ATOM     20  C   UNL     1      35.980 -17.913 -21.682  0.00  0.00    +0.205 C 
BRANCH  20  21
ATOM     21  O   UNL     1      35.418 -17.010 -20.739  0.00  0.00    -0.475 OA
BRANCH  21  24
ATOM     22  O   UNL     1      31.390 -11.222 -19.792  0.00  0.00    -0.270 OA
ATOM     23  N   UNL     1      32.690 -13.100 -20.081  0.00  0.00    -0.280 N 
ATOM     24  C   UNL     1      34.812 -15.888 -21.242  0.00  0.00    +0.140 C 
ATOM     25  C   UNL     1      34.063 -15.076 -20.399  0.00  0.00    +0.052 C 
ATOM     26  C   UNL     1      33.451 -13.933 -20.921  0.00  0.00    +0.054 C 
ATOM     27  C   UNL     1      34.955 -15.577 -22.590  0.00  0.00    +0.037 C 
ATOM     28  C   UNL     1      33.585 -13.607 -22.275  0.00  0.00    +0.014 C 
ATOM     29  C   UNL     1      34.341 -14.435 -23.110  0.00  0.00    +0.004 C 
ATOM     30  C   UNL     1      32.929 -12.404 -22.781  0.00  0.00    +0.006 C 
ATOM     31  C   UNL     1      32.056 -11.955 -20.521  0.00  0.00    +0.250 C 
ATOM     32  C   UNL     1      32.209 -11.625 -21.963  0.00  0.00    +0.058 C 
ATOM     33  H   UNL     1      32.606 -13.346 -19.131  0.00  0.00    +0.155 HD
ENDBRANCH  21  24
ENDBRANCH  20  21
ENDBRANCH  19  20
ENDBRANCH  18  19
ENDBRANCH   1  18
TORSDOF 7
ENDMDL
MODEL 9
REMARK VINA RESULT:     -10.8      4.309      7.846
REMARK  Name = 11978813
REMARK  7 active torsions:
REMARK  status: ('A' for Active; 'I' for Inactive)
REMARK    1  A    between atoms: C_1  and  N_2
REMARK    2  A    between atoms: C_1  and  C_18
REMARK    3  A    between atoms: N_3  and  C_10
REMARK    4  A    between atoms: C_18  and  C_19
REMARK    5  A    between atoms: C_19  and  C_20
REMARK    6  A    between atoms: C_20  and  O_21
REMARK    7  A    between atoms: O_21  and  C_24
REMARK                            x       y       z     vdW  Elec       q    Type
REMARK                         _______ _______ _______ _____ _____    ______ ____
ROOT
ATOM      1  C   UNL     1      33.849 -14.534 -24.599  0.00  0.00    -0.077 C 
ENDROOT
BRANCH   1   2
ATOM      2  N   UNL     1      33.042 -13.621 -23.792  0.00  0.00    +0.389 N 
ATOM      3  N   UNL     1      32.559 -11.643 -21.788  0.00  0.00    -0.312 N 
ATOM      4  C   UNL     1      33.140 -13.967 -22.369  0.00  0.00    -0.055 C 
ATOM      5  C   UNL     1      33.471 -12.233 -23.999  0.00  0.00    -0.055 C 
ATOM      6  C   UNL     1      32.253 -13.053 -21.519  0.00  0.00    +0.068 C 
ATOM      7  C   UNL     1      32.597 -11.261 -23.203  0.00  0.00    +0.068 C 
ATOM      8  H   UNL     1      32.069 -13.712 -24.087  0.00  0.00    -0.080 HD
BRANCH   3  10
ATOM      9  S   UNL     1      32.208  -6.760 -20.515  0.00  0.00    -0.086 S 
ATOM     10  C   UNL     1      32.198 -10.696 -20.822  0.00  0.00    +0.048 C 
ATOM     11  C   UNL     1      32.337  -9.287 -21.044  0.00  0.00    +0.020 C 
ATOM     12  C   UNL     1      31.679 -11.130 -19.583  0.00  0.00    +0.015 C 
ATOM     13  C   UNL     1      31.957  -8.396 -20.035  0.00  0.00    +0.031 C 
ATOM     14  C   UNL     1      32.829  -8.587 -22.195  0.00  0.00    +0.009 C 
ATOM     15  C   UNL     1      31.309 -10.226 -18.596  0.00  0.00    +0.002 C 
ATOM     16  C   UNL     1      31.441  -8.852 -18.805  0.00  0.00    +0.007 C 
ATOM     17  C   UNL     1      32.813  -7.222 -22.039  0.00  0.00    +0.035 C 
ENDBRANCH   3  10
ENDBRANCH   1   2
BRANCH   1  18
ATOM     18  C   UNL     1      34.373 -15.683 -23.738  0.00  0.00    -0.019 C 
BRANCH  18  19
ATOM     19  C   UNL     1      34.315 -17.010 -24.493  0.00  0.00    +0.045 C 
BRANCH  19  20
ATOM     20  C   UNL     1      34.967 -18.135 -23.700  0.00  0.00    +0.205 C 
BRANCH  20  21
ATOM     21  O   UNL     1      35.252 -17.693 -22.380  0.00  0.00    -0.475 OA
BRANCH  21  24
ATOM     22  O   UNL     1      32.685 -22.770 -18.109  0.00  0.00    -0.270 OA
ATOM     23  N   UNL     1      33.499 -21.122 -19.496  0.00  0.00    -0.280 N 
ATOM     24  C   UNL     1      35.453 -18.663 -21.433  0.00  0.00    +0.140 C 
ATOM     25  C   UNL     1      34.370 -19.390 -20.954  0.00  0.00    +0.052 C 
ATOM     26  C   UNL     1      34.585 -20.377 -19.990  0.00  0.00    +0.054 C 
ATOM     27  C   UNL     1      36.739 -18.906 -20.962  0.00  0.00    +0.037 C 
ATOM     28  C   UNL     1      35.872 -20.634 -19.506  0.00  0.00    +0.014 C 
ATOM     29  C   UNL     1      36.952 -19.894 -19.997  0.00  0.00    +0.004 C 
ATOM     30  C   UNL     1      36.054 -21.675 -18.498  0.00  0.00    +0.006 C 
ATOM     31  C   UNL     1      33.630 -22.114 -18.544  0.00  0.00    +0.250 C 
ATOM     32  C   UNL     1      35.006 -22.373 -18.042  0.00  0.00    +0.058 C 
ATOM     33  H   UNL     1      32.599 -20.927 -19.847  0.00  0.00    +0.155 HD
ENDBRANCH  21  24
ENDBRANCH  20  21
ENDBRANCH  19  20
ENDBRANCH  18  19
ENDBRANCH   1  18
TORSDOF 7
ENDMDL
