MODEL 1
REMARK VINA RESULT:     -11.8      0.000      0.000
REMARK  Name = 6914614
REMARK  7 active torsions:
REMARK  status: ('A' for Active; 'I' for Inactive)
REMARK    1  A    between atoms: O_1  and  C_4
REMARK    2  A    between atoms: O_1  and  C_18
REMARK    3  A    between atoms: C_9  and  C_13
REMARK    4  A    between atoms: C_18  and  C_19
REMARK    5  A    between atoms: C_19  and  N_20
REMARK    6  A    between atoms: C_19  and  C_24
REMARK    7  A    between atoms: C_24  and  C_26
REMARK                            x       y       z     vdW  Elec       q    Type
REMARK                         _______ _______ _______ _____ _____    ______ ____
ROOT
ATOM      1  O   UNL     1      35.988 -20.507 -19.606  0.00  0.00    -0.476 OA
ENDROOT
BRANCH   1   4
ATOM      2  N   UNL     1      35.052 -23.432 -15.879  0.00  0.00    -0.404 NA
ATOM      3  N   UNL     1      33.005 -22.365 -18.708  0.00  0.00    -0.258 NA
ATOM      4  C   UNL     1      35.173 -21.331 -18.895  0.00  0.00    +0.159 C 
ATOM      5  C   UNL     1      35.588 -21.961 -17.714  0.00  0.00    +0.063 C 
ATOM      6  C   UNL     1      34.703 -22.803 -17.019  0.00  0.00    +0.136 C 
ATOM      7  C   UNL     1      36.874 -21.780 -17.189  0.00  0.00    +0.008 C 
ATOM      8  C   UNL     1      33.886 -21.565 -19.343  0.00  0.00    +0.130 C 
ATOM      9  C   UNL     1      36.304 -23.232 -15.405  0.00  0.00    +0.131 C 
ATOM     10  C   UNL     1      37.243 -22.425 -16.016  0.00  0.00    +0.032 C 
ATOM     11  C   UNL     1      33.442 -22.955 -17.570  0.00  0.00    +0.184 C 
BRANCH   9  13
ATOM     12  N   UNL     1      37.199 -25.298 -11.810  0.00  0.00    -0.242 NA
ATOM     13  C   UNL     1      36.609 -23.935 -14.182  0.00  0.00    +0.033 C 
ATOM     14  C   UNL     1      35.660 -24.019 -13.167  0.00  0.00    +0.023 C 
ATOM     15  C   UNL     1      37.853 -24.533 -14.009  0.00  0.00    +0.023 C 
ATOM     16  C   UNL     1      36.001 -24.706 -12.013  0.00  0.00    +0.099 C 
ATOM     17  C   UNL     1      38.096 -25.197 -12.816  0.00  0.00    +0.099 C 
ENDBRANCH   9  13
ENDBRANCH   1   4
BRANCH   1  18
ATOM     18  C   UNL     1      35.416 -19.837 -20.730  0.00  0.00    +0.184 C 
BRANCH  18  19
ATOM     19  C   UNL     1      36.174 -18.547 -21.069  0.00  0.00    -0.017 C 
BRANCH  19  20
ATOM     20  N   UNL     1      37.606 -18.855 -21.160  0.00  0.00    +0.384 N 
ATOM     21  H   UNL     1      37.740 -19.865 -21.119  0.00  0.00    -0.089 HD
ATOM     22  H   UNL     1      38.098 -18.415 -20.383  0.00  0.00    -0.089 HD
ATOM     23  H   UNL     1      37.976 -18.499 -22.041  0.00  0.00    -0.089 HD
ENDBRANCH  19  20
BRANCH  19  24
ATOM     24  C   UNL     1      35.730 -17.888 -22.390  0.00  0.00    +0.009 C 
BRANCH  24  26
ATOM     25  N   UNL     1      34.401 -14.677 -21.273  0.00  0.00    -0.312 N 
ATOM     26  C   UNL     1      35.102 -16.536 -22.206  0.00  0.00    -0.008 C 
ATOM     27  C   UNL     1      34.481 -15.774 -23.213  0.00  0.00    +0.011 C 
ATOM     28  C   UNL     1      34.044 -14.598 -22.600  0.00  0.00    +0.048 C 
ATOM     29  C   UNL     1      35.048 -15.858 -21.027  0.00  0.00    +0.058 C 
ATOM     30  C   UNL     1      34.240 -15.951 -24.591  0.00  0.00    +0.001 C 
ATOM     31  C   UNL     1      33.374 -13.586 -23.298  0.00  0.00    +0.015 C 
ATOM     32  C   UNL     1      33.571 -14.948 -25.301  0.00  0.00    +0.000 C 
ATOM     33  C   UNL     1      33.145 -13.784 -24.663  0.00  0.00    +0.001 C 
ATOM     34  H   UNL     1      34.218 -13.983 -20.599  0.00  0.00    +0.152 HD
ENDBRANCH  24  26
ENDBRANCH  19  24
ENDBRANCH  18  19
ENDBRANCH   1  18
TORSDOF 7
ENDMDL
MODEL 2
REMARK VINA RESULT:     -11.7      1.069      1.813
REMARK  Name = 6914614
REMARK  7 active torsions:
REMARK  status: ('A' for Active; 'I' for Inactive)
REMARK    1  A    between atoms: O_1  and  C_4
REMARK    2  A    between atoms: O_1  and  C_18
REMARK    3  A    between atoms: C_9  and  C_13
REMARK    4  A    between atoms: C_18  and  C_19
REMARK    5  A    between atoms: C_19  and  N_20
REMARK    6  A    between atoms: C_19  and  C_24
REMARK    7  A    between atoms: C_24  and  C_26
REMARK                            x       y       z     vdW  Elec       q    Type
REMARK                         _______ _______ _______ _____ _____    ______ ____
ROOT
ATOM      1  O   UNL     1      35.775 -20.507 -19.498  0.00  0.00    -0.476 OA
ENDROOT
BRANCH   1   4
ATOM      2  N   UNL     1      35.201 -23.536 -15.781  0.00  0.00    -0.404 NA
ATOM      3  N   UNL     1      32.937 -22.509 -18.455  0.00  0.00    -0.258 NA
ATOM      4  C   UNL     1      35.043 -21.379 -18.755  0.00  0.00    +0.159 C 
ATOM      5  C   UNL     1      35.557 -22.011 -17.615  0.00  0.00    +0.063 C 
ATOM      6  C   UNL     1      34.754 -22.903 -16.884  0.00  0.00    +0.136 C 
ATOM      7  C   UNL     1      36.865 -21.783 -17.167  0.00  0.00    +0.008 C 
ATOM      8  C   UNL     1      33.741 -21.661 -19.127  0.00  0.00    +0.130 C 
ATOM      9  C   UNL     1      36.470 -23.290 -15.381  0.00  0.00    +0.131 C 
ATOM     10  C   UNL     1      37.334 -22.432 -16.032  0.00  0.00    +0.032 C 
ATOM     11  C   UNL     1      33.468 -23.101 -17.359  0.00  0.00    +0.184 C 
BRANCH   9  13
ATOM     12  N   UNL     1      37.675 -25.381 -11.893  0.00  0.00    -0.242 NA
ATOM     13  C   UNL     1      36.881 -24.002 -14.194  0.00  0.00    +0.033 C 
ATOM     14  C   UNL     1      37.049 -25.382 -14.229  0.00  0.00    +0.023 C 
ATOM     15  C   UNL     1      37.109 -23.312 -13.007  0.00  0.00    +0.023 C 
ATOM     16  C   UNL     1      37.445 -26.019 -13.063  0.00  0.00    +0.099 C 
ATOM     17  C   UNL     1      37.501 -24.041 -11.896  0.00  0.00    +0.099 C 
ENDBRANCH   9  13
ENDBRANCH   1   4
BRANCH   1  18
ATOM     18  C   UNL     1      35.128 -19.899 -20.615  0.00  0.00    +0.184 C 
BRANCH  18  19
ATOM     19  C   UNL     1      35.934 -18.716 -21.166  0.00  0.00    -0.017 C 
BRANCH  19  20
ATOM     20  N   UNL     1      37.352 -18.930 -20.856  0.00  0.00    +0.384 N 
ATOM     21  H   UNL     1      37.452 -19.768 -20.282  0.00  0.00    -0.089 HD
ATOM     22  H   UNL     1      37.715 -18.125 -20.348  0.00  0.00    -0.089 HD
ATOM     23  H   UNL     1      37.875 -19.049 -21.724  0.00  0.00    -0.089 HD
ENDBRANCH  19  20
BRANCH  19  24
ATOM     24  C   UNL     1      35.789 -18.513 -22.687  0.00  0.00    +0.009 C 
BRANCH  24  26
ATOM     25  N   UNL     1      34.290 -15.574 -24.250  0.00  0.00    -0.312 N 
ATOM     26  C   UNL     1      35.165 -17.198 -23.061  0.00  0.00    -0.008 C 
ATOM     27  C   UNL     1      34.844 -16.157 -22.170  0.00  0.00    +0.011 C 
ATOM     28  C   UNL     1      34.290 -15.136 -22.945  0.00  0.00    +0.048 C 
ATOM     29  C   UNL     1      34.823 -16.832 -24.327  0.00  0.00    +0.058 C 
ATOM     30  C   UNL     1      34.962 -15.964 -20.779  0.00  0.00    +0.001 C 
ATOM     31  C   UNL     1      33.845 -13.928 -22.397  0.00  0.00    +0.015 C 
ATOM     32  C   UNL     1      34.522 -14.761 -20.216  0.00  0.00    +0.000 C 
ATOM     33  C   UNL     1      33.972 -13.759 -21.015  0.00  0.00    +0.001 C 
ATOM     34  H   UNL     1      33.954 -15.057 -25.017  0.00  0.00    +0.152 HD
ENDBRANCH  24  26
ENDBRANCH  19  24
ENDBRANCH  18  19
ENDBRANCH   1  18
TORSDOF 7
ENDMDL
MODEL 3
REMARK VINA RESULT:     -11.6      2.273      9.925
REMARK  Name = 6914614
REMARK  7 active torsions:
REMARK  status: ('A' for Active; 'I' for Inactive)
REMARK    1  A    between atoms: O_1  and  C_4
REMARK    2  A    between atoms: O_1  and  C_18
REMARK    3  A    between atoms: C_9  and  C_13
REMARK    4  A    between atoms: C_18  and  C_19
REMARK    5  A    between atoms: C_19  and  N_20
REMARK    6  A    between atoms: C_19  and  C_24
REMARK    7  A    between atoms: C_24  and  C_26
REMARK                            x       y       z     vdW  Elec       q    Type
REMARK                         _______ _______ _______ _____ _____    ______ ____
ROOT
ATOM      1  O   UNL     1      36.554 -22.341 -17.984  0.00  0.00    -0.476 OA
ENDROOT
BRANCH   1   4
ATOM      2  N   UNL     1      34.085 -19.467 -20.977  0.00  0.00    -0.404 NA
ATOM      3  N   UNL     1      33.024 -22.202 -18.804  0.00  0.00    -0.258 NA
ATOM      4  C   UNL     1      35.405 -21.920 -18.578  0.00  0.00    +0.159 C 
ATOM      5  C   UNL     1      35.379 -20.867 -19.500  0.00  0.00    +0.063 C 
ATOM      6  C   UNL     1      34.164 -20.473 -20.084  0.00  0.00    +0.136 C 
ATOM      7  C   UNL     1      36.541 -20.177 -19.872  0.00  0.00    +0.008 C 
ATOM      8  C   UNL     1      34.212 -22.547 -18.268  0.00  0.00    +0.130 C 
ATOM      9  C   UNL     1      35.229 -18.825 -21.309  0.00  0.00    +0.131 C 
ATOM     10  C   UNL     1      36.470 -19.138 -20.790  0.00  0.00    +0.032 C 
ATOM     11  C   UNL     1      33.039 -21.180 -19.693  0.00  0.00    +0.184 C 
BRANCH   9  13
ATOM     12  N   UNL     1      34.764 -15.694 -24.132  0.00  0.00    -0.242 NA
ATOM     13  C   UNL     1      35.070 -17.759 -22.270  0.00  0.00    +0.033 C 
ATOM     14  C   UNL     1      34.779 -18.052 -23.598  0.00  0.00    +0.023 C 
ATOM     15  C   UNL     1      35.210 -16.433 -21.873  0.00  0.00    +0.023 C 
ATOM     16  C   UNL     1      34.635 -16.993 -24.482  0.00  0.00    +0.099 C 
ATOM     17  C   UNL     1      35.048 -15.446 -22.834  0.00  0.00    +0.099 C 
ENDBRANCH   9  13
ENDBRANCH   1   4
BRANCH   1  18
ATOM     18  C   UNL     1      36.762 -21.959 -16.625  0.00  0.00    +0.184 C 
BRANCH  18  19
ATOM     19  C   UNL     1      36.177 -22.987 -15.648  0.00  0.00    -0.017 C 
BRANCH  19  20
ATOM     20  N   UNL     1      37.273 -23.556 -14.855  0.00  0.00    +0.384 N 
ATOM     21  H   UNL     1      38.131 -23.550 -15.407  0.00  0.00    -0.089 HD
ATOM     22  H   UNL     1      37.043 -24.515 -14.596  0.00  0.00    -0.089 HD
ATOM     23  H   UNL     1      37.408 -22.999 -14.011  0.00  0.00    -0.089 HD
ENDBRANCH  19  20
BRANCH  19  24
ATOM     24  C   UNL     1      35.125 -22.407 -14.683  0.00  0.00    +0.009 C 
BRANCH  24  26
ATOM     25  N   UNL     1      33.350 -25.111 -12.990  0.00  0.00    -0.312 N 
ATOM     26  C   UNL     1      34.170 -23.435 -14.147  0.00  0.00    -0.008 C 
ATOM     27  C   UNL     1      32.825 -23.588 -14.532  0.00  0.00    +0.011 C 
ATOM     28  C   UNL     1      32.323 -24.657 -13.786  0.00  0.00    +0.048 C 
ATOM     29  C   UNL     1      34.480 -24.368 -13.206  0.00  0.00    +0.058 C 
ATOM     30  C   UNL     1      31.967 -22.933 -15.439  0.00  0.00    +0.001 C 
ATOM     31  C   UNL     1      31.002 -25.105 -13.901  0.00  0.00    +0.015 C 
ATOM     32  C   UNL     1      30.644 -23.370 -15.565  0.00  0.00    +0.000 C 
ATOM     33  C   UNL     1      30.170 -24.440 -14.807  0.00  0.00    +0.001 C 
ATOM     34  H   UNL     1      33.282 -25.861 -12.356  0.00  0.00    +0.152 HD
ENDBRANCH  24  26
ENDBRANCH  19  24
ENDBRANCH  18  19
ENDBRANCH   1  18
TORSDOF 7
ENDMDL
MODEL 4
REMARK VINA RESULT:     -11.5      2.865     10.718
REMARK  Name = 6914614
REMARK  7 active torsions:
REMARK  status: ('A' for Active; 'I' for Inactive)
REMARK    1  A    between atoms: O_1  and  C_4
REMARK    2  A    between atoms: O_1  and  C_18
REMARK    3  A    between atoms: C_9  and  C_13
REMARK    4  A    between atoms: C_18  and  C_19
REMARK    5  A    between atoms: C_19  and  N_20
REMARK    6  A    between atoms: C_19  and  C_24
REMARK    7  A    between atoms: C_24  and  C_26
REMARK                            x       y       z     vdW  Elec       q    Type
REMARK                         _______ _______ _______ _____ _____    ______ ____
ROOT
ATOM      1  O   UNL     1      35.510 -17.080 -23.107  0.00  0.00    -0.476 OA
ENDROOT
BRANCH   1   4
ATOM      2  N   UNL     1      32.724 -13.140 -22.916  0.00  0.00    -0.404 NA
ATOM      3  N   UNL     1      33.499 -15.442 -25.642  0.00  0.00    -0.258 NA
ATOM      4  C   UNL     1      34.669 -16.170 -23.666  0.00  0.00    +0.159 C 
ATOM      5  C   UNL     1      34.132 -15.099 -22.941  0.00  0.00    +0.063 C 
ATOM      6  C   UNL     1      33.268 -14.187 -23.570  0.00  0.00    +0.136 C 
ATOM      7  C   UNL     1      34.428 -14.898 -21.586  0.00  0.00    +0.008 C 
ATOM      8  C   UNL     1      34.324 -16.294 -25.000  0.00  0.00    +0.130 C 
ATOM      9  C   UNL     1      33.035 -12.981 -21.609  0.00  0.00    +0.131 C 
ATOM     10  C   UNL     1      33.872 -13.823 -20.905  0.00  0.00    +0.032 C 
ATOM     11  C   UNL     1      33.000 -14.419 -24.908  0.00  0.00    +0.184 C 
BRANCH   9  13
ATOM     12  N   UNL     1      31.221  -9.632 -19.741  0.00  0.00    -0.242 NA
ATOM     13  C   UNL     1      32.418 -11.841 -20.973  0.00  0.00    +0.033 C 
ATOM     14  C   UNL     1      32.206 -11.836 -19.598  0.00  0.00    +0.023 C 
ATOM     15  C   UNL     1      32.031 -10.740 -21.732  0.00  0.00    +0.023 C 
ATOM     16  C   UNL     1      31.610 -10.718 -19.036  0.00  0.00    +0.099 C 
ATOM     17  C   UNL     1      31.443  -9.671 -21.074  0.00  0.00    +0.099 C 
ENDBRANCH   9  13
ENDBRANCH   1   4
BRANCH   1  18
ATOM     18  C   UNL     1      34.998 -18.395 -22.893  0.00  0.00    +0.184 C 
BRANCH  18  19
ATOM     19  C   UNL     1      35.528 -19.008 -21.591  0.00  0.00    -0.017 C 
BRANCH  19  20
ATOM     20  N   UNL     1      35.716 -17.932 -20.609  0.00  0.00    +0.384 N 
ATOM     21  H   UNL     1      36.166 -18.309 -19.774  0.00  0.00    -0.089 HD
ATOM     22  H   UNL     1      34.809 -17.540 -20.358  0.00  0.00    -0.089 HD
ATOM     23  H   UNL     1      36.303 -17.202 -21.012  0.00  0.00    -0.089 HD
ENDBRANCH  19  20
BRANCH  19  24
ATOM     24  C   UNL     1      34.602 -20.075 -20.976  0.00  0.00    +0.009 C 
BRANCH  24  26
ATOM     25  N   UNL     1      36.682 -21.576 -18.377  0.00  0.00    -0.312 N 
ATOM     26  C   UNL     1      35.207 -20.793 -19.803  0.00  0.00    -0.008 C 
ATOM     27  C   UNL     1      34.500 -21.533 -18.838  0.00  0.00    +0.011 C 
ATOM     28  C   UNL     1      35.453 -22.021 -17.942  0.00  0.00    +0.048 C 
ATOM     29  C   UNL     1      36.537 -20.825 -19.513  0.00  0.00    +0.058 C 
ATOM     30  C   UNL     1      33.142 -21.846 -18.620  0.00  0.00    +0.001 C 
ATOM     31  C   UNL     1      35.118 -22.809 -16.835  0.00  0.00    +0.015 C 
ATOM     32  C   UNL     1      32.792 -22.633 -17.518  0.00  0.00    +0.000 C 
ATOM     33  C   UNL     1      33.766 -23.107 -16.640  0.00  0.00    +0.001 C 
ATOM     34  H   UNL     1      37.539 -21.769 -17.935  0.00  0.00    +0.152 HD
ENDBRANCH  24  26
ENDBRANCH  19  24
ENDBRANCH  18  19
ENDBRANCH   1  18
TORSDOF 7
ENDMDL
MODEL 5
REMARK VINA RESULT:     -11.2      2.366     11.312
REMARK  Name = 6914614
REMARK  7 active torsions:
REMARK  status: ('A' for Active; 'I' for Inactive)
REMARK    1  A    between atoms: O_1  and  C_4
REMARK    2  A    between atoms: O_1  and  C_18
REMARK    3  A    between atoms: C_9  and  C_13
REMARK    4  A    between atoms: C_18  and  C_19
REMARK    5  A    between atoms: C_19  and  N_20
REMARK    6  A    between atoms: C_19  and  C_24
REMARK    7  A    between atoms: C_24  and  C_26
REMARK                            x       y       z     vdW  Elec       q    Type
REMARK                         _______ _______ _______ _____ _____    ______ ____
ROOT
ATOM      1  O   UNL     1      35.598 -17.295 -21.316  0.00  0.00    -0.476 OA
ENDROOT
BRANCH   1   4
ATOM      2  N   UNL     1      33.397 -13.716 -23.695  0.00  0.00    -0.404 NA
ATOM      3  N   UNL     1      34.598 -16.985 -24.788  0.00  0.00    -0.258 NA
ATOM      4  C   UNL     1      35.069 -16.740 -22.439  0.00  0.00    +0.159 C 
ATOM      5  C   UNL     1      34.492 -15.463 -22.445  0.00  0.00    +0.063 C 
ATOM      6  C   UNL     1      33.962 -14.938 -23.636  0.00  0.00    +0.136 C 
ATOM      7  C   UNL     1      34.424 -14.674 -21.290  0.00  0.00    +0.008 C 
ATOM      8  C   UNL     1      35.096 -17.451 -23.625  0.00  0.00    +0.130 C 
ATOM      9  C   UNL     1      33.349 -12.985 -22.557  0.00  0.00    +0.131 C 
ATOM     10  C   UNL     1      33.843 -13.414 -21.341  0.00  0.00    +0.032 C 
ATOM     11  C   UNL     1      34.050 -15.748 -24.756  0.00  0.00    +0.184 C 
BRANCH   9  13
ATOM     12  N   UNL     1      31.535  -9.172 -22.961  0.00  0.00    -0.242 NA
ATOM     13  C   UNL     1      32.731 -11.688 -22.695  0.00  0.00    +0.033 C 
ATOM     14  C   UNL     1      33.122 -10.831 -23.720  0.00  0.00    +0.023 C 
ATOM     15  C   UNL     1      31.742 -11.284 -21.803  0.00  0.00    +0.023 C 
ATOM     16  C   UNL     1      32.498  -9.597 -23.810  0.00  0.00    +0.099 C 
ATOM     17  C   UNL     1      31.181 -10.029 -21.978  0.00  0.00    +0.099 C 
ENDBRANCH   9  13
ENDBRANCH   1   4
BRANCH   1  18
ATOM     18  C   UNL     1      36.012 -18.659 -21.396  0.00  0.00    +0.184 C 
BRANCH  18  19
ATOM     19  C   UNL     1      35.105 -19.579 -20.569  0.00  0.00    -0.017 C 
BRANCH  19  20
ATOM     20  N   UNL     1      33.886 -19.853 -21.341  0.00  0.00    +0.384 N 
ATOM     21  H   UNL     1      33.878 -20.832 -21.627  0.00  0.00    -0.089 HD
ATOM     22  H   UNL     1      33.866 -19.256 -22.167  0.00  0.00    -0.089 HD
ATOM     23  H   UNL     1      33.068 -19.661 -20.763  0.00  0.00    -0.089 HD
ENDBRANCH  19  20
BRANCH  19  24
ATOM     24  C   UNL     1      35.755 -20.923 -20.188  0.00  0.00    +0.009 C 
BRANCH  24  26
ATOM     25  N   UNL     1      33.432 -22.726 -18.024  0.00  0.00    -0.312 N 
ATOM     26  C   UNL     1      35.017 -21.663 -19.108  0.00  0.00    -0.008 C 
ATOM     27  C   UNL     1      35.534 -22.003 -17.844  0.00  0.00    +0.011 C 
ATOM     28  C   UNL     1      34.513 -22.677 -17.172  0.00  0.00    +0.048 C 
ATOM     29  C   UNL     1      33.735 -22.109 -19.208  0.00  0.00    +0.058 C 
ATOM     30  C   UNL     1      36.767 -21.813 -17.188  0.00  0.00    +0.001 C 
ATOM     31  C   UNL     1      34.662 -23.173 -15.872  0.00  0.00    +0.015 C 
ATOM     32  C   UNL     1      36.931 -22.303 -15.887  0.00  0.00    +0.000 C 
ATOM     33  C   UNL     1      35.893 -22.972 -15.241  0.00  0.00    +0.001 C 
ATOM     34  H   UNL     1      32.567 -23.145 -17.812  0.00  0.00    +0.152 HD
ENDBRANCH  24  26
ENDBRANCH  19  24
ENDBRANCH  18  19
ENDBRANCH   1  18
TORSDOF 7
ENDMDL
MODEL 6
REMARK VINA RESULT:     -10.9      4.100     12.529
REMARK  Name = 6914614
REMARK  7 active torsions:
REMARK  status: ('A' for Active; 'I' for Inactive)
REMARK    1  A    between atoms: O_1  and  C_4
REMARK    2  A    between atoms: O_1  and  C_18
REMARK    3  A    between atoms: C_9  and  C_13
REMARK    4  A    between atoms: C_18  and  C_19
REMARK    5  A    between atoms: C_19  and  N_20
REMARK    6  A    between atoms: C_19  and  C_24
REMARK    7  A    between atoms: C_24  and  C_26
REMARK                            x       y       z     vdW  Elec       q    Type
REMARK                         _______ _______ _______ _____ _____    ______ ____
ROOT
ATOM      1  O   UNL     1      34.606 -14.181 -22.615  0.00  0.00    -0.476 OA
ENDROOT
BRANCH   1   4
ATOM      2  N   UNL     1      31.749 -10.332 -22.030  0.00  0.00    -0.404 NA
ATOM      3  N   UNL     1      31.916 -13.526 -20.271  0.00  0.00    -0.258 NA
ATOM      4  C   UNL     1      33.599 -13.510 -21.995  0.00  0.00    +0.159 C 
ATOM      5  C   UNL     1      33.210 -12.219 -22.377  0.00  0.00    +0.063 C 
ATOM      6  C   UNL     1      32.162 -11.572 -21.701  0.00  0.00    +0.136 C 
ATOM      7  C   UNL     1      33.837 -11.537 -23.428  0.00  0.00    +0.008 C 
ATOM      8  C   UNL     1      32.926 -14.111 -20.946  0.00  0.00    +0.130 C 
ATOM      9  C   UNL     1      32.381  -9.705 -23.051  0.00  0.00    +0.131 C 
ATOM     10  C   UNL     1      33.419 -10.258 -23.773  0.00  0.00    +0.032 C 
ATOM     11  C   UNL     1      31.568 -12.280 -20.670  0.00  0.00    +0.184 C 
BRANCH   9  13
ATOM     12  N   UNL     1      30.933  -5.816 -23.924  0.00  0.00    -0.242 NA
ATOM     13  C   UNL     1      31.887  -8.382 -23.348  0.00  0.00    +0.033 C 
ATOM     14  C   UNL     1      32.047  -7.845 -24.622  0.00  0.00    +0.023 C 
ATOM     15  C   UNL     1      31.251  -7.633 -22.363  0.00  0.00    +0.023 C 
ATOM     16  C   UNL     1      31.556  -6.571 -24.857  0.00  0.00    +0.099 C 
ATOM     17  C   UNL     1      30.796  -6.368 -22.699  0.00  0.00    +0.099 C 
ENDBRANCH   9  13
ENDBRANCH   1   4
BRANCH   1  18
ATOM     18  C   UNL     1      34.405 -15.573 -22.862  0.00  0.00    +0.184 C 
BRANCH  18  19
ATOM     19  C   UNL     1      35.372 -16.441 -22.047  0.00  0.00    -0.017 C 
BRANCH  19  20
ATOM     20  N   UNL     1      34.993 -16.364 -20.632  0.00  0.00    +0.384 N 
ATOM     21  H   UNL     1      35.828 -16.219 -20.063  0.00  0.00    -0.089 HD
ATOM     22  H   UNL     1      34.538 -17.232 -20.353  0.00  0.00    -0.089 HD
ATOM     23  H   UNL     1      34.350 -15.584 -20.494  0.00  0.00    -0.089 HD
ENDBRANCH  19  20
BRANCH  19  24
ATOM     24  C   UNL     1      35.390 -17.924 -22.468  0.00  0.00    +0.009 C 
BRANCH  24  26
ATOM     25  N   UNL     1      37.149 -19.897 -19.950  0.00  0.00    -0.312 N 
ATOM     26  C   UNL     1      35.854 -18.852 -21.382  0.00  0.00    -0.008 C 
ATOM     27  C   UNL     1      35.042 -19.753 -20.668  0.00  0.00    +0.011 C 
ATOM     28  C   UNL     1      35.884 -20.406 -19.765  0.00  0.00    +0.048 C 
ATOM     29  C   UNL     1      37.137 -18.947 -20.936  0.00  0.00    +0.058 C 
ATOM     30  C   UNL     1      33.674 -20.091 -20.686  0.00  0.00    +0.001 C 
ATOM     31  C   UNL     1      35.424 -21.384 -18.875  0.00  0.00    +0.015 C 
ATOM     32  C   UNL     1      33.200 -21.068 -19.803  0.00  0.00    +0.000 C 
ATOM     33  C   UNL     1      34.064 -21.704 -18.912  0.00  0.00    +0.001 C 
ATOM     34  H   UNL     1      37.948 -20.175 -19.446  0.00  0.00    +0.152 HD
ENDBRANCH  24  26
ENDBRANCH  19  24
ENDBRANCH  18  19
ENDBRANCH   1  18
TORSDOF 7
ENDMDL
MODEL 7
REMARK VINA RESULT:     -10.8      2.329     10.451
REMARK  Name = 6914614
REMARK  7 active torsions:
REMARK  status: ('A' for Active; 'I' for Inactive)
REMARK    1  A    between atoms: O_1  and  C_4
REMARK    2  A    between atoms: O_1  and  C_18
REMARK    3  A    between atoms: C_9  and  C_13
REMARK    4  A    between atoms: C_18  and  C_19
REMARK    5  A    between atoms: C_19  and  N_20
REMARK    6  A    between atoms: C_19  and  C_24
REMARK    7  A    between atoms: C_24  and  C_26
REMARK                            x       y       z     vdW  Elec       q    Type
REMARK                         _______ _______ _______ _____ _____    ______ ____
ROOT
ATOM      1  O   UNL     1      33.852 -23.648 -16.817  0.00  0.00    -0.476 OA
ENDROOT
BRANCH   1   4
ATOM      2  N   UNL     1      35.932 -20.222 -19.512  0.00  0.00    -0.404 NA
ATOM      3  N   UNL     1      37.095 -22.043 -16.569  0.00  0.00    -0.258 NA
ATOM      4  C   UNL     1      34.882 -22.814 -17.124  0.00  0.00    +0.159 C 
ATOM      5  C   UNL     1      34.834 -21.930 -18.210  0.00  0.00    +0.063 C 
ATOM      6  C   UNL     1      35.928 -21.091 -18.481  0.00  0.00    +0.136 C 
ATOM      7  C   UNL     1      33.717 -21.848 -19.051  0.00  0.00    +0.008 C 
ATOM      8  C   UNL     1      36.024 -22.831 -16.344  0.00  0.00    +0.130 C 
ATOM      9  C   UNL     1      34.834 -20.173 -20.301  0.00  0.00    +0.131 C 
ATOM     10  C   UNL     1      33.712 -20.957 -20.116  0.00  0.00    +0.032 C 
ATOM     11  C   UNL     1      37.012 -21.201 -17.626  0.00  0.00    +0.184 C 
BRANCH   9  13
ATOM     12  N   UNL     1      35.050 -17.377 -23.483  0.00  0.00    -0.242 NA
ATOM     13  C   UNL     1      34.908 -19.222 -21.385  0.00  0.00    +0.033 C 
ATOM     14  C   UNL     1      35.408 -17.943 -21.160  0.00  0.00    +0.023 C 
ATOM     15  C   UNL     1      34.478 -19.577 -22.660  0.00  0.00    +0.023 C 
ATOM     16  C   UNL     1      35.459 -17.067 -22.232  0.00  0.00    +0.099 C 
ATOM     17  C   UNL     1      34.570 -18.627 -23.665  0.00  0.00    +0.099 C 
ENDBRANCH   9  13
ENDBRANCH   1   4
BRANCH   1  18
ATOM     18  C   UNL     1      32.803 -23.116 -16.008  0.00  0.00    +0.184 C 
BRANCH  18  19
ATOM     19  C   UNL     1      33.203 -23.049 -14.529  0.00  0.00    -0.017 C 
BRANCH  19  20
ATOM     20  N   UNL     1      32.092 -22.463 -13.769  0.00  0.00    +0.384 N 
ATOM     21  H   UNL     1      31.904 -23.036 -12.946  0.00  0.00    -0.089 HD
ATOM     22  H   UNL     1      31.260 -22.428 -14.356  0.00  0.00    -0.089 HD
ATOM     23  H   UNL     1      32.342 -21.518 -13.475  0.00  0.00    -0.089 HD
ENDBRANCH  19  20
BRANCH  19  24
ATOM     24  C   UNL     1      33.551 -24.417 -13.910  0.00  0.00    +0.009 C 
BRANCH  24  26
ATOM     25  N   UNL     1      36.302 -23.990 -11.548  0.00  0.00    -0.312 N 
ATOM     26  C   UNL     1      34.829 -24.412 -13.120  0.00  0.00    -0.008 C 
ATOM     27  C   UNL     1      36.014 -25.085 -13.470  0.00  0.00    +0.011 C 
ATOM     28  C   UNL     1      36.936 -24.805 -12.459  0.00  0.00    +0.048 C 
ATOM     29  C   UNL     1      35.015 -23.748 -11.947  0.00  0.00    +0.058 C 
ATOM     30  C   UNL     1      36.413 -25.910 -14.542  0.00  0.00    +0.001 C 
ATOM     31  C   UNL     1      38.242 -25.310 -12.465  0.00  0.00    +0.015 C 
ATOM     32  C   UNL     1      37.715 -26.422 -14.562  0.00  0.00    +0.000 C 
ATOM     33  C   UNL     1      38.615 -26.125 -13.538  0.00  0.00    +0.001 C 
ATOM     34  H   UNL     1      36.714 -23.635 -10.729  0.00  0.00    +0.152 HD
ENDBRANCH  24  26
ENDBRANCH  19  24
ENDBRANCH  18  19
ENDBRANCH   1  18
TORSDOF 7
ENDMDL
MODEL 8
REMARK VINA RESULT:     -10.8      4.732      8.699
REMARK  Name = 6914614
REMARK  7 active torsions:
REMARK  status: ('A' for Active; 'I' for Inactive)
REMARK    1  A    between atoms: O_1  and  C_4
REMARK    2  A    between atoms: O_1  and  C_18
REMARK    3  A    between atoms: C_9  and  C_13
REMARK    4  A    between atoms: C_18  and  C_19
REMARK    5  A    between atoms: C_19  and  N_20
REMARK    6  A    between atoms: C_19  and  C_24
REMARK    7  A    between atoms: C_24  and  C_26
REMARK                            x       y       z     vdW  Elec       q    Type
REMARK                         _______ _______ _______ _____ _____    ______ ____
ROOT
ATOM      1  O   UNL     1      33.657 -12.659 -23.164  0.00  0.00    -0.476 OA
ENDROOT
BRANCH   1   4
ATOM      2  N   UNL     1      34.739 -17.362 -22.989  0.00  0.00    -0.404 NA
ATOM      3  N   UNL     1      33.521 -15.245 -25.703  0.00  0.00    -0.258 NA
ATOM      4  C   UNL     1      33.772 -13.892 -23.726  0.00  0.00    +0.159 C 
ATOM      5  C   UNL     1      34.217 -15.008 -23.006  0.00  0.00    +0.063 C 
ATOM      6  C   UNL     1      34.317 -16.258 -23.638  0.00  0.00    +0.136 C 
ATOM      7  C   UNL     1      34.573 -14.923 -21.654  0.00  0.00    +0.008 C 
ATOM      8  C   UNL     1      33.441 -14.064 -25.058  0.00  0.00    +0.130 C 
ATOM      9  C   UNL     1      35.074 -17.239 -21.684  0.00  0.00    +0.131 C 
ATOM     10  C   UNL     1      35.010 -16.055 -20.978  0.00  0.00    +0.032 C 
ATOM     11  C   UNL     1      33.955 -16.301 -24.974  0.00  0.00    +0.184 C 
BRANCH   9  13
ATOM     12  N   UNL     1      36.376 -20.827 -19.834  0.00  0.00    -0.242 NA
ATOM     13  C   UNL     1      35.517 -18.460 -21.054  0.00  0.00    +0.033 C 
ATOM     14  C   UNL     1      36.870 -18.669 -20.807  0.00  0.00    +0.023 C 
ATOM     15  C   UNL     1      34.594 -19.436 -20.691  0.00  0.00    +0.023 C 
ATOM     16  C   UNL     1      37.245 -19.857 -20.199  0.00  0.00    +0.099 C 
ATOM     17  C   UNL     1      35.070 -20.591 -20.090  0.00  0.00    +0.099 C 
ENDBRANCH   9  13
ENDBRANCH   1   4
BRANCH   1  18
ATOM     18  C   UNL     1      33.701 -11.535 -24.043  0.00  0.00    +0.184 C 
BRANCH  18  19
ATOM     19  C   UNL     1      34.331 -10.310 -23.369  0.00  0.00    -0.017 C 
BRANCH  19  20
ATOM     20  N   UNL     1      35.595 -10.000 -24.047  0.00  0.00    +0.384 N 
ATOM     21  H   UNL     1      36.334 -10.600 -23.678  0.00  0.00    -0.089 HD
ATOM     22  H   UNL     1      35.838  -9.023 -23.885  0.00  0.00    -0.089 HD
ATOM     23  H   UNL     1      35.493 -10.164 -25.049  0.00  0.00    -0.089 HD
ENDBRANCH  19  20
BRANCH  19  24
ATOM     24  C   UNL     1      33.440  -9.052 -23.396  0.00  0.00    +0.009 C 
BRANCH  24  26
ATOM     25  N   UNL     1      32.932  -7.240 -20.267  0.00  0.00    -0.312 N 
ATOM     26  C   UNL     1      33.081  -8.541 -22.029  0.00  0.00    -0.008 C 
ATOM     27  C   UNL     1      32.318  -9.229 -21.068  0.00  0.00    +0.011 C 
ATOM     28  C   UNL     1      32.235  -8.386 -19.958  0.00  0.00    +0.048 C 
ATOM     29  C   UNL     1      33.450  -7.329 -21.531  0.00  0.00    +0.058 C 
ATOM     30  C   UNL     1      31.682 -10.486 -21.014  0.00  0.00    +0.001 C 
ATOM     31  C   UNL     1      31.545  -8.737 -18.792  0.00  0.00    +0.015 C 
ATOM     32  C   UNL     1      30.988 -10.851 -19.855  0.00  0.00    +0.000 C 
ATOM     33  C   UNL     1      30.922  -9.989 -18.762  0.00  0.00    +0.001 C 
ATOM     34  H   UNL     1      33.041  -6.468 -19.667  0.00  0.00    +0.152 HD
ENDBRANCH  24  26
ENDBRANCH  19  24
ENDBRANCH  18  19
ENDBRANCH   1  18
TORSDOF 7
ENDMDL
MODEL 9
REMARK VINA RESULT:     -10.8      4.579      8.397
REMARK  Name = 6914614
REMARK  7 active torsions:
REMARK  status: ('A' for Active; 'I' for Inactive)
REMARK    1  A    between atoms: O_1  and  C_4
REMARK    2  A    between atoms: O_1  and  C_18
REMARK    3  A    between atoms: C_9  and  C_13
REMARK    4  A    between atoms: C_18  and  C_19
REMARK    5  A    between atoms: C_19  and  N_20
REMARK    6  A    between atoms: C_19  and  C_24
REMARK    7  A    between atoms: C_24  and  C_26
REMARK                            x       y       z     vdW  Elec       q    Type
REMARK                         _______ _______ _______ _____ _____    ______ ____
ROOT
ATOM      1  O   UNL     1      33.768 -12.794 -22.736  0.00  0.00    -0.476 OA
ENDROOT
BRANCH   1   4
ATOM      2  N   UNL     1      34.905 -17.487 -22.775  0.00  0.00    -0.404 NA
ATOM      3  N   UNL     1      33.838 -15.220 -25.431  0.00  0.00    -0.258 NA
ATOM      4  C   UNL     1      33.938 -13.988 -23.363  0.00  0.00    +0.159 C 
ATOM      5  C   UNL     1      34.351 -15.141 -22.684  0.00  0.00    +0.063 C 
ATOM      6  C   UNL     1      34.510 -16.350 -23.382  0.00  0.00    +0.136 C 
ATOM      7  C   UNL     1      34.616 -15.136 -21.308  0.00  0.00    +0.008 C 
ATOM      8  C   UNL     1      33.698 -14.081 -24.722  0.00  0.00    +0.130 C 
ATOM      9  C   UNL     1      35.151 -17.441 -21.445  0.00  0.00    +0.131 C 
ATOM     10  C   UNL     1      35.024 -16.303 -20.674  0.00  0.00    +0.032 C 
ATOM     11  C   UNL     1      34.238 -16.313 -24.739  0.00  0.00    +0.184 C 
BRANCH   9  13
ATOM     12  N   UNL     1      36.381 -21.122 -19.734  0.00  0.00    -0.242 NA
ATOM     13  C   UNL     1      35.570 -18.693 -20.862  0.00  0.00    +0.033 C 
ATOM     14  C   UNL     1      36.913 -18.920 -20.580  0.00  0.00    +0.023 C 
ATOM     15  C   UNL     1      34.632 -19.683 -20.580  0.00  0.00    +0.023 C 
ATOM     16  C   UNL     1      37.264 -20.138 -20.020  0.00  0.00    +0.099 C 
ATOM     17  C   UNL     1      35.085 -20.867 -20.021  0.00  0.00    +0.099 C 
ENDBRANCH   9  13
ENDBRANCH   1   4
BRANCH   1  18
ATOM     18  C   UNL     1      32.457 -12.230 -22.753  0.00  0.00    +0.184 C 
BRANCH  18  19
ATOM     19  C   UNL     1      31.727 -12.443 -21.421  0.00  0.00    -0.017 C 
BRANCH  19  20
ATOM     20  N   UNL     1      32.725 -12.519 -20.347  0.00  0.00    +0.384 N 
ATOM     21  H   UNL     1      33.650 -12.665 -20.752  0.00  0.00    -0.089 HD
ATOM     22  H   UNL     1      32.498 -13.295 -19.727  0.00  0.00    -0.089 HD
ATOM     23  H   UNL     1      32.721 -11.647 -19.817  0.00  0.00    -0.089 HD
ENDBRANCH  19  20
BRANCH  19  24
ATOM     24  C   UNL     1      30.718 -11.331 -21.074  0.00  0.00    +0.009 C 
BRANCH  24  26
ATOM     25  N   UNL     1      31.939  -8.906 -18.633  0.00  0.00    -0.312 N 
ATOM     26  C   UNL     1      31.320 -10.192 -20.301  0.00  0.00    -0.008 C 
ATOM     27  C   UNL     1      32.001  -9.092 -20.855  0.00  0.00    +0.011 C 
ATOM     28  C   UNL     1      32.385  -8.288 -19.780  0.00  0.00    +0.048 C 
ATOM     29  C   UNL     1      31.288 -10.069 -18.946  0.00  0.00    +0.058 C 
ATOM     30  C   UNL     1      32.338  -8.683 -22.161  0.00  0.00    +0.001 C 
ATOM     31  C   UNL     1      33.092  -7.092 -19.945  0.00  0.00    +0.015 C 
ATOM     32  C   UNL     1      33.045  -7.489 -22.342  0.00  0.00    +0.000 C 
ATOM     33  C   UNL     1      33.415  -6.706 -21.250  0.00  0.00    +0.001 C 
ATOM     34  H   UNL     1      32.069  -8.561 -17.721  0.00  0.00    +0.152 HD
ENDBRANCH  24  26
ENDBRANCH  19  24
ENDBRANCH  18  19
ENDBRANCH   1  18
TORSDOF 7
ENDMDL
