MODEL 1
REMARK VINA RESULT:     -12.2      0.000      0.000
REMARK  Name = 25243853
REMARK  6 active torsions:
REMARK  status: ('A' for Active; 'I' for Inactive)
REMARK    1  A    between atoms: N_1  and  C_6
REMARK    2  A    between atoms: N_1  and  C_21
REMARK    3  A    between atoms: C_3  and  C_16
REMARK    4  A    between atoms: C_11  and  C_18
REMARK    5  A    between atoms: C_18  and  O_19
REMARK    6  A    between atoms: C_21  and  C_28
REMARK                            x       y       z     vdW  Elec       q    Type
REMARK                         _______ _______ _______ _____ _____    ______ ____
ROOT
ATOM      1  N   UNL     1      35.720 -18.838 -21.734  0.00  0.00    -0.327 N 
ATOM      2  H   UNL     1      36.407 -18.191 -21.454  0.00  0.00    +0.147 HD
ENDROOT
BRANCH   1   6
ATOM      3  C   UNL     1      34.196 -21.506 -18.871  0.00  0.00    +0.054 C 
ATOM      4  C   UNL     1      33.324 -20.729 -19.633  0.00  0.00    +0.006 C 
ATOM      5  C   UNL     1      35.574 -21.398 -19.060  0.00  0.00    +0.006 C 
ATOM      6  C   UNL     1      35.208 -19.734 -20.772  0.00  0.00    +0.045 C 
ATOM      7  C   UNL     1      33.831 -19.843 -20.584  0.00  0.00    +0.014 C 
ATOM      8  C   UNL     1      36.080 -20.512 -20.010  0.00  0.00    +0.014 C 
BRANCH   3  16
ATOM      9  O   UNL     1      32.465 -22.701 -17.956  0.00  0.00    -0.270 OA
ATOM     10  N   UNL     1      34.544 -22.952 -16.914  0.00  0.00    -0.276 N 
ATOM     11  C   UNL     1      35.769 -22.908 -14.281  0.00  0.00    +0.102 C 
ATOM     12  C   UNL     1      34.304 -23.305 -14.490  0.00  0.00    +0.033 C 
ATOM     13  C   UNL     1      36.306 -22.059 -15.436  0.00  0.00    +0.033 C 
ATOM     14  C   UNL     1      34.046 -23.864 -15.888  0.00  0.00    +0.094 C 
ATOM     15  C   UNL     1      35.974 -22.638 -16.813  0.00  0.00    +0.094 C 
ATOM     16  C   UNL     1      33.664 -22.439 -17.870  0.00  0.00    +0.249 C 
BRANCH  11  18
ATOM     17  O   UNL     1      36.162 -25.245 -13.842  0.00  0.00    -0.250 OA
ATOM     18  C   UNL     1      36.614 -24.130 -14.067  0.00  0.00    +0.317 C 
BRANCH  18  19
ATOM     19  O   UNL     1      37.932 -23.795 -14.164  0.00  0.00    -0.444 OA
ATOM     20  C   UNL     1      38.839 -24.897 -14.274  0.00  0.00    +0.256 C 
ENDBRANCH  18  19
ENDBRANCH  11  18
ENDBRANCH   3  16
ENDBRANCH   1   6
BRANCH   1  21
ATOM     21  C   UNL     1      35.284 -18.827 -23.095  0.00  0.00    +0.145 C 
BRANCH  21  28
ATOM     22  N   UNL     1      34.845 -16.490 -22.555  0.00  0.00    -0.392 NA
ATOM     23  N   UNL     1      33.944 -15.972 -25.121  0.00  0.00    -0.200 NA
ATOM     24  N   UNL     1      33.547 -13.764 -24.551  0.00  0.00    -0.271 NA
ATOM     25  N   UNL     1      34.001 -12.959 -22.338  0.00  0.00    -0.310 NA
ATOM     26  N   UNL     1      34.866 -14.439 -20.712  0.00  0.00    -0.329 N 
ATOM     27  N   UNL     1      33.142 -11.524 -23.976  0.00  0.00    -0.283 N 
ATOM     28  C   UNL     1      34.814 -17.453 -23.488  0.00  0.00    +0.133 C 
ATOM     29  C   UNL     1      34.369 -17.197 -24.756  0.00  0.00    +0.193 C 
ATOM     30  C   UNL     1      34.420 -15.265 -22.921  0.00  0.00    +0.248 C 
ATOM     31  C   UNL     1      33.963 -14.989 -24.212  0.00  0.00    +0.131 C 
ATOM     32  C   UNL     1      34.412 -14.204 -22.036  0.00  0.00    +0.231 C 
ATOM     33  C   UNL     1      33.586 -12.810 -23.601  0.00  0.00    +0.207 C 
ATOM     34  H   UNL     1      34.872 -13.706 -20.056  0.00  0.00    +0.145 HD
ATOM     35  H   UNL     1      35.173 -15.337 -20.449  0.00  0.00    +0.145 HD
ATOM     36  H   UNL     1      32.825 -11.361 -24.894  0.00  0.00    +0.156 HD
ATOM     37  H   UNL     1      33.149 -10.789 -23.321  0.00  0.00    +0.156 HD
ENDBRANCH  21  28
ENDBRANCH   1  21
TORSDOF 6
ENDMDL
MODEL 2
REMARK VINA RESULT:     -11.9      1.057      2.122
REMARK  Name = 25243853
REMARK  6 active torsions:
REMARK  status: ('A' for Active; 'I' for Inactive)
REMARK    1  A    between atoms: N_1  and  C_6
REMARK    2  A    between atoms: N_1  and  C_21
REMARK    3  A    between atoms: C_3  and  C_16
REMARK    4  A    between atoms: C_11  and  C_18
REMARK    5  A    between atoms: C_18  and  O_19
REMARK    6  A    between atoms: C_21  and  C_28
REMARK                            x       y       z     vdW  Elec       q    Type
REMARK                         _______ _______ _______ _____ _____    ______ ____
ROOT
ATOM      1  N   UNL     1      34.960 -18.942 -22.157  0.00  0.00    -0.327 N 
ATOM      2  H   UNL     1      34.520 -19.092 -23.025  0.00  0.00    +0.147 HD
ENDROOT
BRANCH   1   6
ATOM      3  C   UNL     1      34.027 -21.510 -18.967  0.00  0.00    +0.054 C 
ATOM      4  C   UNL     1      35.349 -21.379 -19.392  0.00  0.00    +0.006 C 
ATOM      5  C   UNL     1      33.016 -20.788 -19.600  0.00  0.00    +0.006 C 
ATOM      6  C   UNL     1      34.647 -19.804 -21.085  0.00  0.00    +0.045 C 
ATOM      7  C   UNL     1      35.659 -20.525 -20.452  0.00  0.00    +0.014 C 
ATOM      8  C   UNL     1      33.325 -19.936 -20.659  0.00  0.00    +0.014 C 
BRANCH   3  16
ATOM      9  O   UNL     1      32.521 -22.738 -17.749  0.00  0.00    -0.270 OA
ATOM     10  N   UNL     1      34.739 -22.816 -17.010  0.00  0.00    -0.276 N 
ATOM     11  C   UNL     1      36.320 -22.549 -14.588  0.00  0.00    +0.102 C 
ATOM     12  C   UNL     1      34.868 -23.036 -14.562  0.00  0.00    +0.033 C 
ATOM     13  C   UNL     1      36.635 -21.744 -15.852  0.00  0.00    +0.033 C 
ATOM     14  C   UNL     1      34.448 -23.690 -15.876  0.00  0.00    +0.094 C 
ATOM     15  C   UNL     1      36.146 -22.421 -17.134  0.00  0.00    +0.094 C 
ATOM     16  C   UNL     1      33.701 -22.408 -17.852  0.00  0.00    +0.249 C 
BRANCH  11  18
ATOM     17  O   UNL     1      38.425 -23.701 -14.813  0.00  0.00    -0.250 OA
ATOM     18  C   UNL     1      37.261 -23.711 -14.438  0.00  0.00    +0.317 C 
BRANCH  18  19
ATOM     19  O   UNL     1      36.613 -24.745 -13.830  0.00  0.00    -0.444 OA
ATOM     20  C   UNL     1      36.960 -26.050 -14.305  0.00  0.00    +0.256 C 
ENDBRANCH  18  19
ENDBRANCH  11  18
ENDBRANCH   3  16
ENDBRANCH   1   6
BRANCH   1  21
ATOM     21  C   UNL     1      35.888 -17.861 -22.038  0.00  0.00    +0.145 C 
BRANCH  21  28
ATOM     22  N   UNL     1      34.681 -15.982 -23.019  0.00  0.00    -0.392 NA
ATOM     23  N   UNL     1      34.340 -14.792 -20.543  0.00  0.00    -0.200 NA
ATOM     24  N   UNL     1      33.202 -13.034 -21.528  0.00  0.00    -0.271 NA
ATOM     25  N   UNL     1      32.843 -12.970 -23.899  0.00  0.00    -0.310 NA
ATOM     26  N   UNL     1      33.663 -14.725 -25.251  0.00  0.00    -0.329 N 
ATOM     27  N   UNL     1      32.048 -11.249 -22.524  0.00  0.00    -0.283 N 
ATOM     28  C   UNL     1      35.159 -16.553 -21.902  0.00  0.00    +0.133 C 
ATOM     29  C   UNL     1      34.990 -15.964 -20.678  0.00  0.00    +0.193 C 
ATOM     30  C   UNL     1      34.031 -14.810 -22.881  0.00  0.00    +0.248 C 
ATOM     31  C   UNL     1      33.851 -14.198 -21.638  0.00  0.00    +0.131 C 
ATOM     32  C   UNL     1      33.501 -14.142 -23.967  0.00  0.00    +0.231 C 
ATOM     33  C   UNL     1      32.730 -12.477 -22.660  0.00  0.00    +0.207 C 
ATOM     34  H   UNL     1      33.298 -14.275 -26.046  0.00  0.00    +0.145 HD
ATOM     35  H   UNL     1      34.140 -15.581 -25.346  0.00  0.00    +0.145 HD
ATOM     36  H   UNL     1      31.938 -10.843 -21.634  0.00  0.00    +0.156 HD
ATOM     37  H   UNL     1      31.682 -10.798 -23.320  0.00  0.00    +0.156 HD
ENDBRANCH  21  28
ENDBRANCH   1  21
TORSDOF 6
ENDMDL
MODEL 3
REMARK VINA RESULT:     -11.8      5.289     11.701
REMARK  Name = 25243853
REMARK  6 active torsions:
REMARK  status: ('A' for Active; 'I' for Inactive)
REMARK    1  A    between atoms: N_1  and  C_6
REMARK    2  A    between atoms: N_1  and  C_21
REMARK    3  A    between atoms: C_3  and  C_16
REMARK    4  A    between atoms: C_11  and  C_18
REMARK    5  A    between atoms: C_18  and  O_19
REMARK    6  A    between atoms: C_21  and  C_28
REMARK                            x       y       z     vdW  Elec       q    Type
REMARK                         _______ _______ _______ _____ _____    ______ ____
ROOT
ATOM      1  N   UNL     1      35.393 -16.462 -23.229  0.00  0.00    -0.327 N 
ATOM      2  H   UNL     1      36.316 -16.280 -23.518  0.00  0.00    +0.147 HD
ENDROOT
BRANCH   1   6
ATOM      3  C   UNL     1      33.022 -13.239 -21.947  0.00  0.00    +0.054 C 
ATOM      4  C   UNL     1      33.898 -13.858 -21.055  0.00  0.00    +0.006 C 
ATOM      5  C   UNL     1      32.934 -13.690 -23.264  0.00  0.00    +0.006 C 
ATOM      6  C   UNL     1      34.597 -15.379 -22.798  0.00  0.00    +0.045 C 
ATOM      7  C   UNL     1      34.686 -14.928 -21.482  0.00  0.00    +0.014 C 
ATOM      8  C   UNL     1      33.721 -14.760 -23.690  0.00  0.00    +0.014 C 
BRANCH   3  16
ATOM      9  O   UNL     1      31.322 -12.376 -20.672  0.00  0.00    -0.270 OA
ATOM     10  N   UNL     1      32.454 -10.850 -22.036  0.00  0.00    -0.276 N 
ATOM     11  C   UNL     1      31.946  -8.734 -23.959  0.00  0.00    +0.102 C 
ATOM     12  C   UNL     1      30.955  -9.073 -22.841  0.00  0.00    +0.033 C 
ATOM     13  C   UNL     1      32.882  -9.905 -24.274  0.00  0.00    +0.033 C 
ATOM     14  C   UNL     1      31.635  -9.710 -21.632  0.00  0.00    +0.094 C 
ATOM     15  C   UNL     1      33.494 -10.538 -23.023  0.00  0.00    +0.094 C 
ATOM     16  C   UNL     1      32.193 -12.113 -21.500  0.00  0.00    +0.249 C 
BRANCH  11  18
ATOM     17  O   UNL     1      33.887  -7.305 -23.936  0.00  0.00    -0.250 OA
ATOM     18  C   UNL     1      32.724  -7.498 -23.607  0.00  0.00    +0.317 C 
BRANCH  18  19
ATOM     19  O   UNL     1      31.936  -6.655 -22.881  0.00  0.00    -0.444 OA
ATOM     20  C   UNL     1      32.613  -5.900 -21.872  0.00  0.00    +0.256 C 
ENDBRANCH  18  19
ENDBRANCH  11  18
ENDBRANCH   3  16
ENDBRANCH   1   6
BRANCH   1  21
ATOM     21  C   UNL     1      34.916 -17.809 -23.265  0.00  0.00    +0.145 C 
BRANCH  21  28
ATOM     22  N   UNL     1      34.542 -19.397 -21.452  0.00  0.00    -0.392 NA
ATOM     23  N   UNL     1      37.142 -19.111 -20.545  0.00  0.00    -0.200 NA
ATOM     24  N   UNL     1      36.731 -20.625 -18.843  0.00  0.00    -0.271 NA
ATOM     25  N   UNL     1      34.577 -21.653 -18.600  0.00  0.00    -0.310 NA
ATOM     26  N   UNL     1      32.848 -21.113 -20.116  0.00  0.00    -0.329 N 
ATOM     27  N   UNL     1      36.316 -22.160 -17.116  0.00  0.00    -0.283 N 
ATOM     28  C   UNL     1      35.406 -18.574 -22.067  0.00  0.00    +0.133 C 
ATOM     29  C   UNL     1      36.691 -18.433 -21.618  0.00  0.00    +0.193 C 
ATOM     30  C   UNL     1      34.996 -20.075 -20.379  0.00  0.00    +0.248 C 
ATOM     31  C   UNL     1      36.305 -19.941 -19.911  0.00  0.00    +0.131 C 
ATOM     32  C   UNL     1      34.187 -20.947 -19.677  0.00  0.00    +0.231 C 
ATOM     33  C   UNL     1      35.849 -21.446 -18.241  0.00  0.00    +0.207 C 
ATOM     34  H   UNL     1      32.245 -21.726 -19.638  0.00  0.00    +0.145 HD
ATOM     35  H   UNL     1      32.521 -20.613 -20.899  0.00  0.00    +0.145 HD
ATOM     36  H   UNL     1      37.244 -22.044 -16.810  0.00  0.00    +0.156 HD
ATOM     37  H   UNL     1      35.713 -22.774 -16.637  0.00  0.00    +0.156 HD
ENDBRANCH  21  28
ENDBRANCH   1  21
TORSDOF 6
ENDMDL
MODEL 4
REMARK VINA RESULT:     -11.7      4.217     10.827
REMARK  Name = 25243853
REMARK  6 active torsions:
REMARK  status: ('A' for Active; 'I' for Inactive)
REMARK    1  A    between atoms: N_1  and  C_6
REMARK    2  A    between atoms: N_1  and  C_21
REMARK    3  A    between atoms: C_3  and  C_16
REMARK    4  A    between atoms: C_11  and  C_18
REMARK    5  A    between atoms: C_18  and  O_19
REMARK    6  A    between atoms: C_21  and  C_28
REMARK                            x       y       z     vdW  Elec       q    Type
REMARK                         _______ _______ _______ _____ _____    ______ ____
ROOT
ATOM      1  N   UNL     1      36.066 -20.122 -19.919  0.00  0.00    -0.327 N 
ATOM      2  H   UNL     1      36.519 -19.776 -19.116  0.00  0.00    +0.147 HD
ENDROOT
BRANCH   1   6
ATOM      3  C   UNL     1      34.926 -17.400 -22.908  0.00  0.00    +0.054 C 
ATOM      4  C   UNL     1      34.540 -18.738 -22.999  0.00  0.00    +0.006 C 
ATOM      5  C   UNL     1      35.689 -16.967 -21.824  0.00  0.00    +0.006 C 
ATOM      6  C   UNL     1      35.683 -19.208 -20.923  0.00  0.00    +0.045 C 
ATOM      7  C   UNL     1      34.919 -19.642 -22.006  0.00  0.00    +0.014 C 
ATOM      8  C   UNL     1      36.068 -17.870 -20.832  0.00  0.00    +0.014 C 
BRANCH   3  16
ATOM      9  O   UNL     1      34.772 -16.782 -25.112  0.00  0.00    -0.270 OA
ATOM     10  N   UNL     1      33.909 -15.260 -23.560  0.00  0.00    -0.276 N 
ATOM     11  C   UNL     1      33.993 -12.437 -22.881  0.00  0.00    +0.102 C 
ATOM     12  C   UNL     1      34.201 -12.936 -24.315  0.00  0.00    +0.033 C 
ATOM     13  C   UNL     1      34.283 -13.527 -21.845  0.00  0.00    +0.033 C 
ATOM     14  C   UNL     1      33.520 -14.279 -24.570  0.00  0.00    +0.094 C 
ATOM     15  C   UNL     1      33.619 -14.864 -22.177  0.00  0.00    +0.094 C 
ATOM     16  C   UNL     1      34.528 -16.449 -23.953  0.00  0.00    +0.249 C 
BRANCH  11  18
ATOM     17  O   UNL     1      31.750 -12.393 -22.002  0.00  0.00    -0.250 OA
ATOM     18  C   UNL     1      32.605 -11.888 -22.718  0.00  0.00    +0.317 C 
BRANCH  18  19
ATOM     19  O   UNL     1      32.466 -10.767 -23.480  0.00  0.00    -0.444 OA
ATOM     20  C   UNL     1      32.932  -9.555 -22.879  0.00  0.00    +0.256 C 
ENDBRANCH  18  19
ENDBRANCH  11  18
ENDBRANCH   3  16
ENDBRANCH   1   6
BRANCH   1  21
ATOM     21  C   UNL     1      35.828 -21.528 -20.017  0.00  0.00    +0.145 C 
BRANCH  21  28
ATOM     22  N   UNL     1      35.429 -22.384 -17.768  0.00  0.00    -0.392 NA
ATOM     23  N   UNL     1      32.689 -22.388 -18.159  0.00  0.00    -0.200 NA
ATOM     24  N   UNL     1      32.370 -23.201 -16.015  0.00  0.00    -0.271 NA
ATOM     25  N   UNL     1      34.235 -23.636 -14.570  0.00  0.00    -0.310 NA
ATOM     26  N   UNL     1      36.430 -23.232 -15.344  0.00  0.00    -0.329 N 
ATOM     27  N   UNL     1      32.044 -24.025 -13.841  0.00  0.00    -0.283 N 
ATOM     28  C   UNL     1      34.892 -21.981 -18.931  0.00  0.00    +0.133 C 
ATOM     29  C   UNL     1      33.537 -21.983 -19.123  0.00  0.00    +0.193 C 
ATOM     30  C   UNL     1      34.579 -22.788 -16.805  0.00  0.00    +0.248 C 
ATOM     31  C   UNL     1      33.194 -22.795 -16.988  0.00  0.00    +0.131 C 
ATOM     32  C   UNL     1      35.029 -23.220 -15.573  0.00  0.00    +0.231 C 
ATOM     33  C   UNL     1      32.928 -23.600 -14.856  0.00  0.00    +0.207 C 
ATOM     34  H   UNL     1      36.785 -23.535 -14.477  0.00  0.00    +0.145 HD
ATOM     35  H   UNL     1      37.047 -22.938 -16.052  0.00  0.00    +0.145 HD
ATOM     36  H   UNL     1      31.072 -24.020 -14.001  0.00  0.00    +0.156 HD
ATOM     37  H   UNL     1      32.398 -24.328 -12.974  0.00  0.00    +0.156 HD
ENDBRANCH  21  28
ENDBRANCH   1  21
TORSDOF 6
ENDMDL
MODEL 5
REMARK VINA RESULT:     -11.7      1.588      2.561
REMARK  Name = 25243853
REMARK  6 active torsions:
REMARK  status: ('A' for Active; 'I' for Inactive)
REMARK    1  A    between atoms: N_1  and  C_6
REMARK    2  A    between atoms: N_1  and  C_21
REMARK    3  A    between atoms: C_3  and  C_16
REMARK    4  A    between atoms: C_11  and  C_18
REMARK    5  A    between atoms: C_18  and  O_19
REMARK    6  A    between atoms: C_21  and  C_28
REMARK                            x       y       z     vdW  Elec       q    Type
REMARK                         _______ _______ _______ _____ _____    ______ ____
ROOT
ATOM      1  N   UNL     1      35.773 -20.763 -20.375  0.00  0.00    -0.327 N 
ATOM      2  H   UNL     1      35.707 -21.253 -21.225  0.00  0.00    +0.147 HD
ENDROOT
BRANCH   1   6
ATOM      3  C   UNL     1      34.706 -22.745 -16.829  0.00  0.00    +0.054 C 
ATOM      4  C   UNL     1      35.945 -22.112 -16.928  0.00  0.00    +0.006 C 
ATOM      5  C   UNL     1      33.821 -22.719 -17.907  0.00  0.00    +0.006 C 
ATOM      6  C   UNL     1      35.415 -21.428 -19.183  0.00  0.00    +0.045 C 
ATOM      7  C   UNL     1      36.299 -21.453 -18.105  0.00  0.00    +0.014 C 
ATOM      8  C   UNL     1      34.175 -22.061 -19.084  0.00  0.00    +0.014 C 
BRANCH   3  16
ATOM      9  O   UNL     1      33.127 -23.560 -15.379  0.00  0.00    -0.270 OA
ATOM     10  N   UNL     1      35.356 -23.903 -14.761  0.00  0.00    -0.276 N 
ATOM     11  C   UNL     1      37.139 -23.605 -12.488  0.00  0.00    +0.102 C 
ATOM     12  C   UNL     1      35.636 -23.845 -12.317  0.00  0.00    +0.033 C 
ATOM     13  C   UNL     1      37.476 -23.018 -13.862  0.00  0.00    +0.033 C 
ATOM     14  C   UNL     1      35.023 -24.577 -13.509  0.00  0.00    +0.094 C 
ATOM     15  C   UNL     1      36.794 -23.757 -15.015  0.00  0.00    +0.094 C 
ATOM     16  C   UNL     1      34.332 -23.439 -15.590  0.00  0.00    +0.249 C 
BRANCH  11  18
ATOM     17  O   UNL     1      37.439 -25.847 -11.658  0.00  0.00    -0.250 OA
ATOM     18  C   UNL     1      37.901 -24.875 -12.240  0.00  0.00    +0.317 C 
BRANCH  18  19
ATOM     19  O   UNL     1      39.157 -24.762 -12.758  0.00  0.00    -0.444 OA
ATOM     20  C   UNL     1      39.578 -25.849 -13.588  0.00  0.00    +0.256 C 
ENDBRANCH  18  19
ENDBRANCH  11  18
ENDBRANCH   3  16
ENDBRANCH   1   6
BRANCH   1  21
ATOM     21  C   UNL     1      36.230 -19.408 -20.400  0.00  0.00    +0.145 C 
BRANCH  21  28
ATOM     22  N   UNL     1      35.401 -17.359 -21.429  0.00  0.00    -0.392 NA
ATOM     23  N   UNL     1      34.809 -18.678 -23.790  0.00  0.00    -0.200 NA
ATOM     24  N   UNL     1      34.035 -16.702 -24.716  0.00  0.00    -0.271 NA
ATOM     25  N   UNL     1      34.057 -14.659 -23.461  0.00  0.00    -0.310 NA
ATOM     26  N   UNL     1      34.879 -14.658 -21.246  0.00  0.00    -0.329 N 
ATOM     27  N   UNL     1      33.248 -14.701 -25.658  0.00  0.00    -0.283 N 
ATOM     28  C   UNL     1      35.636 -18.673 -21.569  0.00  0.00    +0.133 C 
ATOM     29  C   UNL     1      35.343 -19.324 -22.736  0.00  0.00    +0.193 C 
ATOM     30  C   UNL     1      34.868 -16.714 -22.485  0.00  0.00    +0.248 C 
ATOM     31  C   UNL     1      34.564 -17.366 -23.682  0.00  0.00    +0.131 C 
ATOM     32  C   UNL     1      34.589 -15.361 -22.444  0.00  0.00    +0.231 C 
ATOM     33  C   UNL     1      33.807 -15.385 -24.557  0.00  0.00    +0.207 C 
ATOM     34  H   UNL     1      34.692 -13.694 -21.183  0.00  0.00    +0.145 HD
ATOM     35  H   UNL     1      35.267 -15.135 -20.477  0.00  0.00    +0.145 HD
ATOM     36  H   UNL     1      33.045 -15.189 -26.488  0.00  0.00    +0.156 HD
ATOM     37  H   UNL     1      33.061 -13.736 -25.596  0.00  0.00    +0.156 HD
ENDBRANCH  21  28
ENDBRANCH   1  21
TORSDOF 6
ENDMDL
MODEL 6
REMARK VINA RESULT:     -11.4      5.064     10.506
REMARK  Name = 25243853
REMARK  6 active torsions:
REMARK  status: ('A' for Active; 'I' for Inactive)
REMARK    1  A    between atoms: N_1  and  C_6
REMARK    2  A    between atoms: N_1  and  C_21
REMARK    3  A    between atoms: C_3  and  C_16
REMARK    4  A    between atoms: C_11  and  C_18
REMARK    5  A    between atoms: C_18  and  O_19
REMARK    6  A    between atoms: C_21  and  C_28
REMARK                            x       y       z     vdW  Elec       q    Type
REMARK                         _______ _______ _______ _____ _____    ______ ____
ROOT
ATOM      1  N   UNL     1      35.450 -18.429 -22.806  0.00  0.00    -0.327 N 
ATOM      2  H   UNL     1      35.266 -19.086 -23.516  0.00  0.00    +0.147 HD
ENDROOT
BRANCH   1   6
ATOM      3  C   UNL     1      34.142 -14.474 -23.343  0.00  0.00    +0.054 C 
ATOM      4  C   UNL     1      34.004 -15.400 -24.377  0.00  0.00    +0.006 C 
ATOM      5  C   UNL     1      34.714 -14.862 -22.131  0.00  0.00    +0.006 C 
ATOM      6  C   UNL     1      35.010 -17.101 -22.986  0.00  0.00    +0.045 C 
ATOM      7  C   UNL     1      34.438 -16.714 -24.198  0.00  0.00    +0.014 C 
ATOM      8  C   UNL     1      35.148 -16.174 -21.953  0.00  0.00    +0.014 C 
BRANCH   3  16
ATOM      9  O   UNL     1      34.138 -12.499 -24.508  0.00  0.00    -0.270 OA
ATOM     10  N   UNL     1      32.783 -12.564 -22.602  0.00  0.00    -0.276 N 
ATOM     11  C   UNL     1      32.180 -11.034 -20.209  0.00  0.00    +0.102 C 
ATOM     12  C   UNL     1      32.668 -10.367 -21.500  0.00  0.00    +0.033 C 
ATOM     13  C   UNL     1      32.562 -12.515 -20.146  0.00  0.00    +0.033 C 
ATOM     14  C   UNL     1      32.325 -11.185 -22.744  0.00  0.00    +0.094 C 
ATOM     15  C   UNL     1      32.245 -13.273 -21.436  0.00  0.00    +0.094 C 
ATOM     16  C   UNL     1      33.685 -13.091 -23.530  0.00  0.00    +0.249 C 
BRANCH  11  18
ATOM     17  O   UNL     1      29.875 -11.203 -20.889  0.00  0.00    -0.250 OA
ATOM     18  C   UNL     1      30.698 -10.849 -20.056  0.00  0.00    +0.317 C 
BRANCH  18  19
ATOM     19  O   UNL     1      30.435 -10.238 -18.866  0.00  0.00    -0.444 OA
ATOM     20  C   UNL     1      31.572 -10.019 -18.025  0.00  0.00    +0.256 C 
ENDBRANCH  18  19
ENDBRANCH  11  18
ENDBRANCH   3  16
ENDBRANCH   1   6
BRANCH   1  21
ATOM     21  C   UNL     1      36.150 -18.863 -21.637  0.00  0.00    +0.145 C 
BRANCH  21  28
ATOM     22  N   UNL     1      35.846 -20.433 -19.796  0.00  0.00    -0.392 NA
ATOM     23  N   UNL     1      33.125 -20.609 -20.278  0.00  0.00    -0.200 NA
ATOM     24  N   UNL     1      32.895 -22.096 -18.518  0.00  0.00    -0.271 NA
ATOM     25  N   UNL     1      34.793 -22.767 -17.214  0.00  0.00    -0.310 NA
ATOM     26  N   UNL     1      36.930 -21.901 -17.730  0.00  0.00    -0.329 N 
ATOM     27  N   UNL     1      32.660 -23.605 -16.736  0.00  0.00    -0.283 N 
ATOM     28  C   UNL     1      35.270 -19.740 -20.790  0.00  0.00    +0.133 C 
ATOM     29  C   UNL     1      33.925 -19.826 -21.027  0.00  0.00    +0.193 C 
ATOM     30  C   UNL     1      35.044 -21.215 -19.047  0.00  0.00    +0.248 C 
ATOM     31  C   UNL     1      33.670 -21.313 -19.278  0.00  0.00    +0.131 C 
ATOM     32  C   UNL     1      35.538 -21.968 -17.999  0.00  0.00    +0.231 C 
ATOM     33  C   UNL     1      33.492 -22.784 -17.526  0.00  0.00    +0.207 C 
ATOM     34  H   UNL     1      37.314 -22.426 -16.992  0.00  0.00    +0.145 HD
ATOM     35  H   UNL     1      37.511 -21.331 -18.282  0.00  0.00    +0.145 HD
ATOM     36  H   UNL     1      31.694 -23.653 -16.924  0.00  0.00    +0.156 HD
ATOM     37  H   UNL     1      33.043 -24.130 -15.997  0.00  0.00    +0.156 HD
ENDBRANCH  21  28
ENDBRANCH   1  21
TORSDOF 6
ENDMDL
MODEL 7
REMARK VINA RESULT:     -11.3      4.219     11.046
REMARK  Name = 25243853
REMARK  6 active torsions:
REMARK  status: ('A' for Active; 'I' for Inactive)
REMARK    1  A    between atoms: N_1  and  C_6
REMARK    2  A    between atoms: N_1  and  C_21
REMARK    3  A    between atoms: C_3  and  C_16
REMARK    4  A    between atoms: C_11  and  C_18
REMARK    5  A    between atoms: C_18  and  O_19
REMARK    6  A    between atoms: C_21  and  C_28
REMARK                            x       y       z     vdW  Elec       q    Type
REMARK                         _______ _______ _______ _____ _____    ______ ____
ROOT
ATOM      1  N   UNL     1      36.061 -20.194 -20.105  0.00  0.00    -0.327 N 
ATOM      2  H   UNL     1      36.891 -20.038 -19.600  0.00  0.00    +0.147 HD
ENDROOT
BRANCH   1   6
ATOM      3  C   UNL     1      34.908 -17.368 -22.991  0.00  0.00    +0.054 C 
ATOM      4  C   UNL     1      34.510 -18.698 -23.120  0.00  0.00    +0.006 C 
ATOM      5  C   UNL     1      35.688 -16.976 -21.903  0.00  0.00    +0.006 C 
ATOM      6  C   UNL     1      35.673 -19.245 -21.075  0.00  0.00    +0.045 C 
ATOM      7  C   UNL     1      34.892 -19.637 -22.161  0.00  0.00    +0.014 C 
ATOM      8  C   UNL     1      36.071 -17.914 -20.945  0.00  0.00    +0.014 C 
BRANCH   3  16
ATOM      9  O   UNL     1      34.748 -16.670 -25.170  0.00  0.00    -0.270 OA
ATOM     10  N   UNL     1      33.885 -15.207 -23.561  0.00  0.00    -0.276 N 
ATOM     11  C   UNL     1      33.964 -12.411 -22.780  0.00  0.00    +0.102 C 
ATOM     12  C   UNL     1      34.170 -12.857 -24.232  0.00  0.00    +0.033 C 
ATOM     13  C   UNL     1      34.258 -13.537 -21.785  0.00  0.00    +0.033 C 
ATOM     14  C   UNL     1      33.492 -14.191 -24.534  0.00  0.00    +0.094 C 
ATOM     15  C   UNL     1      33.596 -14.863 -22.164  0.00  0.00    +0.094 C 
ATOM     16  C   UNL     1      34.505 -16.380 -23.999  0.00  0.00    +0.249 C 
BRANCH  11  18
ATOM     17  O   UNL     1      31.707 -12.429 -21.935  0.00  0.00    -0.250 OA
ATOM     18  C   UNL     1      32.574 -11.872 -22.594  0.00  0.00    +0.317 C 
BRANCH  18  19
ATOM     19  O   UNL     1      32.450 -10.692 -23.265  0.00  0.00    -0.444 OA
ATOM     20  C   UNL     1      32.180  -9.548 -22.449  0.00  0.00    +0.256 C 
ENDBRANCH  18  19
ENDBRANCH  11  18
ENDBRANCH   3  16
ENDBRANCH   1   6
BRANCH   1  21
ATOM     21  C   UNL     1      35.302 -21.373 -19.826  0.00  0.00    +0.145 C 
BRANCH  21  28
ATOM     22  N   UNL     1      34.487 -22.367 -17.754  0.00  0.00    -0.392 NA
ATOM     23  N   UNL     1      36.952 -22.062 -16.533  0.00  0.00    -0.200 NA
ATOM     24  N   UNL     1      36.125 -23.013 -14.591  0.00  0.00    -0.271 NA
ATOM     25  N   UNL     1      33.847 -23.751 -14.453  0.00  0.00    -0.310 NA
ATOM     26  N   UNL     1      32.424 -23.504 -16.322  0.00  0.00    -0.329 N 
ATOM     27  N   UNL     1      35.288 -23.976 -12.621  0.00  0.00    -0.283 N 
ATOM     28  C   UNL     1      35.523 -21.819 -18.408  0.00  0.00    +0.133 C 
ATOM     29  C   UNL     1      36.741 -21.669 -17.803  0.00  0.00    +0.193 C 
ATOM     30  C   UNL     1      34.700 -22.761 -16.483  0.00  0.00    +0.248 C 
ATOM     31  C   UNL     1      35.939 -22.614 -15.855  0.00  0.00    +0.131 C 
ATOM     32  C   UNL     1      33.700 -23.337 -15.724  0.00  0.00    +0.231 C 
ATOM     33  C   UNL     1      35.073 -23.561 -13.953  0.00  0.00    +0.207 C 
ATOM     34  H   UNL     1      31.689 -23.911 -15.809  0.00  0.00    +0.145 HD
ATOM     35  H   UNL     1      32.273 -23.212 -17.250  0.00  0.00    +0.145 HD
ATOM     36  H   UNL     1      36.172 -23.859 -12.205  0.00  0.00    +0.156 HD
ATOM     37  H   UNL     1      34.553 -24.384 -12.107  0.00  0.00    +0.156 HD
ENDBRANCH  21  28
ENDBRANCH   1  21
TORSDOF 6
ENDMDL
MODEL 8
REMARK VINA RESULT:     -11.2      3.858     11.012
REMARK  Name = 25243853
REMARK  6 active torsions:
REMARK  status: ('A' for Active; 'I' for Inactive)
REMARK    1  A    between atoms: N_1  and  C_6
REMARK    2  A    between atoms: N_1  and  C_21
REMARK    3  A    between atoms: C_3  and  C_16
REMARK    4  A    between atoms: C_11  and  C_18
REMARK    5  A    between atoms: C_18  and  O_19
REMARK    6  A    between atoms: C_21  and  C_28
REMARK                            x       y       z     vdW  Elec       q    Type
REMARK                         _______ _______ _______ _____ _____    ______ ____
ROOT
ATOM      1  N   UNL     1      36.419 -21.545 -18.660  0.00  0.00    -0.327 N 
ATOM      2  H   UNL     1      37.355 -21.837 -18.579  0.00  0.00    +0.147 HD
ENDROOT
BRANCH   1   6
ATOM      3  C   UNL     1      35.465 -18.629 -21.528  0.00  0.00    +0.054 C 
ATOM      4  C   UNL     1      36.747 -18.674 -20.980  0.00  0.00    +0.006 C 
ATOM      5  C   UNL     1      34.500 -19.552 -21.124  0.00  0.00    +0.006 C 
ATOM      6  C   UNL     1      36.099 -20.566 -19.624  0.00  0.00    +0.045 C 
ATOM      7  C   UNL     1      37.063 -19.644 -20.028  0.00  0.00    +0.014 C 
ATOM      8  C   UNL     1      34.817 -20.520 -20.172  0.00  0.00    +0.014 C 
BRANCH   3  16
ATOM      9  O   UNL     1      35.475 -17.852 -23.686  0.00  0.00    -0.270 OA
ATOM     10  N   UNL     1      34.456 -16.463 -22.104  0.00  0.00    -0.276 N 
ATOM     11  C   UNL     1      34.423 -13.697 -21.218  0.00  0.00    +0.102 C 
ATOM     12  C   UNL     1      34.756 -14.085 -22.662  0.00  0.00    +0.033 C 
ATOM     13  C   UNL     1      34.652 -14.855 -20.243  0.00  0.00    +0.033 C 
ATOM     14  C   UNL     1      34.128 -15.416 -23.069  0.00  0.00    +0.094 C 
ATOM     15  C   UNL     1      34.047 -16.175 -20.724  0.00  0.00    +0.094 C 
ATOM     16  C   UNL     1      35.131 -17.609 -22.530  0.00  0.00    +0.249 C 
BRANCH  11  18
ATOM     17  O   UNL     1      32.266 -13.400 -20.186  0.00  0.00    -0.250 OA
ATOM     18  C   UNL     1      33.014 -13.184 -21.129  0.00  0.00    +0.317 C 
BRANCH  18  19
ATOM     19  O   UNL     1      32.721 -12.461 -22.247  0.00  0.00    -0.444 OA
ATOM     20  C   UNL     1      31.632 -11.542 -22.115  0.00  0.00    +0.256 C 
ENDBRANCH  18  19
ENDBRANCH  11  18
ENDBRANCH   3  16
ENDBRANCH   1   6
BRANCH   1  21
ATOM     21  C   UNL     1      35.442 -22.133 -17.797  0.00  0.00    +0.145 C 
BRANCH  21  28
ATOM     22  N   UNL     1      35.216 -22.831 -15.471  0.00  0.00    -0.392 NA
ATOM     23  N   UNL     1      37.941 -22.602 -15.044  0.00  0.00    -0.200 NA
ATOM     24  N   UNL     1      37.666 -23.270 -12.844  0.00  0.00    -0.271 NA
ATOM     25  N   UNL     1      35.494 -23.799 -11.977  0.00  0.00    -0.310 NA
ATOM     26  N   UNL     1      33.604 -23.635 -13.385  0.00  0.00    -0.329 N 
ATOM     27  N   UNL     1      37.391 -23.946 -10.613  0.00  0.00    -0.283 N 
ATOM     28  C   UNL     1      36.043 -22.443 -16.454  0.00  0.00    +0.133 C 
ATOM     29  C   UNL     1      37.390 -22.330 -16.242  0.00  0.00    +0.193 C 
ATOM     30  C   UNL     1      35.769 -23.103 -14.273  0.00  0.00    +0.248 C 
ATOM     31  C   UNL     1      37.142 -22.993 -14.043  0.00  0.00    +0.131 C 
ATOM     32  C   UNL     1      35.005 -23.512 -13.197  0.00  0.00    +0.231 C 
ATOM     33  C   UNL     1      36.820 -23.658 -11.871  0.00  0.00    +0.207 C 
ATOM     34  H   UNL     1      33.030 -23.923 -12.638  0.00  0.00    +0.145 HD
ATOM     35  H   UNL     1      33.204 -23.432 -14.261  0.00  0.00    +0.145 HD
ATOM     36  H   UNL     1      38.363 -23.858 -10.482  0.00  0.00    +0.156 HD
ATOM     37  H   UNL     1      36.818 -24.234  -9.866  0.00  0.00    +0.156 HD
ENDBRANCH  21  28
ENDBRANCH   1  21
TORSDOF 6
ENDMDL
MODEL 9
REMARK VINA RESULT:     -11.1      4.510      8.088
REMARK  Name = 25243853
REMARK  6 active torsions:
REMARK  status: ('A' for Active; 'I' for Inactive)
REMARK    1  A    between atoms: N_1  and  C_6
REMARK    2  A    between atoms: N_1  and  C_21
REMARK    3  A    between atoms: C_3  and  C_16
REMARK    4  A    between atoms: C_11  and  C_18
REMARK    5  A    between atoms: C_18  and  O_19
REMARK    6  A    between atoms: C_21  and  C_28
REMARK                            x       y       z     vdW  Elec       q    Type
REMARK                         _______ _______ _______ _____ _____    ______ ____
ROOT
ATOM      1  N   UNL     1      33.154 -11.441 -22.961  0.00  0.00    -0.327 N 
ATOM      2  H   UNL     1      33.709 -10.718 -23.332  0.00  0.00    +0.147 HD
ENDROOT
BRANCH   1   6
ATOM      3  C   UNL     1      34.270 -15.417 -23.730  0.00  0.00    +0.054 C 
ATOM      4  C   UNL     1      34.658 -14.802 -22.540  0.00  0.00    +0.006 C 
ATOM      5  C   UNL     1      33.512 -14.712 -24.665  0.00  0.00    +0.006 C 
ATOM      6  C   UNL     1      33.529 -12.777 -23.219  0.00  0.00    +0.045 C 
ATOM      7  C   UNL     1      34.286 -13.482 -22.284  0.00  0.00    +0.014 C 
ATOM      8  C   UNL     1      33.141 -13.392 -24.410  0.00  0.00    +0.014 C 
BRANCH   3  16
ATOM      9  O   UNL     1      34.448 -17.218 -25.139  0.00  0.00    -0.270 OA
ATOM     10  N   UNL     1      35.237 -17.542 -22.961  0.00  0.00    -0.276 N 
ATOM     11  C   UNL     1      35.058 -19.419 -20.753  0.00  0.00    +0.102 C 
ATOM     12  C   UNL     1      34.892 -19.860 -22.211  0.00  0.00    +0.033 C 
ATOM     13  C   UNL     1      34.780 -17.925 -20.567  0.00  0.00    +0.033 C 
ATOM     14  C   UNL     1      35.616 -18.934 -23.186  0.00  0.00    +0.094 C 
ATOM     15  C   UNL     1      35.489 -17.049 -21.602  0.00  0.00    +0.094 C 
ATOM     16  C   UNL     1      34.660 -16.807 -24.000  0.00  0.00    +0.249 C 
BRANCH  11  18
ATOM     17  O   UNL     1      37.369 -19.004 -20.211  0.00  0.00    -0.250 OA
ATOM     18  C   UNL     1      36.426 -19.783 -20.252  0.00  0.00    +0.317 C 
BRANCH  18  19
ATOM     19  O   UNL     1      36.437 -21.090 -19.864  0.00  0.00    -0.444 OA
ATOM     20  C   UNL     1      36.452 -21.310 -18.450  0.00  0.00    +0.256 C 
ENDBRANCH  18  19
ENDBRANCH  11  18
ENDBRANCH   3  16
ENDBRANCH   1   6
BRANCH   1  21
ATOM     21  C   UNL     1      32.006 -11.094 -22.183  0.00  0.00    +0.145 C 
BRANCH  21  28
ATOM     22  N   UNL     1      32.340  -8.844 -21.302  0.00  0.00    -0.392 NA
ATOM     23  N   UNL     1      30.742  -7.738 -23.273  0.00  0.00    -0.200 NA
ATOM     24  N   UNL     1      31.094  -5.626 -22.393  0.00  0.00    -0.271 NA
ATOM     25  N   UNL     1      32.470  -5.311 -20.454  0.00  0.00    -0.310 NA
ATOM     26  N   UNL     1      33.481  -7.181 -19.423  0.00  0.00    -0.329 N 
ATOM     27  N   UNL     1      31.448  -3.483 -21.503  0.00  0.00    -0.283 N 
ATOM     28  C   UNL     1      31.761  -9.612 -22.238  0.00  0.00    +0.133 C 
ATOM     29  C   UNL     1      30.971  -9.064 -23.213  0.00  0.00    +0.193 C 
ATOM     30  C   UNL     1      32.110  -7.519 -21.364  0.00  0.00    +0.248 C 
ATOM     31  C   UNL     1      31.306  -6.946 -22.353  0.00  0.00    +0.131 C 
ATOM     32  C   UNL     1      32.659  -6.643 -20.448  0.00  0.00    +0.231 C 
ATOM     33  C   UNL     1      31.684  -4.874 -21.445  0.00  0.00    +0.207 C 
ATOM     34  H   UNL     1      33.887  -6.584 -18.754  0.00  0.00    +0.145 HD
ATOM     35  H   UNL     1      33.643  -8.150 -19.381  0.00  0.00    +0.145 HD
ATOM     36  H   UNL     1      30.876  -3.110 -22.212  0.00  0.00    +0.156 HD
ATOM     37  H   UNL     1      31.855  -2.886 -20.834  0.00  0.00    +0.156 HD
ENDBRANCH  21  28
ENDBRANCH   1  21
TORSDOF 6
ENDMDL
