MODEL 1
REMARK VINA RESULT:     -12.2      0.000      0.000
REMARK  Name = 9826451
REMARK  9 active torsions:
REMARK  status: ('A' for Active; 'I' for Inactive)
REMARK    1  A    between atoms: C_1  and  N_2
REMARK    2  A    between atoms: C_1  and  C_19
REMARK    3  A    between atoms: C_8  and  O_10
REMARK    4  A    between atoms: O_10  and  C_11
REMARK    5  A    between atoms: C_14  and  O_17
REMARK    6  A    between atoms: C_19  and  O_20
REMARK    7  A    between atoms: O_20  and  C_24
REMARK    8  A    between atoms: C_21  and  C_27
REMARK    9  A    between atoms: C_27  and  C_32
REMARK                            x       y       z     vdW  Elec       q    Type
REMARK                         _______ _______ _______ _____ _____    ______ ____
ROOT
ATOM      1  C   UNL     1      35.994 -17.529 -22.295  0.00  0.00    +0.139 C 
ENDROOT
BRANCH   1   2
ATOM      2  N   UNL     1      35.099 -16.594 -22.935  0.00  0.00    -0.291 N 
ATOM      3  C   UNL     1      34.786 -16.784 -24.353  0.00  0.00    +0.113 C 
ATOM      4  N   UNL     1      34.847 -15.365 -20.927  0.00  0.00    -0.233 NA
ATOM      5  N   UNL     1      33.442 -13.408 -20.894  0.00  0.00    -0.214 NA
ATOM      6  C   UNL     1      34.543 -15.517 -22.233  0.00  0.00    +0.115 C 
ATOM      7  C   UNL     1      33.708 -14.667 -22.929  0.00  0.00    +0.146 C 
ATOM      8  C   UNL     1      33.181 -13.619 -22.200  0.00  0.00    +0.210 C 
ATOM      9  C   UNL     1      34.271 -14.306 -20.328  0.00  0.00    +0.254 C 
BRANCH   8  10
ATOM     10  O   UNL     1      32.343 -12.730 -22.820  0.00  0.00    -0.440 OA
BRANCH  10  11
ATOM     11  C   UNL     1      32.741 -11.410 -22.869  0.00  0.00    +0.147 C 
ATOM     12  C   UNL     1      33.923 -11.061 -23.523  0.00  0.00    +0.041 C 
ATOM     13  C   UNL     1      31.962 -10.423 -22.264  0.00  0.00    +0.041 C 
ATOM     14  C   UNL     1      33.546  -8.741 -22.967  0.00  0.00    +0.139 C 
ATOM     15  C   UNL     1      34.325  -9.726 -23.572  0.00  0.00    +0.040 C 
ATOM     16  C   UNL     1      32.363  -9.089 -22.314  0.00  0.00    +0.040 C 
BRANCH  14  17
ATOM     17  O   UNL     1      33.938  -7.438 -23.016  0.00  0.00    -0.471 OA
ATOM     18  C   UNL     1      35.340  -7.182 -23.064  0.00  0.00    +0.252 C 
ENDBRANCH  14  17
ENDBRANCH  10  11
ENDBRANCH   8  10
ENDBRANCH   1   2
BRANCH   1  19
ATOM     19  C   UNL     1      35.205 -18.689 -21.712  0.00  0.00    +0.227 C 
BRANCH  19  20
ATOM     20  O   UNL     1      35.985 -19.336 -20.708  0.00  0.00    -0.474 OA
BRANCH  20  24
ATOM     21  C   UNL     1      34.094 -22.234 -18.416  0.00  0.00    -0.021 C 
ATOM     22  C   UNL     1      33.352 -21.449 -19.299  0.00  0.00    -0.001 C 
ATOM     23  C   UNL     1      35.471 -22.044 -18.303  0.00  0.00    -0.001 C 
ATOM     24  C   UNL     1      35.364 -20.286 -19.956  0.00  0.00    +0.139 C 
ATOM     25  C   UNL     1      33.987 -20.475 -20.069  0.00  0.00    +0.037 C 
ATOM     26  C   UNL     1      36.106 -21.070 -19.072  0.00  0.00    +0.037 C 
BRANCH  21  27
ATOM     27  C   UNL     1      33.406 -23.286 -17.585  0.00  0.00    +0.047 C 
BRANCH  27  32
ATOM     28  S   UNL     1      33.726 -23.658 -14.874  0.00  0.00    -0.048 S 
ATOM     29  O   UNL     1      30.627 -22.446 -16.828  0.00  0.00    -0.274 OA
ATOM     30  O   UNL     1      32.111 -24.755 -13.114  0.00  0.00    -0.263 OA
ATOM     31  N   UNL     1      31.173 -23.620 -14.911  0.00  0.00    -0.246 N 
ATOM     32  C   UNL     1      32.953 -22.741 -16.242  0.00  0.00    +0.137 C 
ATOM     33  C   UNL     1      31.461 -22.904 -16.054  0.00  0.00    +0.239 C 
ATOM     34  C   UNL     1      32.199 -24.105 -14.145  0.00  0.00    +0.279 C 
ATOM     35  H   UNL     1      30.238 -23.783 -14.650  0.00  0.00    +0.158 HD
ENDBRANCH  27  32
ENDBRANCH  21  27
ENDBRANCH  20  24
ENDBRANCH  19  20
ENDBRANCH   1  19
TORSDOF 9
ENDMDL
MODEL 2
REMARK VINA RESULT:     -12.2      3.583     11.978
REMARK  Name = 9826451
REMARK  9 active torsions:
REMARK  status: ('A' for Active; 'I' for Inactive)
REMARK    1  A    between atoms: C_1  and  N_2
REMARK    2  A    between atoms: C_1  and  C_19
REMARK    3  A    between atoms: C_8  and  O_10
REMARK    4  A    between atoms: O_10  and  C_11
REMARK    5  A    between atoms: C_14  and  O_17
REMARK    6  A    between atoms: C_19  and  O_20
REMARK    7  A    between atoms: O_20  and  C_24
REMARK    8  A    between atoms: C_21  and  C_27
REMARK    9  A    between atoms: C_27  and  C_32
REMARK                            x       y       z     vdW  Elec       q    Type
REMARK                         _______ _______ _______ _____ _____    ______ ____
ROOT
ATOM      1  C   UNL     1      36.154 -22.031 -17.352  0.00  0.00    +0.139 C 
ENDROOT
BRANCH   1   2
ATOM      2  N   UNL     1      34.995 -22.650 -16.756  0.00  0.00    -0.291 N 
ATOM      3  C   UNL     1      33.787 -22.803 -17.569  0.00  0.00    +0.113 C 
ATOM      4  N   UNL     1      36.130 -22.938 -14.697  0.00  0.00    -0.233 NA
ATOM      5  N   UNL     1      34.988 -23.956 -12.837  0.00  0.00    -0.214 NA
ATOM      6  C   UNL     1      35.004 -23.089 -15.425  0.00  0.00    +0.115 C 
ATOM      7  C   UNL     1      33.846 -23.658 -14.935  0.00  0.00    +0.146 C 
ATOM      8  C   UNL     1      33.897 -24.077 -13.621  0.00  0.00    +0.210 C 
ATOM      9  C   UNL     1      36.053 -23.386 -13.430  0.00  0.00    +0.254 C 
BRANCH   8  10
ATOM     10  O   UNL     1      32.786 -24.652 -13.060  0.00  0.00    -0.440 OA
BRANCH  10  11
ATOM     11  C   UNL     1      31.565 -24.373 -13.641  0.00  0.00    +0.147 C 
ATOM     12  C   UNL     1      30.730 -25.414 -14.044  0.00  0.00    +0.041 C 
ATOM     13  C   UNL     1      31.167 -23.048 -13.824  0.00  0.00    +0.041 C 
ATOM     14  C   UNL     1      29.099 -23.808 -14.813  0.00  0.00    +0.139 C 
ATOM     15  C   UNL     1      29.496 -25.132 -14.630  0.00  0.00    +0.040 C 
ATOM     16  C   UNL     1      29.934 -22.766 -14.409  0.00  0.00    +0.040 C 
BRANCH  14  17
ATOM     17  O   UNL     1      27.894 -23.531 -15.384  0.00  0.00    -0.471 OA
ATOM     18  C   UNL     1      27.897 -23.170 -16.765  0.00  0.00    +0.252 C 
ENDBRANCH  14  17
ENDBRANCH  10  11
ENDBRANCH   8  10
ENDBRANCH   1   2
BRANCH   1  19
ATOM     19  C   UNL     1      35.879 -21.705 -18.810  0.00  0.00    +0.227 C 
BRANCH  19  20
ATOM     20  O   UNL     1      36.442 -20.433 -19.127  0.00  0.00    -0.474 OA
BRANCH  20  24
ATOM     21  C   UNL     1      35.052 -18.548 -22.553  0.00  0.00    -0.021 C 
ATOM     22  C   UNL     1      34.202 -19.374 -21.819  0.00  0.00    -0.001 C 
ATOM     23  C   UNL     1      36.370 -18.356 -22.137  0.00  0.00    -0.001 C 
ATOM     24  C   UNL     1      35.986 -19.816 -20.251  0.00  0.00    +0.139 C 
ATOM     25  C   UNL     1      34.668 -20.008 -20.668  0.00  0.00    +0.037 C 
ATOM     26  C   UNL     1      36.836 -18.990 -20.986  0.00  0.00    +0.037 C 
BRANCH  21  27
ATOM     27  C   UNL     1      34.547 -17.863 -23.797  0.00  0.00    +0.047 C 
BRANCH  27  32
ATOM     28  S   UNL     1      34.933 -15.695 -22.143  0.00  0.00    -0.048 S 
ATOM     29  O   UNL     1      33.597 -15.804 -25.762  0.00  0.00    -0.274 OA
ATOM     30  O   UNL     1      33.399 -13.606 -21.705  0.00  0.00    -0.263 OA
ATOM     31  N   UNL     1      33.371 -14.568 -23.820  0.00  0.00    -0.246 N 
ATOM     32  C   UNL     1      34.916 -16.391 -23.824  0.00  0.00    +0.137 C 
ATOM     33  C   UNL     1      33.899 -15.579 -24.595  0.00  0.00    +0.239 C 
ATOM     34  C   UNL     1      33.771 -14.441 -22.516  0.00  0.00    +0.279 C 
ATOM     35  H   UNL     1      32.712 -13.943 -24.201  0.00  0.00    +0.158 HD
ENDBRANCH  27  32
ENDBRANCH  21  27
ENDBRANCH  20  24
ENDBRANCH  19  20
ENDBRANCH   1  19
TORSDOF 9
ENDMDL
MODEL 3
REMARK VINA RESULT:     -11.8      4.493     13.265
REMARK  Name = 9826451
REMARK  9 active torsions:
REMARK  status: ('A' for Active; 'I' for Inactive)
REMARK    1  A    between atoms: C_1  and  N_2
REMARK    2  A    between atoms: C_1  and  C_19
REMARK    3  A    between atoms: C_8  and  O_10
REMARK    4  A    between atoms: O_10  and  C_11
REMARK    5  A    between atoms: C_14  and  O_17
REMARK    6  A    between atoms: C_19  and  O_20
REMARK    7  A    between atoms: O_20  and  C_24
REMARK    8  A    between atoms: C_21  and  C_27
REMARK    9  A    between atoms: C_27  and  C_32
REMARK                            x       y       z     vdW  Elec       q    Type
REMARK                         _______ _______ _______ _____ _____    ______ ____
ROOT
ATOM      1  C   UNL     1      33.890 -14.067 -23.460  0.00  0.00    +0.139 C 
ENDROOT
BRANCH   1   2
ATOM      2  N   UNL     1      34.464 -14.875 -22.411  0.00  0.00    -0.291 N 
ATOM      3  C   UNL     1      34.717 -14.255 -21.110  0.00  0.00    +0.113 C 
ATOM      4  N   UNL     1      34.546 -16.769 -23.831  0.00  0.00    -0.233 NA
ATOM      5  N   UNL     1      35.436 -18.847 -22.997  0.00  0.00    -0.214 NA
ATOM      6  C   UNL     1      34.789 -16.221 -22.622  0.00  0.00    +0.115 C 
ATOM      7  C   UNL     1      35.347 -16.913 -21.566  0.00  0.00    +0.146 C 
ATOM      8  C   UNL     1      35.653 -18.237 -21.814  0.00  0.00    +0.210 C 
ATOM      9  C   UNL     1      34.889 -18.066 -23.947  0.00  0.00    +0.254 C 
BRANCH   8  10
ATOM     10  O   UNL     1      36.209 -18.992 -20.815  0.00  0.00    -0.440 OA
BRANCH  10  11
ATOM     11  C   UNL     1      35.412 -19.955 -20.230  0.00  0.00    +0.147 C 
ATOM     12  C   UNL     1      34.024 -19.872 -20.335  0.00  0.00    +0.041 C 
ATOM     13  C   UNL     1      35.996 -21.014 -19.532  0.00  0.00    +0.041 C 
ATOM     14  C   UNL     1      33.803 -21.903 -19.046  0.00  0.00    +0.139 C 
ATOM     15  C   UNL     1      33.219 -20.845 -19.743  0.00  0.00    +0.040 C 
ATOM     16  C   UNL     1      35.192 -21.987 -18.942  0.00  0.00    +0.040 C 
BRANCH  14  17
ATOM     17  O   UNL     1      33.018 -22.854 -18.469  0.00  0.00    -0.471 OA
ATOM     18  C   UNL     1      33.192 -23.080 -17.072  0.00  0.00    +0.252 C 
ENDBRANCH  14  17
ENDBRANCH  10  11
ENDBRANCH   8  10
ENDBRANCH   1   2
BRANCH   1  19
ATOM     19  C   UNL     1      33.725 -12.634 -22.983  0.00  0.00    +0.227 C 
BRANCH  19  20
ATOM     20  O   UNL     1      34.331 -11.748 -23.923  0.00  0.00    -0.474 OA
BRANCH  20  24
ATOM     21  C   UNL     1      33.642  -7.687 -23.410  0.00  0.00    -0.021 C 
ATOM     22  C   UNL     1      34.948  -8.168 -23.488  0.00  0.00    -0.001 C 
ATOM     23  C   UNL     1      32.566  -8.571 -23.504  0.00  0.00    -0.001 C 
ATOM     24  C   UNL     1      34.105 -10.416 -23.754  0.00  0.00    +0.139 C 
ATOM     25  C   UNL     1      35.181  -9.533 -23.660  0.00  0.00    +0.037 C 
ATOM     26  C   UNL     1      32.798  -9.935 -23.675  0.00  0.00    +0.037 C 
BRANCH  21  27
ATOM     27  C   UNL     1      33.392  -6.213 -23.224  0.00  0.00    +0.047 C 
BRANCH  27  32
ATOM     28  S   UNL     1      31.049  -4.860 -23.742  0.00  0.00    -0.048 S 
ATOM     29  O   UNL     1      32.734  -5.625 -20.356  0.00  0.00    -0.274 OA
ATOM     30  O   UNL     1      30.115  -2.634 -22.704  0.00  0.00    -0.263 OA
ATOM     31  N   UNL     1      31.405  -4.019 -21.357  0.00  0.00    -0.246 N 
ATOM     32  C   UNL     1      32.017  -5.939 -22.642  0.00  0.00    +0.137 C 
ATOM     33  C   UNL     1      32.110  -5.204 -21.323  0.00  0.00    +0.239 C 
ATOM     34  C   UNL     1      30.772  -3.645 -22.513  0.00  0.00    +0.279 C 
ATOM     35  H   UNL     1      31.358  -3.447 -20.557  0.00  0.00    +0.158 HD
ENDBRANCH  27  32
ENDBRANCH  21  27
ENDBRANCH  20  24
ENDBRANCH  19  20
ENDBRANCH   1  19
TORSDOF 9
ENDMDL
MODEL 4
REMARK VINA RESULT:     -11.8      2.866      3.490
REMARK  Name = 9826451
REMARK  9 active torsions:
REMARK  status: ('A' for Active; 'I' for Inactive)
REMARK    1  A    between atoms: C_1  and  N_2
REMARK    2  A    between atoms: C_1  and  C_19
REMARK    3  A    between atoms: C_8  and  O_10
REMARK    4  A    between atoms: O_10  and  C_11
REMARK    5  A    between atoms: C_14  and  O_17
REMARK    6  A    between atoms: C_19  and  O_20
REMARK    7  A    between atoms: O_20  and  C_24
REMARK    8  A    between atoms: C_21  and  C_27
REMARK    9  A    between atoms: C_27  and  C_32
REMARK                            x       y       z     vdW  Elec       q    Type
REMARK                         _______ _______ _______ _____ _____    ______ ____
ROOT
ATOM      1  C   UNL     1      35.662 -19.188 -20.790  0.00  0.00    +0.139 C 
ENDROOT
BRANCH   1   2
ATOM      2  N   UNL     1      35.312 -18.334 -21.900  0.00  0.00    -0.291 N 
ATOM      3  C   UNL     1      35.283 -18.911 -23.245  0.00  0.00    +0.113 C 
ATOM      4  N   UNL     1      35.051 -16.469 -20.463  0.00  0.00    -0.233 NA
ATOM      5  N   UNL     1      34.437 -14.330 -21.385  0.00  0.00    -0.214 NA
ATOM      6  C   UNL     1      35.017 -16.977 -21.713  0.00  0.00    +0.115 C 
ATOM      7  C   UNL     1      34.706 -16.234 -22.834  0.00  0.00    +0.146 C 
ATOM      8  C   UNL     1      34.421 -14.902 -22.606  0.00  0.00    +0.210 C 
ATOM      9  C   UNL     1      34.755 -15.159 -20.373  0.00  0.00    +0.254 C 
BRANCH   8  10
ATOM     10  O   UNL     1      34.102 -14.097 -23.668  0.00  0.00    -0.440 OA
BRANCH  10  11
ATOM     11  C   UNL     1      33.523 -12.876 -23.387  0.00  0.00    +0.147 C 
ATOM     12  C   UNL     1      34.103 -11.701 -23.864  0.00  0.00    +0.041 C 
ATOM     13  C   UNL     1      32.355 -12.817 -22.625  0.00  0.00    +0.041 C 
ATOM     14  C   UNL     1      32.350 -10.410 -22.819  0.00  0.00    +0.139 C 
ATOM     15  C   UNL     1      33.517 -10.468 -23.580  0.00  0.00    +0.040 C 
ATOM     16  C   UNL     1      31.768 -11.585 -22.342  0.00  0.00    +0.040 C 
BRANCH  14  17
ATOM     17  O   UNL     1      31.776  -9.206 -22.542  0.00  0.00    -0.471 OA
ATOM     18  C   UNL     1      31.648  -8.848 -21.167  0.00  0.00    +0.252 C 
ENDBRANCH  14  17
ENDBRANCH  10  11
ENDBRANCH   8  10
ENDBRANCH   1   2
BRANCH   1  19
ATOM     19  C   UNL     1      34.520 -20.143 -20.488  0.00  0.00    +0.227 C 
BRANCH  19  20
ATOM     20  O   UNL     1      35.045 -21.447 -20.241  0.00  0.00    -0.474 OA
BRANCH  20  24
ATOM     21  C   UNL     1      35.860 -22.440 -16.295  0.00  0.00    -0.021 C 
ATOM     22  C   UNL     1      36.825 -21.789 -17.063  0.00  0.00    -0.001 C 
ATOM     23  C   UNL     1      34.621 -22.757 -16.852  0.00  0.00    -0.001 C 
ATOM     24  C   UNL     1      35.313 -21.773 -18.947  0.00  0.00    +0.139 C 
ATOM     25  C   UNL     1      36.552 -21.455 -18.389  0.00  0.00    +0.037 C 
ATOM     26  C   UNL     1      34.348 -22.424 -18.178  0.00  0.00    +0.037 C 
BRANCH  21  27
ATOM     27  C   UNL     1      36.156 -22.800 -14.862  0.00  0.00    +0.047 C 
BRANCH  27  32
ATOM     28  S   UNL     1      35.571 -25.073 -13.419  0.00  0.00    -0.048 S 
ATOM     29  O   UNL     1      38.941 -23.918 -14.904  0.00  0.00    -0.274 OA
ATOM     30  O   UNL     1      36.898 -26.226 -11.465  0.00  0.00    -0.263 OA
ATOM     31  N   UNL     1      38.106 -25.121 -13.114  0.00  0.00    -0.246 N 
ATOM     32  C   UNL     1      36.556 -24.258 -14.714  0.00  0.00    +0.137 C 
ATOM     33  C   UNL     1      37.998 -24.395 -14.281  0.00  0.00    +0.239 C 
ATOM     34  C   UNL     1      36.971 -25.576 -12.496  0.00  0.00    +0.279 C 
ATOM     35  H   UNL     1      38.991 -25.311 -12.727  0.00  0.00    +0.158 HD
ENDBRANCH  27  32
ENDBRANCH  21  27
ENDBRANCH  20  24
ENDBRANCH  19  20
ENDBRANCH   1  19
TORSDOF 9
ENDMDL
MODEL 5
REMARK VINA RESULT:     -11.8      3.513     12.113
REMARK  Name = 9826451
REMARK  9 active torsions:
REMARK  status: ('A' for Active; 'I' for Inactive)
REMARK    1  A    between atoms: C_1  and  N_2
REMARK    2  A    between atoms: C_1  and  C_19
REMARK    3  A    between atoms: C_8  and  O_10
REMARK    4  A    between atoms: O_10  and  C_11
REMARK    5  A    between atoms: C_14  and  O_17
REMARK    6  A    between atoms: C_19  and  O_20
REMARK    7  A    between atoms: O_20  and  C_24
REMARK    8  A    between atoms: C_21  and  C_27
REMARK    9  A    between atoms: C_27  and  C_32
REMARK                            x       y       z     vdW  Elec       q    Type
REMARK                         _______ _______ _______ _____ _____    ______ ____
ROOT
ATOM      1  C   UNL     1      36.404 -18.608 -21.110  0.00  0.00    +0.139 C 
ENDROOT
BRANCH   1   2
ATOM      2  N   UNL     1      35.450 -19.653 -20.822  0.00  0.00    -0.291 N 
ATOM      3  C   UNL     1      34.276 -19.785 -21.686  0.00  0.00    +0.113 C 
ATOM      4  N   UNL     1      36.715 -20.380 -18.957  0.00  0.00    -0.233 NA
ATOM      5  N   UNL     1      35.931 -22.233 -17.632  0.00  0.00    -0.214 NA
ATOM      6  C   UNL     1      35.624 -20.522 -19.738  0.00  0.00    +0.115 C 
ATOM      7  C   UNL     1      34.655 -21.483 -19.531  0.00  0.00    +0.146 C 
ATOM      8  C   UNL     1      34.863 -22.319 -18.452  0.00  0.00    +0.210 C 
ATOM      9  C   UNL     1      36.804 -21.255 -17.938  0.00  0.00    +0.254 C 
BRANCH   8  10
ATOM     10  O   UNL     1      33.946 -23.300 -18.181  0.00  0.00    -0.440 OA
BRANCH  10  11
ATOM     11  C   UNL     1      33.331 -23.269 -16.945  0.00  0.00    +0.147 C 
ATOM     12  C   UNL     1      32.013 -22.828 -16.832  0.00  0.00    +0.041 C 
ATOM     13  C   UNL     1      34.028 -23.680 -15.809  0.00  0.00    +0.041 C 
ATOM     14  C   UNL     1      32.089 -23.208 -14.449  0.00  0.00    +0.139 C 
ATOM     15  C   UNL     1      31.391 -22.797 -15.585  0.00  0.00    +0.040 C 
ATOM     16  C   UNL     1      33.407 -23.650 -14.561  0.00  0.00    +0.040 C 
BRANCH  14  17
ATOM     17  O   UNL     1      31.483 -23.179 -13.230  0.00  0.00    -0.471 OA
ATOM     18  C   UNL     1      30.726 -24.328 -12.853  0.00  0.00    +0.252 C 
ENDBRANCH  14  17
ENDBRANCH  10  11
ENDBRANCH   8  10
ENDBRANCH   1   2
BRANCH   1  19
ATOM     19  C   UNL     1      35.693 -17.402 -21.699  0.00  0.00    +0.227 C 
BRANCH  19  20
ATOM     20  O   UNL     1      35.309 -16.516 -20.649  0.00  0.00    -0.474 OA
BRANCH  20  24
ATOM     21  C   UNL     1      32.745 -13.407 -21.640  0.00  0.00    -0.021 C 
ATOM     22  C   UNL     1      32.829 -13.847 -20.319  0.00  0.00    -0.001 C 
ATOM     23  C   UNL     1      33.522 -14.011 -22.628  0.00  0.00    -0.001 C 
ATOM     24  C   UNL     1      34.467 -15.497 -20.974  0.00  0.00    +0.139 C 
ATOM     25  C   UNL     1      33.690 -14.892 -19.986  0.00  0.00    +0.037 C 
ATOM     26  C   UNL     1      34.383 -15.056 -22.295  0.00  0.00    +0.037 C 
BRANCH  21  27
ATOM     27  C   UNL     1      31.814 -12.277 -21.999  0.00  0.00    +0.047 C 
BRANCH  27  32
ATOM     28  S   UNL     1      31.580  -9.680 -21.111  0.00  0.00    -0.048 S 
ATOM     29  O   UNL     1      33.220 -11.024 -24.335  0.00  0.00    -0.274 OA
ATOM     30  O   UNL     1      30.939  -7.494 -22.422  0.00  0.00    -0.263 OA
ATOM     31  N   UNL     1      32.101  -9.156 -23.555  0.00  0.00    -0.246 N 
ATOM     32  C   UNL     1      32.529 -10.938 -22.021  0.00  0.00    +0.137 C 
ATOM     33  C   UNL     1      32.667 -10.408 -23.431  0.00  0.00    +0.239 C 
ATOM     34  C   UNL     1      31.485  -8.585 -22.473  0.00  0.00    +0.279 C 
ATOM     35  H   UNL     1      32.139  -8.678 -24.415  0.00  0.00    +0.158 HD
ENDBRANCH  27  32
ENDBRANCH  21  27
ENDBRANCH  20  24
ENDBRANCH  19  20
ENDBRANCH   1  19
TORSDOF 9
ENDMDL
MODEL 6
REMARK VINA RESULT:     -11.6      3.567     11.536
REMARK  Name = 9826451
REMARK  9 active torsions:
REMARK  status: ('A' for Active; 'I' for Inactive)
REMARK    1  A    between atoms: C_1  and  N_2
REMARK    2  A    between atoms: C_1  and  C_19
REMARK    3  A    between atoms: C_8  and  O_10
REMARK    4  A    between atoms: O_10  and  C_11
REMARK    5  A    between atoms: C_14  and  O_17
REMARK    6  A    between atoms: C_19  and  O_20
REMARK    7  A    between atoms: O_20  and  C_24
REMARK    8  A    between atoms: C_21  and  C_27
REMARK    9  A    between atoms: C_27  and  C_32
REMARK                            x       y       z     vdW  Elec       q    Type
REMARK                         _______ _______ _______ _____ _____    ______ ____
ROOT
ATOM      1  C   UNL     1      35.568 -20.302 -20.184  0.00  0.00    +0.139 C 
ENDROOT
BRANCH   1   2
ATOM      2  N   UNL     1      34.739 -21.137 -19.347  0.00  0.00    -0.291 N 
ATOM      3  C   UNL     1      33.335 -21.323 -19.716  0.00  0.00    +0.113 C 
ATOM      4  N   UNL     1      36.547 -21.567 -17.878  0.00  0.00    -0.233 NA
ATOM      5  N   UNL     1      36.209 -22.969 -15.949  0.00  0.00    -0.214 NA
ATOM      6  C   UNL     1      35.249 -21.753 -18.197  0.00  0.00    +0.115 C 
ATOM      7  C   UNL     1      34.380 -22.523 -17.450  0.00  0.00    +0.146 C 
ATOM      8  C   UNL     1      34.922 -23.113 -16.325  0.00  0.00    +0.210 C 
ATOM      9  C   UNL     1      36.954 -22.194 -16.759  0.00  0.00    +0.254 C 
BRANCH   8  10
ATOM     10  O   UNL     1      34.124 -23.894 -15.531  0.00  0.00    -0.440 OA
BRANCH  10  11
ATOM     11  C   UNL     1      32.831 -23.462 -15.311  0.00  0.00    +0.147 C 
ATOM     12  C   UNL     1      32.395 -23.196 -14.014  0.00  0.00    +0.041 C 
ATOM     13  C   UNL     1      31.960 -23.292 -16.389  0.00  0.00    +0.041 C 
ATOM     14  C   UNL     1      30.219 -22.590 -14.869  0.00  0.00    +0.139 C 
ATOM     15  C   UNL     1      31.089 -22.759 -13.792  0.00  0.00    +0.040 C 
ATOM     16  C   UNL     1      30.655 -22.855 -16.167  0.00  0.00    +0.040 C 
BRANCH  14  17
ATOM     17  O   UNL     1      28.944 -22.162 -14.653  0.00  0.00    -0.471 OA
ATOM     18  C   UNL     1      27.904 -22.841 -15.355  0.00  0.00    +0.252 C 
ENDBRANCH  14  17
ENDBRANCH  10  11
ENDBRANCH   8  10
ENDBRANCH   1   2
BRANCH   1  19
ATOM     19  C   UNL     1      34.793 -19.867 -21.416  0.00  0.00    +0.227 C 
BRANCH  19  20
ATOM     20  O   UNL     1      35.598 -18.986 -22.197  0.00  0.00    -0.474 OA
BRANCH  20  24
ATOM     21  C   UNL     1      34.670 -14.943 -22.049  0.00  0.00    -0.021 C 
ATOM     22  C   UNL     1      34.880 -15.654 -20.868  0.00  0.00    -0.001 C 
ATOM     23  C   UNL     1      34.772 -15.591 -23.281  0.00  0.00    -0.001 C 
ATOM     24  C   UNL     1      35.294 -17.660 -22.148  0.00  0.00    +0.139 C 
ATOM     25  C   UNL     1      35.192 -17.012 -20.917  0.00  0.00    +0.037 C 
ATOM     26  C   UNL     1      35.083 -16.949 -23.330  0.00  0.00    +0.037 C 
BRANCH  21  27
ATOM     27  C   UNL     1      34.334 -13.475 -21.995  0.00  0.00    +0.047 C 
BRANCH  27  32
ATOM     28  S   UNL     1      32.796 -11.593 -23.293  0.00  0.00    -0.048 S 
ATOM     29  O   UNL     1      31.814 -14.024 -20.460  0.00  0.00    -0.274 OA
ATOM     30  O   UNL     1      31.062  -9.869 -22.330  0.00  0.00    -0.263 OA
ATOM     31  N   UNL     1      31.289 -11.917 -21.257  0.00  0.00    -0.246 N 
ATOM     32  C   UNL     1      32.911 -13.203 -22.451  0.00  0.00    +0.137 C 
ATOM     33  C   UNL     1      31.960 -13.121 -21.277  0.00  0.00    +0.239 C 
ATOM     34  C   UNL     1      31.565 -10.976 -22.213  0.00  0.00    +0.279 C 
ATOM     35  H   UNL     1      30.618 -11.735 -20.560  0.00  0.00    +0.158 HD
ENDBRANCH  27  32
ENDBRANCH  21  27
ENDBRANCH  20  24
ENDBRANCH  19  20
ENDBRANCH   1  19
TORSDOF 9
ENDMDL
MODEL 7
REMARK VINA RESULT:     -11.6      2.604      4.400
REMARK  Name = 9826451
REMARK  9 active torsions:
REMARK  status: ('A' for Active; 'I' for Inactive)
REMARK    1  A    between atoms: C_1  and  N_2
REMARK    2  A    between atoms: C_1  and  C_19
REMARK    3  A    between atoms: C_8  and  O_10
REMARK    4  A    between atoms: O_10  and  C_11
REMARK    5  A    between atoms: C_14  and  O_17
REMARK    6  A    between atoms: C_19  and  O_20
REMARK    7  A    between atoms: O_20  and  C_24
REMARK    8  A    between atoms: C_21  and  C_27
REMARK    9  A    between atoms: C_27  and  C_32
REMARK                            x       y       z     vdW  Elec       q    Type
REMARK                         _______ _______ _______ _____ _____    ______ ____
ROOT
ATOM      1  C   UNL     1      33.187 -13.964 -22.709  0.00  0.00    +0.139 C 
ENDROOT
BRANCH   1   2
ATOM      2  N   UNL     1      33.026 -12.569 -23.047  0.00  0.00    -0.291 N 
ATOM      3  C   UNL     1      33.502 -12.106 -24.351  0.00  0.00    +0.113 C 
ATOM      4  N   UNL     1      32.011 -12.116 -20.956  0.00  0.00    -0.233 NA
ATOM      5  N   UNL     1      31.307  -9.872 -20.433  0.00  0.00    -0.214 NA
ATOM      6  C   UNL     1      32.442 -11.664 -22.152  0.00  0.00    +0.115 C 
ATOM      7  C   UNL     1      32.342 -10.347 -22.554  0.00  0.00    +0.146 C 
ATOM      8  C   UNL     1      31.759  -9.487 -21.644  0.00  0.00    +0.210 C 
ATOM      9  C   UNL     1      31.463 -11.180 -20.158  0.00  0.00    +0.254 C 
BRANCH   8  10
ATOM     10  O   UNL     1      31.623  -8.163 -21.969  0.00  0.00    -0.440 OA
BRANCH  10  11
ATOM     11  C   UNL     1      32.654  -7.573 -22.673  0.00  0.00    +0.147 C 
ATOM     12  C   UNL     1      32.407  -6.988 -23.914  0.00  0.00    +0.041 C 
ATOM     13  C   UNL     1      33.944  -7.563 -22.141  0.00  0.00    +0.041 C 
ATOM     14  C   UNL     1      34.738  -6.381 -24.093  0.00  0.00    +0.139 C 
ATOM     15  C   UNL     1      33.448  -6.392 -24.624  0.00  0.00    +0.040 C 
ATOM     16  C   UNL     1      34.985  -6.966 -22.850  0.00  0.00    +0.040 C 
BRANCH  14  17
ATOM     17  O   UNL     1      35.755  -5.798 -24.785  0.00  0.00    -0.471 OA
ATOM     18  C   UNL     1      35.425  -5.181 -26.028  0.00  0.00    +0.252 C 
ENDBRANCH  14  17
ENDBRANCH  10  11
ENDBRANCH   8  10
ENDBRANCH   1   2
BRANCH   1  19
ATOM     19  C   UNL     1      34.659 -14.338 -22.729  0.00  0.00    +0.227 C 
BRANCH  19  20
ATOM     20  O   UNL     1      34.854 -15.452 -23.597  0.00  0.00    -0.474 OA
BRANCH  20  24
ATOM     21  C   UNL     1      35.111 -19.202 -21.836  0.00  0.00    -0.021 C 
ATOM     22  C   UNL     1      34.706 -19.082 -23.165  0.00  0.00    -0.001 C 
ATOM     23  C   UNL     1      35.431 -18.061 -21.099  0.00  0.00    -0.001 C 
ATOM     24  C   UNL     1      34.938 -16.682 -23.020  0.00  0.00    +0.139 C 
ATOM     25  C   UNL     1      34.619 -17.823 -23.757  0.00  0.00    +0.037 C 
ATOM     26  C   UNL     1      35.343 -16.802 -21.691  0.00  0.00    +0.037 C 
BRANCH  21  27
ATOM     27  C   UNL     1      35.205 -20.564 -21.197  0.00  0.00    +0.047 C 
BRANCH  27  32
ATOM     28  S   UNL     1      35.540 -21.769 -18.743  0.00  0.00    -0.048 S 
ATOM     29  O   UNL     1      32.320 -20.416 -20.385  0.00  0.00    -0.274 OA
ATOM     30  O   UNL     1      34.085 -23.601 -17.545  0.00  0.00    -0.263 OA
ATOM     31  N   UNL     1      33.011 -22.074 -18.928  0.00  0.00    -0.246 N 
ATOM     32  C   UNL     1      34.655 -20.565 -19.782  0.00  0.00    +0.137 C 
ATOM     33  C   UNL     1      33.203 -20.986 -19.753  0.00  0.00    +0.239 C 
ATOM     34  C   UNL     1      34.088 -22.640 -18.299  0.00  0.00    +0.279 C 
ATOM     35  H   UNL     1      32.107 -22.442 -18.794  0.00  0.00    +0.158 HD
ENDBRANCH  27  32
ENDBRANCH  21  27
ENDBRANCH  20  24
ENDBRANCH  19  20
ENDBRANCH   1  19
TORSDOF 9
ENDMDL
MODEL 8
REMARK VINA RESULT:     -11.5      3.412      5.819
REMARK  Name = 9826451
REMARK  9 active torsions:
REMARK  status: ('A' for Active; 'I' for Inactive)
REMARK    1  A    between atoms: C_1  and  N_2
REMARK    2  A    between atoms: C_1  and  C_19
REMARK    3  A    between atoms: C_8  and  O_10
REMARK    4  A    between atoms: O_10  and  C_11
REMARK    5  A    between atoms: C_14  and  O_17
REMARK    6  A    between atoms: C_19  and  O_20
REMARK    7  A    between atoms: O_20  and  C_24
REMARK    8  A    between atoms: C_21  and  C_27
REMARK    9  A    between atoms: C_27  and  C_32
REMARK                            x       y       z     vdW  Elec       q    Type
REMARK                         _______ _______ _______ _____ _____    ______ ____
ROOT
ATOM      1  C   UNL     1      34.329 -22.013 -18.826  0.00  0.00    +0.139 C 
ENDROOT
BRANCH   1   2
ATOM      2  N   UNL     1      34.103 -20.939 -19.764  0.00  0.00    -0.291 N 
ATOM      3  C   UNL     1      32.742 -20.710 -20.251  0.00  0.00    +0.113 C 
ATOM      4  N   UNL     1      36.401 -20.365 -19.754  0.00  0.00    -0.233 NA
ATOM      5  N   UNL     1      37.181 -18.544 -21.124  0.00  0.00    -0.214 NA
ATOM      6  C   UNL     1      35.155 -20.133 -20.218  0.00  0.00    +0.115 C 
ATOM      7  C   UNL     1      34.849 -19.139 -21.125  0.00  0.00    +0.146 C 
ATOM      8  C   UNL     1      35.913 -18.367 -21.547  0.00  0.00    +0.210 C 
ATOM      9  C   UNL     1      37.351 -19.546 -20.242  0.00  0.00    +0.254 C 
BRANCH   8  10
ATOM     10  O   UNL     1      35.690 -17.358 -22.447  0.00  0.00    -0.440 OA
BRANCH  10  11
ATOM     11  C   UNL     1      35.010 -16.245 -21.996  0.00  0.00    +0.147 C 
ATOM     12  C   UNL     1      34.429 -15.365 -22.909  0.00  0.00    +0.041 C 
ATOM     13  C   UNL     1      34.904 -16.000 -20.626  0.00  0.00    +0.041 C 
ATOM     14  C   UNL     1      33.636 -13.995 -21.084  0.00  0.00    +0.139 C 
ATOM     15  C   UNL     1      33.742 -14.240 -22.453  0.00  0.00    +0.040 C 
ATOM     16  C   UNL     1      34.216 -14.876 -20.171  0.00  0.00    +0.040 C 
BRANCH  14  17
ATOM     17  O   UNL     1      32.964 -12.898 -20.639  0.00  0.00    -0.471 OA
ATOM     18  C   UNL     1      31.932 -12.382 -21.478  0.00  0.00    +0.252 C 
ENDBRANCH  14  17
ENDBRANCH  10  11
ENDBRANCH   8  10
ENDBRANCH   1   2
BRANCH   1  19
ATOM     19  C   UNL     1      33.129 -22.160 -17.905  0.00  0.00    +0.227 C 
BRANCH  19  20
ATOM     20  O   UNL     1      33.251 -23.368 -17.157  0.00  0.00    -0.474 OA
BRANCH  20  24
ATOM     21  C   UNL     1      35.721 -23.288 -13.823  0.00  0.00    -0.021 C 
ATOM     22  C   UNL     1      34.490 -23.939 -13.762  0.00  0.00    -0.001 C 
ATOM     23  C   UNL     1      36.123 -22.663 -15.004  0.00  0.00    -0.001 C 
ATOM     24  C   UNL     1      34.061 -23.342 -16.063  0.00  0.00    +0.139 C 
ATOM     25  C   UNL     1      33.659 -23.966 -14.882  0.00  0.00    +0.037 C 
ATOM     26  C   UNL     1      35.292 -22.690 -16.123  0.00  0.00    +0.037 C 
BRANCH  21  27
ATOM     27  C   UNL     1      36.618 -23.259 -12.612  0.00  0.00    +0.047 C 
BRANCH  27  32
ATOM     28  S   UNL     1      38.100 -24.902 -14.252  0.00  0.00    -0.048 S 
ATOM     29  O   UNL     1      36.347 -25.717 -10.912  0.00  0.00    -0.274 OA
ATOM     30  O   UNL     1      37.655 -27.377 -15.018  0.00  0.00    -0.263 OA
ATOM     31  N   UNL     1      36.932 -26.732 -12.906  0.00  0.00    -0.246 N 
ATOM     32  C   UNL     1      37.559 -24.450 -12.574  0.00  0.00    +0.137 C 
ATOM     33  C   UNL     1      36.876 -25.678 -12.018  0.00  0.00    +0.239 C 
ATOM     34  C   UNL     1      37.527 -26.551 -14.127  0.00  0.00    +0.279 C 
ATOM     35  H   UNL     1      36.547 -27.605 -12.665  0.00  0.00    +0.158 HD
ENDBRANCH  27  32
ENDBRANCH  21  27
ENDBRANCH  20  24
ENDBRANCH  19  20
ENDBRANCH   1  19
TORSDOF 9
ENDMDL
MODEL 9
REMARK VINA RESULT:     -11.5      4.143     12.890
REMARK  Name = 9826451
REMARK  9 active torsions:
REMARK  status: ('A' for Active; 'I' for Inactive)
REMARK    1  A    between atoms: C_1  and  N_2
REMARK    2  A    between atoms: C_1  and  C_19
REMARK    3  A    between atoms: C_8  and  O_10
REMARK    4  A    between atoms: O_10  and  C_11
REMARK    5  A    between atoms: C_14  and  O_17
REMARK    6  A    between atoms: C_19  and  O_20
REMARK    7  A    between atoms: O_20  and  C_24
REMARK    8  A    between atoms: C_21  and  C_27
REMARK    9  A    between atoms: C_27  and  C_32
REMARK                            x       y       z     vdW  Elec       q    Type
REMARK                         _______ _______ _______ _____ _____    ______ ____
ROOT
ATOM      1  C   UNL     1      34.348 -21.682 -19.202  0.00  0.00    +0.139 C 
ENDROOT
BRANCH   1   2
ATOM      2  N   UNL     1      34.967 -22.137 -17.979  0.00  0.00    -0.291 N 
ATOM      3  C   UNL     1      36.415 -21.981 -17.828  0.00  0.00    +0.113 C 
ATOM      4  N   UNL     1      32.882 -22.860 -17.120  0.00  0.00    -0.233 NA
ATOM      5  N   UNL     1      32.780 -23.884 -14.942  0.00  0.00    -0.214 NA
ATOM      6  C   UNL     1      34.215 -22.728 -16.956  0.00  0.00    +0.115 C 
ATOM      7  C   UNL     1      34.893 -23.145 -15.828  0.00  0.00    +0.146 C 
ATOM      8  C   UNL     1      34.115 -23.722 -14.843  0.00  0.00    +0.210 C 
ATOM      9  C   UNL     1      32.236 -23.438 -16.090  0.00  0.00    +0.254 C 
BRANCH   8  10
ATOM     10  O   UNL     1      34.714 -24.161 -13.692  0.00  0.00    -0.440 OA
BRANCH  10  11
ATOM     11  C   UNL     1      35.907 -24.844 -13.818  0.00  0.00    +0.147 C 
ATOM     12  C   UNL     1      37.077 -24.312 -13.275  0.00  0.00    +0.041 C 
ATOM     13  C   UNL     1      35.943 -26.068 -14.489  0.00  0.00    +0.041 C 
ATOM     14  C   UNL     1      38.317 -26.225 -14.073  0.00  0.00    +0.139 C 
ATOM     15  C   UNL     1      38.281 -25.002 -13.402  0.00  0.00    +0.040 C 
ATOM     16  C   UNL     1      37.147 -26.758 -14.615  0.00  0.00    +0.040 C 
BRANCH  14  17
ATOM     17  O   UNL     1      39.493 -26.900 -14.196  0.00  0.00    -0.471 OA
ATOM     18  C   UNL     1      40.687 -26.191 -13.868  0.00  0.00    +0.252 C 
ENDBRANCH  14  17
ENDBRANCH  10  11
ENDBRANCH   8  10
ENDBRANCH   1   2
BRANCH   1  19
ATOM     19  C   UNL     1      35.231 -20.646 -19.878  0.00  0.00    +0.227 C 
BRANCH  19  20
ATOM     20  O   UNL     1      34.943 -20.617 -21.274  0.00  0.00    -0.474 OA
BRANCH  20  24
ATOM     21  C   UNL     1      34.968 -16.906 -23.134  0.00  0.00    -0.021 C 
ATOM     22  C   UNL     1      35.376 -17.023 -21.805  0.00  0.00    -0.001 C 
ATOM     23  C   UNL     1      34.551 -18.036 -23.838  0.00  0.00    -0.001 C 
ATOM     24  C   UNL     1      34.951 -19.399 -21.884  0.00  0.00    +0.139 C 
ATOM     25  C   UNL     1      35.368 -18.269 -21.180  0.00  0.00    +0.037 C 
ATOM     26  C   UNL     1      34.542 -19.282 -23.212  0.00  0.00    +0.037 C 
BRANCH  21  27
ATOM     27  C   UNL     1      34.977 -15.558 -23.808  0.00  0.00    +0.047 C 
BRANCH  27  32
ATOM     28  S   UNL     1      33.103 -13.705 -24.609  0.00  0.00    -0.048 S 
ATOM     29  O   UNL     1      35.107 -13.892 -21.316  0.00  0.00    -0.274 OA
ATOM     30  O   UNL     1      33.114 -11.086 -24.395  0.00  0.00    -0.263 OA
ATOM     31  N   UNL     1      34.160 -12.330 -22.735  0.00  0.00    -0.246 N 
ATOM     32  C   UNL     1      33.893 -14.645 -23.266  0.00  0.00    +0.137 C 
ATOM     33  C   UNL     1      34.463 -13.610 -22.321  0.00  0.00    +0.239 C 
ATOM     34  C   UNL     1      33.456 -12.147 -23.896  0.00  0.00    +0.279 C 
ATOM     35  H   UNL     1      34.448 -11.554 -22.200  0.00  0.00    +0.158 HD
ENDBRANCH  27  32
ENDBRANCH  21  27
ENDBRANCH  20  24
ENDBRANCH  19  20
ENDBRANCH   1  19
TORSDOF 9
ENDMDL
