MODEL 1
REMARK VINA RESULT:     -11.6      0.000      0.000
REMARK  Name = 25109292
REMARK  3 active torsions:
REMARK  status: ('A' for Active; 'I' for Inactive)
REMARK    1  A    between atoms: C_3  and  S_20
REMARK    2  A    between atoms: C_7  and  C_10
REMARK    3  A    between atoms: S_20  and  C_23
REMARK                            x       y       z     vdW  Elec       q    Type
REMARK                         _______ _______ _______ _____ _____    ______ ____
ROOT
ATOM      1  O   UNL     1      34.630 -23.004 -16.593  0.00  0.00    -0.425 OA
ATOM      2  N   UNL     1      36.846 -22.527 -16.536  0.00  0.00    -0.368 NA
ATOM      3  C   UNL     1      36.683 -24.699 -13.500  0.00  0.00    +0.091 C 
ATOM      4  C   UNL     1      36.525 -23.344 -15.479  0.00  0.00    +0.153 C 
ATOM      5  C   UNL     1      35.170 -23.639 -15.511  0.00  0.00    +0.174 C 
ATOM      6  C   UNL     1      37.312 -23.883 -14.451  0.00  0.00    +0.107 C 
ATOM      7  C   UNL     1      35.695 -22.363 -17.152  0.00  0.00    +0.282 C 
ATOM      8  C   UNL     1      35.310 -24.971 -13.568  0.00  0.00    +0.018 C 
ATOM      9  C   UNL     1      34.513 -24.442 -14.588  0.00  0.00    +0.041 C 
ENDROOT
BRANCH   7  10
ATOM     10  C   UNL     1      35.396 -21.599 -18.338  0.00  0.00    +0.066 C 
ATOM     11  C   UNL     1      36.109 -20.061 -20.084  0.00  0.00    +0.000 C 
ATOM     12  C   UNL     1      34.813 -20.113 -20.649  0.00  0.00    +0.000 C 
ATOM     13  C   UNL     1      36.385 -20.809 -18.928  0.00  0.00    +0.006 C 
ATOM     14  C   UNL     1      34.123 -21.651 -18.895  0.00  0.00    +0.006 C 
ATOM     15  C   UNL     1      33.830 -20.913 -20.043  0.00  0.00    +0.000 C 
ATOM     16  C   UNL     1      37.091 -19.261 -20.690  0.00  0.00    +0.000 C 
ATOM     17  C   UNL     1      34.537 -19.365 -21.805  0.00  0.00    +0.000 C 
ATOM     18  C   UNL     1      36.799 -18.523 -21.837  0.00  0.00    +0.000 C 
ATOM     19  C   UNL     1      35.525 -18.575 -22.393  0.00  0.00    +0.000 C 
ENDBRANCH   7  10
BRANCH   3  20
ATOM     20  S   UNL     1      37.632 -25.389 -12.203  0.00  0.00    +0.005 S 
ATOM     21  O   UNL     1      36.724 -26.101 -11.316  0.00  0.00    -0.169 OA
ATOM     22  O   UNL     1      38.777 -26.082 -12.776  0.00  0.00    -0.169 OA
BRANCH  20  23
ATOM     23  C   UNL     1      38.264 -23.979 -11.324  0.00  0.00    +0.156 C 
ATOM     24  C   UNL     1      37.171 -22.978 -11.023  0.00  0.00    +0.028 C 
ENDBRANCH  20  23
ENDBRANCH   3  20
TORSDOF 3
ENDMDL
MODEL 2
REMARK VINA RESULT:     -10.6      8.399     12.050
REMARK  Name = 25109292
REMARK  3 active torsions:
REMARK  status: ('A' for Active; 'I' for Inactive)
REMARK    1  A    between atoms: C_3  and  S_20
REMARK    2  A    between atoms: C_7  and  C_10
REMARK    3  A    between atoms: S_20  and  C_23
REMARK                            x       y       z     vdW  Elec       q    Type
REMARK                         _______ _______ _______ _____ _____    ______ ____
ROOT
ATOM      1  O   UNL     1      33.604 -13.426 -24.361  0.00  0.00    -0.425 OA
ATOM      2  N   UNL     1      34.495 -13.444 -22.277  0.00  0.00    -0.368 NA
ATOM      3  C   UNL     1      34.925 -17.069 -23.080  0.00  0.00    +0.091 C 
ATOM      4  C   UNL     1      34.539 -14.712 -22.806  0.00  0.00    +0.153 C 
ATOM      5  C   UNL     1      33.995 -14.704 -24.081  0.00  0.00    +0.174 C 
ATOM      6  C   UNL     1      35.020 -15.920 -22.281  0.00  0.00    +0.107 C 
ATOM      7  C   UNL     1      33.937 -12.736 -23.234  0.00  0.00    +0.282 C 
ATOM      8  C   UNL     1      34.367 -17.018 -24.363  0.00  0.00    +0.018 C 
ATOM      9  C   UNL     1      33.884 -15.820 -24.901  0.00  0.00    +0.041 C 
ENDROOT
BRANCH   7  10
ATOM     10  C   UNL     1      33.625 -11.328 -23.263  0.00  0.00    +0.066 C 
ATOM     11  C   UNL     1      34.356  -9.016 -23.456  0.00  0.00    +0.000 C 
ATOM     12  C   UNL     1      33.014  -8.587 -23.322  0.00  0.00    +0.000 C 
ATOM     13  C   UNL     1      34.645 -10.390 -23.424  0.00  0.00    +0.006 C 
ATOM     14  C   UNL     1      32.305 -10.907 -23.133  0.00  0.00    +0.006 C 
ATOM     15  C   UNL     1      32.000  -9.545 -23.161  0.00  0.00    +0.000 C 
ATOM     16  C   UNL     1      35.371  -8.058 -23.617  0.00  0.00    +0.000 C 
ATOM     17  C   UNL     1      32.726  -7.213 -23.354  0.00  0.00    +0.000 C 
ATOM     18  C   UNL     1      35.065  -6.697 -23.646  0.00  0.00    +0.000 C 
ATOM     19  C   UNL     1      33.746  -6.276 -23.514  0.00  0.00    +0.000 C 
ENDBRANCH   7  10
BRANCH   3  20
ATOM     20  S   UNL     1      35.515 -18.594 -22.458  0.00  0.00    +0.005 S 
ATOM     21  O   UNL     1      34.985 -19.654 -23.303  0.00  0.00    -0.169 OA
ATOM     22  O   UNL     1      36.950 -18.490 -22.241  0.00  0.00    -0.169 OA
BRANCH  20  23
ATOM     23  C   UNL     1      34.754 -18.738 -20.857  0.00  0.00    +0.156 C 
ATOM     24  C   UNL     1      34.450 -20.180 -20.516  0.00  0.00    +0.028 C 
ENDBRANCH  20  23
ENDBRANCH   3  20
TORSDOF 3
ENDMDL
MODEL 3
REMARK VINA RESULT:     -10.3      1.352      1.998
REMARK  Name = 25109292
REMARK  3 active torsions:
REMARK  status: ('A' for Active; 'I' for Inactive)
REMARK    1  A    between atoms: C_3  and  S_20
REMARK    2  A    between atoms: C_7  and  C_10
REMARK    3  A    between atoms: S_20  and  C_23
REMARK                            x       y       z     vdW  Elec       q    Type
REMARK                         _______ _______ _______ _____ _____    ______ ____
ROOT
ATOM      1  O   UNL     1      37.134 -22.291 -16.867  0.00  0.00    -0.425 OA
ATOM      2  N   UNL     1      35.016 -22.604 -16.120  0.00  0.00    -0.368 NA
ATOM      3  C   UNL     1      36.836 -24.168 -13.256  0.00  0.00    +0.091 C 
ATOM      4  C   UNL     1      35.906 -23.115 -15.206  0.00  0.00    +0.153 C 
ATOM      5  C   UNL     1      37.202 -22.925 -15.660  0.00  0.00    +0.174 C 
ATOM      6  C   UNL     1      35.705 -23.752 -13.973  0.00  0.00    +0.107 C 
ATOM      7  C   UNL     1      35.795 -22.136 -17.071  0.00  0.00    +0.282 C 
ATOM      8  C   UNL     1      38.130 -23.958 -13.751  0.00  0.00    +0.018 C 
ATOM      9  C   UNL     1      38.346 -23.323 -14.979  0.00  0.00    +0.041 C 
ENDROOT
BRANCH   7  10
ATOM     10  C   UNL     1      35.435 -21.478 -18.304  0.00  0.00    +0.066 C 
ATOM     11  C   UNL     1      36.028 -20.023 -20.161  0.00  0.00    +0.000 C 
ATOM     12  C   UNL     1      34.733 -20.201 -20.704  0.00  0.00    +0.000 C 
ATOM     13  C   UNL     1      36.363 -20.668 -18.960  0.00  0.00    +0.006 C 
ATOM     14  C   UNL     1      34.163 -21.653 -18.838  0.00  0.00    +0.006 C 
ATOM     15  C   UNL     1      33.812 -21.019 -20.031  0.00  0.00    +0.000 C 
ATOM     16  C   UNL     1      36.949 -19.204 -20.834  0.00  0.00    +0.000 C 
ATOM     17  C   UNL     1      34.398 -19.555 -21.906  0.00  0.00    +0.000 C 
ATOM     18  C   UNL     1      36.599 -18.570 -22.026  0.00  0.00    +0.000 C 
ATOM     19  C   UNL     1      35.326 -18.745 -22.560  0.00  0.00    +0.000 C 
ENDBRANCH   7  10
BRANCH   3  20
ATOM     20  S   UNL     1      36.625 -24.966 -11.713  0.00  0.00    +0.005 S 
ATOM     21  O   UNL     1      37.494 -24.307 -10.749  0.00  0.00    -0.169 OA
ATOM     22  O   UNL     1      35.202 -25.090 -11.440  0.00  0.00    -0.169 OA
BRANCH  20  23
ATOM     23  C   UNL     1      37.250 -26.609 -11.981  0.00  0.00    +0.156 C 
ATOM     24  C   UNL     1      37.157 -27.007 -13.437  0.00  0.00    +0.028 C 
ENDBRANCH  20  23
ENDBRANCH   3  20
TORSDOF 3
ENDMDL
MODEL 4
REMARK VINA RESULT:     -10.3     10.825     15.301
REMARK  Name = 25109292
REMARK  3 active torsions:
REMARK  status: ('A' for Active; 'I' for Inactive)
REMARK    1  A    between atoms: C_3  and  S_20
REMARK    2  A    between atoms: C_7  and  C_10
REMARK    3  A    between atoms: S_20  and  C_23
REMARK                            x       y       z     vdW  Elec       q    Type
REMARK                         _______ _______ _______ _____ _____    ______ ____
ROOT
ATOM      1  O   UNL     1      34.586 -10.921 -23.673  0.00  0.00    -0.425 OA
ATOM      2  N   UNL     1      32.446 -11.117 -22.953  0.00  0.00    -0.368 NA
ATOM      3  C   UNL     1      32.786  -7.409 -22.634  0.00  0.00    +0.091 C 
ATOM      4  C   UNL     1      32.820  -9.795 -22.927  0.00  0.00    +0.153 C 
ATOM      5  C   UNL     1      34.129  -9.672 -23.367  0.00  0.00    +0.174 C 
ATOM      6  C   UNL     1      32.120  -8.640 -22.548  0.00  0.00    +0.107 C 
ATOM      7  C   UNL     1      33.522 -11.727 -23.399  0.00  0.00    +0.282 C 
ATOM      8  C   UNL     1      34.110  -7.328 -23.083  0.00  0.00    +0.018 C 
ATOM      9  C   UNL     1      34.821  -8.471 -23.466  0.00  0.00    +0.041 C 
ENDROOT
BRANCH   7  10
ATOM     10  C   UNL     1      33.740 -13.133 -23.641  0.00  0.00    +0.066 C 
ATOM     11  C   UNL     1      34.598 -15.285 -22.900  0.00  0.00    +0.000 C 
ATOM     12  C   UNL     1      34.161 -15.869 -24.112  0.00  0.00    +0.000 C 
ATOM     13  C   UNL     1      34.380 -13.916 -22.679  0.00  0.00    +0.006 C 
ATOM     14  C   UNL     1      33.310 -13.707 -24.833  0.00  0.00    +0.006 C 
ATOM     15  C   UNL     1      33.518 -15.067 -25.069  0.00  0.00    +0.000 C 
ATOM     16  C   UNL     1      35.240 -16.088 -21.943  0.00  0.00    +0.000 C 
ATOM     17  C   UNL     1      34.379 -17.239 -24.333  0.00  0.00    +0.000 C 
ATOM     18  C   UNL     1      35.449 -17.447 -22.179  0.00  0.00    +0.000 C 
ATOM     19  C   UNL     1      35.020 -18.021 -23.371  0.00  0.00    +0.000 C 
ENDBRANCH   7  10
BRANCH   3  20
ATOM     20  S   UNL     1      31.945  -5.948 -22.170  0.00  0.00    +0.005 S 
ATOM     21  O   UNL     1      30.519  -6.239 -22.158  0.00  0.00    -0.169 OA
ATOM     22  O   UNL     1      32.581  -5.396 -20.983  0.00  0.00    -0.169 OA
BRANCH  20  23
ATOM     23  C   UNL     1      32.261  -4.816 -23.504  0.00  0.00    +0.156 C 
ATOM     24  C   UNL     1      31.429  -5.149 -24.723  0.00  0.00    +0.028 C 
ENDBRANCH  20  23
ENDBRANCH   3  20
TORSDOF 3
ENDMDL
MODEL 5
REMARK VINA RESULT:     -10.3     10.356     14.610
REMARK  Name = 25109292
REMARK  3 active torsions:
REMARK  status: ('A' for Active; 'I' for Inactive)
REMARK    1  A    between atoms: C_3  and  S_20
REMARK    2  A    between atoms: C_7  and  C_10
REMARK    3  A    between atoms: S_20  and  C_23
REMARK                            x       y       z     vdW  Elec       q    Type
REMARK                         _______ _______ _______ _____ _____    ______ ____
ROOT
ATOM      1  O   UNL     1      32.387 -12.373 -22.550  0.00  0.00    -0.425 OA
ATOM      2  N   UNL     1      34.135 -11.539 -23.729  0.00  0.00    -0.368 NA
ATOM      3  C   UNL     1      32.425  -8.311 -22.943  0.00  0.00    +0.091 C 
ATOM      4  C   UNL     1      33.328 -10.508 -23.314  0.00  0.00    +0.153 C 
ATOM      5  C   UNL     1      32.258 -11.014 -22.592  0.00  0.00    +0.174 C 
ATOM      6  C   UNL     1      33.424  -9.121 -23.501  0.00  0.00    +0.107 C 
ATOM      7  C   UNL     1      33.532 -12.606 -23.252  0.00  0.00    +0.282 C 
ATOM      8  C   UNL     1      31.359  -8.863 -22.222  0.00  0.00    +0.018 C 
ATOM      9  C   UNL     1      31.250 -10.244 -22.026  0.00  0.00    +0.041 C 
ENDROOT
BRANCH   7  10
ATOM     10  C   UNL     1      33.910 -13.994 -23.363  0.00  0.00    +0.066 C 
ATOM     11  C   UNL     1      34.838 -16.008 -22.362  0.00  0.00    +0.000 C 
ATOM     12  C   UNL     1      34.643 -16.696 -23.583  0.00  0.00    +0.000 C 
ATOM     13  C   UNL     1      34.466 -14.657 -22.269  0.00  0.00    +0.006 C 
ATOM     14  C   UNL     1      33.718 -14.671 -24.563  0.00  0.00    +0.006 C 
ATOM     15  C   UNL     1      34.081 -16.014 -24.675  0.00  0.00    +0.000 C 
ATOM     16  C   UNL     1      35.399 -16.690 -21.270  0.00  0.00    +0.000 C 
ATOM     17  C   UNL     1      35.014 -18.048 -23.676  0.00  0.00    +0.000 C 
ATOM     18  C   UNL     1      35.762 -18.032 -21.382  0.00  0.00    +0.000 C 
ATOM     19  C   UNL     1      35.571 -18.709 -22.582  0.00  0.00    +0.000 C 
ENDBRANCH   7  10
BRANCH   3  20
ATOM     20  S   UNL     1      32.512  -6.577 -23.156  0.00  0.00    +0.005 S 
ATOM     21  O   UNL     1      33.902  -6.229 -23.414  0.00  0.00    -0.169 OA
ATOM     22  O   UNL     1      31.477  -6.166 -24.093  0.00  0.00    -0.169 OA
BRANCH  20  23
ATOM     23  C   UNL     1      32.067  -5.917 -21.566  0.00  0.00    +0.156 C 
ATOM     24  C   UNL     1      30.705  -5.260 -21.600  0.00  0.00    +0.028 C 
ENDBRANCH  20  23
ENDBRANCH   3  20
TORSDOF 3
ENDMDL
MODEL 6
REMARK VINA RESULT:     -10.1      3.450      8.716
REMARK  Name = 25109292
REMARK  3 active torsions:
REMARK  status: ('A' for Active; 'I' for Inactive)
REMARK    1  A    between atoms: C_3  and  S_20
REMARK    2  A    between atoms: C_7  and  C_10
REMARK    3  A    between atoms: S_20  and  C_23
REMARK                            x       y       z     vdW  Elec       q    Type
REMARK                         _______ _______ _______ _____ _____    ______ ____
ROOT
ATOM      1  O   UNL     1      34.590 -22.342 -17.498  0.00  0.00    -0.425 OA
ATOM      2  N   UNL     1      36.736 -21.618 -17.584  0.00  0.00    -0.368 NA
ATOM      3  C   UNL     1      35.443 -19.837 -20.604  0.00  0.00    +0.091 C 
ATOM      4  C   UNL     1      36.028 -21.080 -18.632  0.00  0.00    +0.153 C 
ATOM      5  C   UNL     1      34.714 -21.522 -18.582  0.00  0.00    +0.174 C 
ATOM      6  C   UNL     1      36.414 -20.215 -19.665  0.00  0.00    +0.107 C 
ATOM      7  C   UNL     1      35.841 -22.347 -16.956  0.00  0.00    +0.282 C 
ATOM      8  C   UNL     1      34.126 -20.307 -20.518  0.00  0.00    +0.018 C 
ATOM      9  C   UNL     1      33.726 -21.170 -19.492  0.00  0.00    +0.041 C 
ENDROOT
BRANCH   7  10
ATOM     10  C   UNL     1      35.991 -23.156 -15.771  0.00  0.00    +0.066 C 
ATOM     11  C   UNL     1      37.421 -24.374 -14.224  0.00  0.00    +0.000 C 
ATOM     12  C   UNL     1      36.283 -24.729 -13.462  0.00  0.00    +0.000 C 
ATOM     13  C   UNL     1      37.258 -23.587 -15.376  0.00  0.00    +0.006 C 
ATOM     14  C   UNL     1      34.872 -23.505 -15.021  0.00  0.00    +0.006 C 
ATOM     15  C   UNL     1      35.015 -24.287 -13.874  0.00  0.00    +0.000 C 
ATOM     16  C   UNL     1      38.689 -24.816 -13.812  0.00  0.00    +0.000 C 
ATOM     17  C   UNL     1      36.445 -25.516 -12.310  0.00  0.00    +0.000 C 
ATOM     18  C   UNL     1      38.831 -25.597 -12.665  0.00  0.00    +0.000 C 
ATOM     19  C   UNL     1      37.712 -25.947 -11.917  0.00  0.00    +0.000 C 
ENDBRANCH   7  10
BRANCH   3  20
ATOM     20  S   UNL     1      35.887 -18.759 -21.908  0.00  0.00    +0.005 S 
ATOM     21  O   UNL     1      37.340 -18.694 -21.956  0.00  0.00    -0.169 OA
ATOM     22  O   UNL     1      35.139 -19.129 -23.100  0.00  0.00    -0.169 OA
BRANCH  20  23
ATOM     23  C   UNL     1      35.285 -17.169 -21.387  0.00  0.00    +0.156 C 
ATOM     24  C   UNL     1      35.175 -16.209 -22.551  0.00  0.00    +0.028 C 
ENDBRANCH  20  23
ENDBRANCH   3  20
TORSDOF 3
ENDMDL
MODEL 7
REMARK VINA RESULT:     -10.0      2.241      3.706
REMARK  Name = 25109292
REMARK  3 active torsions:
REMARK  status: ('A' for Active; 'I' for Inactive)
REMARK    1  A    between atoms: C_3  and  S_20
REMARK    2  A    between atoms: C_7  and  C_10
REMARK    3  A    between atoms: S_20  and  C_23
REMARK                            x       y       z     vdW  Elec       q    Type
REMARK                         _______ _______ _______ _____ _____    ______ ____
ROOT
ATOM      1  O   UNL     1      36.403 -20.335 -19.110  0.00  0.00    -0.425 OA
ATOM      2  N   UNL     1      34.373 -21.333 -19.259  0.00  0.00    -0.368 NA
ATOM      3  C   UNL     1      35.578 -23.019 -16.149  0.00  0.00    +0.091 C 
ATOM      4  C   UNL     1      35.037 -21.805 -18.152  0.00  0.00    +0.153 C 
ATOM      5  C   UNL     1      36.279 -21.196 -18.058  0.00  0.00    +0.174 C 
ATOM      6  C   UNL     1      34.666 -22.742 -17.177  0.00  0.00    +0.107 C 
ATOM      7  C   UNL     1      35.224 -20.476 -19.779  0.00  0.00    +0.282 C 
ATOM      8  C   UNL     1      36.825 -22.382 -16.091  0.00  0.00    +0.018 C 
ATOM      9  C   UNL     1      37.209 -21.444 -17.056  0.00  0.00    +0.041 C 
ENDROOT
BRANCH   7  10
ATOM     10  C   UNL     1      35.088 -19.659 -20.960  0.00  0.00    +0.066 C 
ATOM     11  C   UNL     1      35.043 -17.461 -22.004  0.00  0.00    +0.000 C 
ATOM     12  C   UNL     1      34.826 -18.071 -23.262  0.00  0.00    +0.000 C 
ATOM     13  C   UNL     1      35.172 -18.269 -20.862  0.00  0.00    +0.006 C 
ATOM     14  C   UNL     1      34.875 -20.258 -22.198  0.00  0.00    +0.006 C 
ATOM     15  C   UNL     1      34.744 -19.470 -23.343  0.00  0.00    +0.000 C 
ATOM     16  C   UNL     1      35.125 -16.061 -21.923  0.00  0.00    +0.000 C 
ATOM     17  C   UNL     1      34.698 -17.263 -24.403  0.00  0.00    +0.000 C 
ATOM     18  C   UNL     1      34.994 -15.274 -23.067  0.00  0.00    +0.000 C 
ATOM     19  C   UNL     1      34.781 -15.873 -24.304  0.00  0.00    +0.000 C 
ENDBRANCH   7  10
BRANCH   3  20
ATOM     20  S   UNL     1      35.150 -24.183 -14.915  0.00  0.00    +0.005 S 
ATOM     21  O   UNL     1      33.706 -24.131 -14.737  0.00  0.00    -0.169 OA
ATOM     22  O   UNL     1      35.797 -25.450 -15.220  0.00  0.00    -0.169 OA
BRANCH  20  23
ATOM     23  C   UNL     1      35.908 -23.553 -13.436  0.00  0.00    +0.156 C 
ATOM     24  C   UNL     1      35.184 -24.029 -12.196  0.00  0.00    +0.028 C 
ENDBRANCH  20  23
ENDBRANCH   3  20
TORSDOF 3
ENDMDL
MODEL 8
REMARK VINA RESULT:      -9.8      7.307     11.809
REMARK  Name = 25109292
REMARK  3 active torsions:
REMARK  status: ('A' for Active; 'I' for Inactive)
REMARK    1  A    between atoms: C_3  and  S_20
REMARK    2  A    between atoms: C_7  and  C_10
REMARK    3  A    between atoms: S_20  and  C_23
REMARK                            x       y       z     vdW  Elec       q    Type
REMARK                         _______ _______ _______ _____ _____    ______ ____
ROOT
ATOM      1  O   UNL     1      34.454 -16.607 -23.124  0.00  0.00    -0.425 OA
ATOM      2  N   UNL     1      34.837 -15.373 -21.261  0.00  0.00    -0.368 NA
ATOM      3  C   UNL     1      33.753 -12.607 -23.527  0.00  0.00    +0.091 C 
ATOM      4  C   UNL     1      34.412 -14.551 -22.276  0.00  0.00    +0.153 C 
ATOM      5  C   UNL     1      34.177 -15.303 -23.418  0.00  0.00    +0.174 C 
ATOM      6  C   UNL     1      34.198 -13.166 -22.321  0.00  0.00    +0.107 C 
ATOM      7  C   UNL     1      34.842 -16.564 -21.818  0.00  0.00    +0.282 C 
ATOM      8  C   UNL     1      33.529 -13.402 -24.658  0.00  0.00    +0.018 C 
ATOM      9  C   UNL     1      33.737 -14.786 -24.630  0.00  0.00    +0.041 C 
ENDROOT
BRANCH   7  10
ATOM     10  C   UNL     1      35.199 -17.839 -21.243  0.00  0.00    +0.066 C 
ATOM     11  C   UNL     1      34.537 -19.944 -20.219  0.00  0.00    +0.000 C 
ATOM     12  C   UNL     1      35.898 -20.320 -20.127  0.00  0.00    +0.000 C 
ATOM     13  C   UNL     1      34.204 -18.700 -20.779  0.00  0.00    +0.006 C 
ATOM     14  C   UNL     1      36.538 -18.209 -21.153  0.00  0.00    +0.006 C 
ATOM     15  C   UNL     1      36.887 -19.441 -20.599  0.00  0.00    +0.000 C 
ATOM     16  C   UNL     1      33.548 -20.823 -19.747  0.00  0.00    +0.000 C 
ATOM     17  C   UNL     1      36.230 -21.564 -19.567  0.00  0.00    +0.000 C 
ATOM     18  C   UNL     1      33.897 -22.054 -19.193  0.00  0.00    +0.000 C 
ATOM     19  C   UNL     1      35.235 -22.424 -19.102  0.00  0.00    +0.000 C 
ENDBRANCH   7  10
BRANCH   3  20
ATOM     20  S   UNL     1      33.475 -10.883 -23.620  0.00  0.00    +0.005 S 
ATOM     21  O   UNL     1      34.768 -10.219 -23.540  0.00  0.00    -0.169 OA
ATOM     22  O   UNL     1      32.589 -10.609 -24.741  0.00  0.00    -0.169 OA
BRANCH  20  23
ATOM     23  C   UNL     1      32.572 -10.503 -22.137  0.00  0.00    +0.156 C 
ATOM     24  C   UNL     1      31.184 -11.106 -22.163  0.00  0.00    +0.028 C 
ENDBRANCH  20  23
ENDBRANCH   3  20
TORSDOF 3
ENDMDL
MODEL 9
REMARK VINA RESULT:      -9.7     10.204     14.588
REMARK  Name = 25109292
REMARK  3 active torsions:
REMARK  status: ('A' for Active; 'I' for Inactive)
REMARK    1  A    between atoms: C_3  and  S_20
REMARK    2  A    between atoms: C_7  and  C_10
REMARK    3  A    between atoms: S_20  and  C_23
REMARK                            x       y       z     vdW  Elec       q    Type
REMARK                         _______ _______ _______ _____ _____    ______ ____
ROOT
ATOM      1  O   UNL     1      32.351 -12.359 -21.912  0.00  0.00    -0.425 OA
ATOM      2  N   UNL     1      34.104 -11.767 -23.222  0.00  0.00    -0.368 NA
ATOM      3  C   UNL     1      32.108  -8.624 -23.537  0.00  0.00    +0.091 C 
ATOM      4  C   UNL     1      33.196 -10.737 -23.176  0.00  0.00    +0.153 C 
ATOM      5  C   UNL     1      32.122 -11.096 -22.376  0.00  0.00    +0.174 C 
ATOM      6  C   UNL     1      33.200  -9.470 -23.778  0.00  0.00    +0.107 C 
ATOM      7  C   UNL     1      33.554 -12.689 -22.462  0.00  0.00    +0.282 C 
ATOM      8  C   UNL     1      31.042  -9.026 -22.722  0.00  0.00    +0.018 C 
ATOM      9  C   UNL     1      31.025 -10.286 -22.114  0.00  0.00    +0.041 C 
ENDROOT
BRANCH   7  10
ATOM     10  C   UNL     1      34.041 -14.004 -22.126  0.00  0.00    +0.066 C 
ATOM     11  C   UNL     1      34.687 -16.247 -22.814  0.00  0.00    +0.000 C 
ATOM     12  C   UNL     1      34.992 -16.564 -21.469  0.00  0.00    +0.000 C 
ATOM     13  C   UNL     1      34.212 -14.963 -23.126  0.00  0.00    +0.006 C 
ATOM     14  C   UNL     1      34.342 -14.316 -20.804  0.00  0.00    +0.006 C 
ATOM     15  C   UNL     1      34.814 -15.588 -20.475  0.00  0.00    +0.000 C 
ATOM     16  C   UNL     1      34.865 -17.223 -23.808  0.00  0.00    +0.000 C 
ATOM     17  C   UNL     1      35.467 -17.849 -21.157  0.00  0.00    +0.000 C 
ATOM     18  C   UNL     1      35.337 -18.494 -23.479  0.00  0.00    +0.000 C 
ATOM     19  C   UNL     1      35.637 -18.806 -22.157  0.00  0.00    +0.000 C 
ENDBRANCH   7  10
BRANCH   3  20
ATOM     20  S   UNL     1      32.078  -7.036 -24.271  0.00  0.00    +0.005 S 
ATOM     21  O   UNL     1      32.494  -7.179 -25.658  0.00  0.00    -0.169 OA
ATOM     22  O   UNL     1      30.809  -6.398 -23.957  0.00  0.00    -0.169 OA
BRANCH  20  23
ATOM     23  C   UNL     1      33.343  -6.131 -23.409  0.00  0.00    +0.156 C 
ATOM     24  C   UNL     1      34.638  -6.107 -24.191  0.00  0.00    +0.028 C 
ENDBRANCH  20  23
ENDBRANCH   3  20
TORSDOF 3
ENDMDL
