MODEL 1
REMARK VINA RESULT:     -11.6      0.000      0.000
REMARK  Name = 5287739
REMARK  3 active torsions:
REMARK  status: ('A' for Active; 'I' for Inactive)
REMARK    1  A    between atoms: C_2  and  O_21
REMARK    2  A    between atoms: C_3  and  O_23
REMARK    3  A    between atoms: C_4  and  O_25
REMARK                            x       y       z     vdW  Elec       q    Type
REMARK                         _______ _______ _______ _____ _____    ______ ____
ROOT
ATOM      1  C   UNL     1      35.647 -23.888 -13.094  0.00  0.00    -0.021 C 
ATOM      2  C   UNL     1      37.247 -24.974 -10.906  0.00  0.00    +0.168 C 
ATOM      3  C   UNL     1      37.913 -24.012 -11.892  0.00  0.00    +0.162 C 
ATOM      4  C   UNL     1      35.819 -24.518 -10.618  0.00  0.00    +0.144 C 
ATOM      5  C   UNL     1      34.971 -24.516 -11.889  0.00  0.00    +0.058 C 
ATOM      6  C   UNL     1      37.041 -23.667 -13.082  0.00  0.00    +0.003 C 
ATOM      7  C   UNL     1      34.887 -23.565 -14.259  0.00  0.00    -0.004 C 
ATOM      8  C   UNL     1      35.540 -22.981 -15.376  0.00  0.00    -0.000 C 
ATOM      9  C   UNL     1      36.929 -22.738 -15.338  0.00  0.00    -0.000 C 
ATOM     10  C   UNL     1      37.660 -23.085 -14.199  0.00  0.00    -0.002 C 
ATOM     11  C   UNL     1      34.810 -22.637 -16.548  0.00  0.00    -0.000 C 
ATOM     12  C   UNL     1      33.499 -23.798 -14.372  0.00  0.00    -0.000 C 
ATOM     13  C   UNL     1      33.421 -22.880 -16.617  0.00  0.00    -0.000 C 
ATOM     14  C   UNL     1      35.469 -22.051 -17.656  0.00  0.00    -0.000 C 
ATOM     15  C   UNL     1      37.567 -22.157 -16.443  0.00  0.00    -0.000 C 
ATOM     16  C   UNL     1      32.781 -23.463 -15.522  0.00  0.00    -0.000 C 
ATOM     17  C   UNL     1      36.846 -21.816 -17.587  0.00  0.00    -0.000 C 
ATOM     18  C   UNL     1      32.711 -22.537 -17.776  0.00  0.00    -0.000 C 
ATOM     19  C   UNL     1      34.734 -21.717 -18.803  0.00  0.00    -0.000 C 
ATOM     20  C   UNL     1      33.364 -21.958 -18.861  0.00  0.00    +0.000 C 
ENDROOT
BRANCH   2  21
ATOM     21  O   UNL     1      37.229 -26.292 -11.454  0.00  0.00    -0.379 OA
ATOM     22  H   UNL     1      38.057 -26.453 -11.932  0.00  0.00    +0.211 HD
ENDBRANCH   2  21
BRANCH   3  23
ATOM     23  O   UNL     1      38.231 -22.792 -11.225  0.00  0.00    -0.377 OA
ATOM     24  H   UNL     1      38.347 -22.963 -10.277  0.00  0.00    +0.211 HD
ENDBRANCH   3  23
BRANCH   4  25
ATOM     25  O   UNL     1      35.209 -25.386  -9.666  0.00  0.00    -0.382 OA
ATOM     26  H   UNL     1      34.499 -24.913  -9.205  0.00  0.00    +0.210 HD
ENDBRANCH   4  25
TORSDOF 3
ENDMDL
MODEL 2
REMARK VINA RESULT:     -10.8      0.939      3.160
REMARK  Name = 5287739
REMARK  3 active torsions:
REMARK  status: ('A' for Active; 'I' for Inactive)
REMARK    1  A    between atoms: C_2  and  O_21
REMARK    2  A    between atoms: C_3  and  O_23
REMARK    3  A    between atoms: C_4  and  O_25
REMARK                            x       y       z     vdW  Elec       q    Type
REMARK                         _______ _______ _______ _____ _____    ______ ____
ROOT
ATOM      1  C   UNL     1      36.466 -23.250 -13.681  0.00  0.00    -0.021 C 
ATOM      2  C   UNL     1      36.830 -23.677 -10.815  0.00  0.00    +0.168 C 
ATOM      3  C   UNL     1      35.521 -24.133 -11.463  0.00  0.00    +0.162 C 
ATOM      4  C   UNL     1      38.000 -23.954 -11.754  0.00  0.00    +0.144 C 
ATOM      5  C   UNL     1      37.852 -23.184 -13.065  0.00  0.00    +0.058 C 
ATOM      6  C   UNL     1      35.374 -23.692 -12.905  0.00  0.00    +0.003 C 
ATOM      7  C   UNL     1      36.255 -22.822 -15.026  0.00  0.00    -0.004 C 
ATOM      8  C   UNL     1      34.951 -22.889 -15.581  0.00  0.00    -0.000 C 
ATOM      9  C   UNL     1      33.872 -23.362 -14.803  0.00  0.00    -0.000 C 
ATOM     10  C   UNL     1      34.095 -23.752 -13.480  0.00  0.00    -0.002 C 
ATOM     11  C   UNL     1      34.707 -22.481 -16.922  0.00  0.00    -0.000 C 
ATOM     12  C   UNL     1      37.283 -22.322 -15.855  0.00  0.00    -0.000 C 
ATOM     13  C   UNL     1      35.766 -21.993 -17.720  0.00  0.00    -0.000 C 
ATOM     14  C   UNL     1      33.403 -22.556 -17.469  0.00  0.00    -0.000 C 
ATOM     15  C   UNL     1      32.588 -23.430 -15.358  0.00  0.00    -0.000 C 
ATOM     16  C   UNL     1      37.047 -21.918 -17.171  0.00  0.00    -0.000 C 
ATOM     17  C   UNL     1      32.356 -23.034 -16.675  0.00  0.00    -0.000 C 
ATOM     18  C   UNL     1      35.516 -21.594 -19.040  0.00  0.00    -0.000 C 
ATOM     19  C   UNL     1      33.181 -22.150 -18.793  0.00  0.00    -0.000 C 
ATOM     20  C   UNL     1      34.232 -21.673 -19.573  0.00  0.00    +0.000 C 
ENDROOT
BRANCH   2  21
ATOM     21  O   UNL     1      36.763 -22.280 -10.528  0.00  0.00    -0.379 OA
ATOM     22  H   UNL     1      36.986 -22.131  -9.596  0.00  0.00    +0.211 HD
ENDBRANCH   2  21
BRANCH   3  23
ATOM     23  O   UNL     1      35.452 -25.558 -11.442  0.00  0.00    -0.377 OA
ATOM     24  H   UNL     1      35.738 -25.882 -10.574  0.00  0.00    +0.211 HD
ENDBRANCH   3  23
BRANCH   4  25
ATOM     25  O   UNL     1      39.225 -23.570 -11.137  0.00  0.00    -0.382 OA
ATOM     26  H   UNL     1      39.635 -24.344 -10.720  0.00  0.00    +0.210 HD
ENDBRANCH   4  25
TORSDOF 3
ENDMDL
MODEL 3
REMARK VINA RESULT:     -10.1      1.548      3.814
REMARK  Name = 5287739
REMARK  3 active torsions:
REMARK  status: ('A' for Active; 'I' for Inactive)
REMARK    1  A    between atoms: C_2  and  O_21
REMARK    2  A    between atoms: C_3  and  O_23
REMARK    3  A    between atoms: C_4  and  O_25
REMARK                            x       y       z     vdW  Elec       q    Type
REMARK                         _______ _______ _______ _____ _____    ______ ____
ROOT
ATOM      1  C   UNL     1      36.333 -23.285 -15.556  0.00  0.00    -0.021 C 
ATOM      2  C   UNL     1      36.757 -24.447 -12.911  0.00  0.00    +0.168 C 
ATOM      3  C   UNL     1      35.395 -24.633 -13.582  0.00  0.00    +0.162 C 
ATOM      4  C   UNL     1      37.869 -24.559 -13.950  0.00  0.00    +0.144 C 
ATOM      5  C   UNL     1      37.740 -23.473 -15.018  0.00  0.00    +0.058 C 
ATOM      6  C   UNL     1      35.235 -23.831 -14.858  0.00  0.00    +0.003 C 
ATOM      7  C   UNL     1      36.112 -22.517 -16.739  0.00  0.00    -0.004 C 
ATOM      8  C   UNL     1      34.788 -22.351 -17.223  0.00  0.00    -0.000 C 
ATOM      9  C   UNL     1      33.702 -22.929 -16.532  0.00  0.00    -0.000 C 
ATOM     10  C   UNL     1      33.938 -23.656 -15.362  0.00  0.00    -0.002 C 
ATOM     11  C   UNL     1      34.533 -21.600 -18.405  0.00  0.00    -0.000 C 
ATOM     12  C   UNL     1      37.149 -21.896 -17.470  0.00  0.00    -0.000 C 
ATOM     13  C   UNL     1      35.600 -21.002 -19.110  0.00  0.00    -0.000 C 
ATOM     14  C   UNL     1      33.210 -21.444 -18.884  0.00  0.00    -0.000 C 
ATOM     15  C   UNL     1      32.398 -22.765 -17.018  0.00  0.00    -0.000 C 
ATOM     16  C   UNL     1      36.901 -21.157 -18.629  0.00  0.00    -0.000 C 
ATOM     17  C   UNL     1      32.154 -22.033 -18.180  0.00  0.00    -0.000 C 
ATOM     18  C   UNL     1      35.339 -20.266 -20.274  0.00  0.00    -0.000 C 
ATOM     19  C   UNL     1      32.976 -20.702 -20.051  0.00  0.00    -0.000 C 
ATOM     20  C   UNL     1      34.035 -20.118 -20.741  0.00  0.00    +0.000 C 
ENDROOT
BRANCH   2  21
ATOM     21  O   UNL     1      36.814 -23.167 -12.281  0.00  0.00    -0.379 OA
ATOM     22  H   UNL     1      35.920 -22.893 -12.026  0.00  0.00    +0.211 HD
ENDBRANCH   2  21
BRANCH   3  23
ATOM     23  O   UNL     1      35.212 -26.008 -13.914  0.00  0.00    -0.377 OA
ATOM     24  H   UNL     1      35.086 -26.095 -14.872  0.00  0.00    +0.211 HD
ENDBRANCH   3  23
BRANCH   4  25
ATOM     25  O   UNL     1      39.142 -24.430 -13.323  0.00  0.00    -0.382 OA
ATOM     26  H   UNL     1      39.020 -24.191 -12.391  0.00  0.00    +0.210 HD
ENDBRANCH   4  25
TORSDOF 3
ENDMDL
MODEL 4
REMARK VINA RESULT:     -10.1      2.919      4.797
REMARK  Name = 5287739
REMARK  3 active torsions:
REMARK  status: ('A' for Active; 'I' for Inactive)
REMARK    1  A    between atoms: C_2  and  O_21
REMARK    2  A    between atoms: C_3  and  O_23
REMARK    3  A    between atoms: C_4  and  O_25
REMARK                            x       y       z     vdW  Elec       q    Type
REMARK                         _______ _______ _______ _____ _____    ______ ____
ROOT
ATOM      1  C   UNL     1      31.872 -23.316 -15.689  0.00  0.00    -0.021 C 
ATOM      2  C   UNL     1      30.274 -24.895 -13.824  0.00  0.00    +0.168 C 
ATOM      3  C   UNL     1      31.695 -24.500 -13.417  0.00  0.00    +0.162 C 
ATOM      4  C   UNL     1      29.607 -23.744 -14.573  0.00  0.00    +0.144 C 
ATOM      5  C   UNL     1      30.366 -23.404 -15.855  0.00  0.00    +0.058 C 
ATOM      6  C   UNL     1      32.484 -23.849 -14.535  0.00  0.00    +0.003 C 
ATOM      7  C   UNL     1      32.677 -22.739 -16.718  0.00  0.00    -0.004 C 
ATOM      8  C   UNL     1      34.084 -22.669 -16.543  0.00  0.00    -0.000 C 
ATOM      9  C   UNL     1      34.680 -23.178 -15.370  0.00  0.00    -0.000 C 
ATOM     10  C   UNL     1      33.877 -23.762 -14.386  0.00  0.00    -0.002 C 
ATOM     11  C   UNL     1      34.914 -22.091 -17.544  0.00  0.00    -0.000 C 
ATOM     12  C   UNL     1      32.150 -22.227 -17.923  0.00  0.00    -0.000 C 
ATOM     13  C   UNL     1      34.345 -21.583 -18.733  0.00  0.00    -0.000 C 
ATOM     14  C   UNL     1      36.316 -22.020 -17.360  0.00  0.00    -0.000 C 
ATOM     15  C   UNL     1      36.069 -23.102 -15.203  0.00  0.00    -0.000 C 
ATOM     16  C   UNL     1      32.963 -21.661 -18.908  0.00  0.00    -0.000 C 
ATOM     17  C   UNL     1      36.877 -22.529 -16.184  0.00  0.00    -0.000 C 
ATOM     18  C   UNL     1      35.172 -21.014 -19.712  0.00  0.00    -0.000 C 
ATOM     19  C   UNL     1      37.120 -21.447 -18.356  0.00  0.00    -0.000 C 
ATOM     20  C   UNL     1      36.550 -20.946 -19.524  0.00  0.00    +0.000 C 
ENDROOT
BRANCH   2  21
ATOM     21  O   UNL     1      30.316 -26.052 -14.660  0.00  0.00    -0.379 OA
ATOM     22  H   UNL     1      29.844 -26.780 -14.227  0.00  0.00    +0.211 HD
ENDBRANCH   2  21
BRANCH   3  23
ATOM     23  O   UNL     1      31.639 -23.572 -12.335  0.00  0.00    -0.377 OA
ATOM     24  H   UNL     1      32.270 -23.840 -11.648  0.00  0.00    +0.211 HD
ENDBRANCH   3  23
BRANCH   4  25
ATOM     25  O   UNL     1      28.269 -24.092 -14.915  0.00  0.00    -0.382 OA
ATOM     26  H   UNL     1      27.661 -23.421 -14.568  0.00  0.00    +0.210 HD
ENDBRANCH   4  25
TORSDOF 3
ENDMDL
MODEL 5
REMARK VINA RESULT:      -9.9      1.281      2.020
REMARK  Name = 5287739
REMARK  3 active torsions:
REMARK  status: ('A' for Active; 'I' for Inactive)
REMARK    1  A    between atoms: C_2  and  O_21
REMARK    2  A    between atoms: C_3  and  O_23
REMARK    3  A    between atoms: C_4  and  O_25
REMARK                            x       y       z     vdW  Elec       q    Type
REMARK                         _______ _______ _______ _____ _____    ______ ____
ROOT
ATOM      1  C   UNL     1      34.911 -23.465 -14.928  0.00  0.00    -0.021 C 
ATOM      2  C   UNL     1      36.251 -24.977 -12.820  0.00  0.00    +0.168 C 
ATOM      3  C   UNL     1      37.073 -23.984 -13.644  0.00  0.00    +0.162 C 
ATOM      4  C   UNL     1      34.864 -24.403 -12.545  0.00  0.00    +0.144 C 
ATOM      5  C   UNL     1      34.100 -24.154 -13.845  0.00  0.00    +0.058 C 
ATOM      6  C   UNL     1      36.316 -23.403 -14.821  0.00  0.00    +0.003 C 
ATOM      7  C   UNL     1      34.261 -22.921 -16.077  0.00  0.00    -0.004 C 
ATOM      8  C   UNL     1      35.038 -22.284 -17.079  0.00  0.00    -0.000 C 
ATOM      9  C   UNL     1      36.440 -22.203 -16.945  0.00  0.00    -0.000 C 
ATOM     10  C   UNL     1      37.060 -22.763 -15.825  0.00  0.00    -0.002 C 
ATOM     11  C   UNL     1      34.421 -21.723 -18.232  0.00  0.00    -0.000 C 
ATOM     12  C   UNL     1      32.866 -22.984 -16.285  0.00  0.00    -0.000 C 
ATOM     13  C   UNL     1      33.021 -21.800 -18.398  0.00  0.00    -0.000 C 
ATOM     14  C   UNL     1      35.204 -21.084 -19.225  0.00  0.00    -0.000 C 
ATOM     15  C   UNL     1      37.201 -21.568 -17.936  0.00  0.00    -0.000 C 
ATOM     16  C   UNL     1      32.258 -22.435 -17.417  0.00  0.00    -0.000 C 
ATOM     17  C   UNL     1      36.591 -21.014 -19.061  0.00  0.00    -0.000 C 
ATOM     18  C   UNL     1      32.423 -21.242 -19.537  0.00  0.00    -0.000 C 
ATOM     19  C   UNL     1      34.580 -20.535 -20.354  0.00  0.00    -0.000 C 
ATOM     20  C   UNL     1      33.198 -20.614 -20.508  0.00  0.00    +0.000 C 
ENDROOT
BRANCH   2  21
ATOM     21  O   UNL     1      36.130 -26.209 -13.530  0.00  0.00    -0.379 OA
ATOM     22  H   UNL     1      35.876 -26.028 -14.448  0.00  0.00    +0.211 HD
ENDBRANCH   2  21
BRANCH   3  23
ATOM     23  O   UNL     1      37.475 -22.895 -12.814  0.00  0.00    -0.377 OA
ATOM     24  H   UNL     1      37.853 -22.192 -13.366  0.00  0.00    +0.211 HD
ENDBRANCH   3  23
BRANCH   4  25
ATOM     25  O   UNL     1      34.110 -25.306 -11.741  0.00  0.00    -0.382 OA
ATOM     26  H   UNL     1      34.714 -25.900 -11.268  0.00  0.00    +0.210 HD
ENDBRANCH   4  25
TORSDOF 3
ENDMDL
MODEL 6
REMARK VINA RESULT:      -9.8     14.858     17.738
REMARK  Name = 5287739
REMARK  3 active torsions:
REMARK  status: ('A' for Active; 'I' for Inactive)
REMARK    1  A    between atoms: C_2  and  O_21
REMARK    2  A    between atoms: C_3  and  O_23
REMARK    3  A    between atoms: C_4  and  O_25
REMARK                            x       y       z     vdW  Elec       q    Type
REMARK                         _______ _______ _______ _____ _____    ______ ____
ROOT
ATOM      1  C   UNL     1      32.233  -7.428 -22.476  0.00  0.00    -0.021 C 
ATOM      2  C   UNL     1      31.517  -4.601 -22.623  0.00  0.00    +0.168 C 
ATOM      3  C   UNL     1      31.643  -5.253 -21.245  0.00  0.00    +0.162 C 
ATOM      4  C   UNL     1      32.603  -5.134 -23.553  0.00  0.00    +0.144 C 
ATOM      5  C   UNL     1      32.469  -6.643 -23.754  0.00  0.00    +0.058 C 
ATOM      6  C   UNL     1      31.833  -6.756 -21.302  0.00  0.00    +0.003 C 
ATOM      7  C   UNL     1      32.367  -8.850 -22.470  0.00  0.00    -0.004 C 
ATOM      8  C   UNL     1      32.139  -9.565 -21.266  0.00  0.00    -0.000 C 
ATOM      9  C   UNL     1      31.769  -8.876 -20.091  0.00  0.00    -0.000 C 
ATOM     10  C   UNL     1      31.618  -7.487 -20.124  0.00  0.00    -0.002 C 
ATOM     11  C   UNL     1      32.274 -10.980 -21.222  0.00  0.00    -0.000 C 
ATOM     12  C   UNL     1      32.716  -9.603 -23.612  0.00  0.00    -0.000 C 
ATOM     13  C   UNL     1      32.633 -11.696 -22.385  0.00  0.00    -0.000 C 
ATOM     14  C   UNL     1      32.049 -11.685 -20.015  0.00  0.00    -0.000 C 
ATOM     15  C   UNL     1      31.549  -9.588 -18.904  0.00  0.00    -0.000 C 
ATOM     16  C   UNL     1      32.848 -10.994 -23.572  0.00  0.00    -0.000 C 
ATOM     17  C   UNL     1      31.689 -10.975 -18.865  0.00  0.00    -0.000 C 
ATOM     18  C   UNL     1      32.765 -13.091 -22.332  0.00  0.00    -0.000 C 
ATOM     19  C   UNL     1      32.188 -13.081 -19.989  0.00  0.00    -0.000 C 
ATOM     20  C   UNL     1      32.544 -13.778 -21.141  0.00  0.00    +0.000 C 
ENDROOT
BRANCH   2  21
ATOM     21  O   UNL     1      30.231  -4.884 -23.174  0.00  0.00    -0.379 OA
ATOM     22  H   UNL     1      30.024  -4.233 -23.862  0.00  0.00    +0.211 HD
ENDBRANCH   2  21
BRANCH   3  23
ATOM     23  O   UNL     1      32.769  -4.705 -20.561  0.00  0.00    -0.377 OA
ATOM     24  H   UNL     1      33.288  -5.424 -20.167  0.00  0.00    +0.211 HD
ENDBRANCH   3  23
BRANCH   4  25
ATOM     25  O   UNL     1      32.516  -4.497 -24.824  0.00  0.00    -0.382 OA
ATOM     26  H   UNL     1      33.049  -4.987 -25.469  0.00  0.00    +0.210 HD
ENDBRANCH   4  25
TORSDOF 3
ENDMDL
MODEL 7
REMARK VINA RESULT:      -9.8      2.040      3.553
REMARK  Name = 5287739
REMARK  3 active torsions:
REMARK  status: ('A' for Active; 'I' for Inactive)
REMARK    1  A    between atoms: C_2  and  O_21
REMARK    2  A    between atoms: C_3  and  O_23
REMARK    3  A    between atoms: C_4  and  O_25
REMARK                            x       y       z     vdW  Elec       q    Type
REMARK                         _______ _______ _______ _____ _____    ______ ____
ROOT
ATOM      1  C   UNL     1      35.037 -24.491 -13.706  0.00  0.00    -0.021 C 
ATOM      2  C   UNL     1      37.907 -25.030 -13.704  0.00  0.00    +0.168 C 
ATOM      3  C   UNL     1      37.357 -23.998 -14.691  0.00  0.00    +0.162 C 
ATOM      4  C   UNL     1      37.179 -24.911 -12.367  0.00  0.00    +0.144 C 
ATOM      5  C   UNL     1      35.685 -25.189 -12.524  0.00  0.00    +0.058 C 
ATOM      6  C   UNL     1      35.843 -23.943 -14.727  0.00  0.00    +0.003 C 
ATOM      7  C   UNL     1      33.614 -24.430 -13.814  0.00  0.00    -0.004 C 
ATOM      8  C   UNL     1      33.029 -23.775 -14.930  0.00  0.00    -0.000 C 
ATOM      9  C   UNL     1      33.848 -23.205 -15.928  0.00  0.00    -0.000 C 
ATOM     10  C   UNL     1      35.238 -23.298 -15.816  0.00  0.00    -0.002 C 
ATOM     11  C   UNL     1      31.615 -23.687 -15.063  0.00  0.00    -0.000 C 
ATOM     12  C   UNL     1      32.736 -24.994 -12.864  0.00  0.00    -0.000 C 
ATOM     13  C   UNL     1      30.772 -24.258 -14.085  0.00  0.00    -0.000 C 
ATOM     14  C   UNL     1      31.040 -23.028 -16.176  0.00  0.00    -0.000 C 
ATOM     15  C   UNL     1      33.264 -22.557 -17.024  0.00  0.00    -0.000 C 
ATOM     16  C   UNL     1      31.348 -24.910 -12.993  0.00  0.00    -0.000 C 
ATOM     17  C   UNL     1      31.877 -22.467 -17.147  0.00  0.00    -0.000 C 
ATOM     18  C   UNL     1      29.380 -24.164 -14.225  0.00  0.00    -0.000 C 
ATOM     19  C   UNL     1      29.644 -22.948 -16.292  0.00  0.00    -0.000 C 
ATOM     20  C   UNL     1      28.821 -23.513 -15.321  0.00  0.00    +0.000 C 
ENDROOT
BRANCH   2  21
ATOM     21  O   UNL     1      37.731 -26.344 -14.232  0.00  0.00    -0.379 OA
ATOM     22  H   UNL     1      38.529 -26.606 -14.717  0.00  0.00    +0.211 HD
ENDBRANCH   2  21
BRANCH   3  23
ATOM     23  O   UNL     1      37.824 -22.699 -14.331  0.00  0.00    -0.377 OA
ATOM     24  H   UNL     1      38.456 -22.775 -13.599  0.00  0.00    +0.211 HD
ENDBRANCH   3  23
BRANCH   4  25
ATOM     25  O   UNL     1      37.718 -25.841 -11.432  0.00  0.00    -0.382 OA
ATOM     26  H   UNL     1      38.433 -25.418 -10.931  0.00  0.00    +0.210 HD
ENDBRANCH   4  25
TORSDOF 3
ENDMDL
MODEL 8
REMARK VINA RESULT:      -9.7     10.753     13.590
REMARK  Name = 5287739
REMARK  3 active torsions:
REMARK  status: ('A' for Active; 'I' for Inactive)
REMARK    1  A    between atoms: C_2  and  O_21
REMARK    2  A    between atoms: C_3  and  O_23
REMARK    3  A    between atoms: C_4  and  O_25
REMARK                            x       y       z     vdW  Elec       q    Type
REMARK                         _______ _______ _______ _____ _____    ______ ____
ROOT
ATOM      1  C   UNL     1      32.551 -12.376 -20.960  0.00  0.00    -0.021 C 
ATOM      2  C   UNL     1      31.440  -9.680 -20.806  0.00  0.00    +0.168 C 
ATOM      3  C   UNL     1      31.297 -10.457 -22.116  0.00  0.00    +0.162 C 
ATOM      4  C   UNL     1      31.254 -10.621 -19.619  0.00  0.00    +0.144 C 
ATOM      5  C   UNL     1      32.316 -11.720 -19.612  0.00  0.00    +0.058 C 
ATOM      6  C   UNL     1      32.071 -11.759 -22.135  0.00  0.00    +0.003 C 
ATOM      7  C   UNL     1      33.297 -13.590 -21.049  0.00  0.00    -0.004 C 
ATOM      8  C   UNL     1      33.507 -14.185 -22.320  0.00  0.00    -0.000 C 
ATOM      9  C   UNL     1      32.995 -13.573 -23.484  0.00  0.00    -0.000 C 
ATOM     10  C   UNL     1      32.289 -12.372 -23.378  0.00  0.00    -0.002 C 
ATOM     11  C   UNL     1      34.237 -15.401 -22.444  0.00  0.00    -0.000 C 
ATOM     12  C   UNL     1      33.853 -14.246 -19.930  0.00  0.00    -0.000 C 
ATOM     13  C   UNL     1      34.770 -16.029 -21.297  0.00  0.00    -0.000 C 
ATOM     14  C   UNL     1      34.438 -15.990 -23.716  0.00  0.00    -0.000 C 
ATOM     15  C   UNL     1      33.203 -14.169 -24.736  0.00  0.00    -0.000 C 
ATOM     16  C   UNL     1      34.572 -15.438 -20.048  0.00  0.00    -0.000 C 
ATOM     17  C   UNL     1      33.914 -15.363 -24.850  0.00  0.00    -0.000 C 
ATOM     18  C   UNL     1      35.487 -17.226 -21.429  0.00  0.00    -0.000 C 
ATOM     19  C   UNL     1      35.159 -17.189 -23.819  0.00  0.00    -0.000 C 
ATOM     20  C   UNL     1      35.679 -17.802 -22.683  0.00  0.00    +0.000 C 
ENDROOT
BRANCH   2  21
ATOM     21  O   UNL     1      32.733  -9.076 -20.743  0.00  0.00    -0.379 OA
ATOM     22  H   UNL     1      33.137  -9.270 -19.884  0.00  0.00    +0.211 HD
ENDBRANCH   2  21
BRANCH   3  23
ATOM     23  O   UNL     1      29.922 -10.772 -22.334  0.00  0.00    -0.377 OA
ATOM     24  H   UNL     1      29.750 -11.681 -22.043  0.00  0.00    +0.211 HD
ENDBRANCH   3  23
BRANCH   4  25
ATOM     25  O   UNL     1      31.344  -9.894 -18.398  0.00  0.00    -0.382 OA
ATOM     26  H   UNL     1      32.048 -10.271 -17.847  0.00  0.00    +0.210 HD
ENDBRANCH   4  25
TORSDOF 3
ENDMDL
MODEL 9
REMARK VINA RESULT:      -9.6      2.040      4.384
REMARK  Name = 5287739
REMARK  3 active torsions:
REMARK  status: ('A' for Active; 'I' for Inactive)
REMARK    1  A    between atoms: C_2  and  O_21
REMARK    2  A    between atoms: C_3  and  O_23
REMARK    3  A    between atoms: C_4  and  O_25
REMARK                            x       y       z     vdW  Elec       q    Type
REMARK                         _______ _______ _______ _____ _____    ______ ____
ROOT
ATOM      1  C   UNL     1      35.393 -24.054 -14.457  0.00  0.00    -0.021 C 
ATOM      2  C   UNL     1      37.905 -24.409 -13.011  0.00  0.00    +0.168 C 
ATOM      3  C   UNL     1      36.640 -25.062 -12.451  0.00  0.00    +0.162 C 
ATOM      4  C   UNL     1      37.912 -24.509 -14.534  0.00  0.00    +0.144 C 
ATOM      5  C   UNL     1      36.718 -23.775 -15.143  0.00  0.00    +0.058 C 
ATOM      6  C   UNL     1      35.375 -24.653 -13.180  0.00  0.00    +0.003 C 
ATOM      7  C   UNL     1      34.166 -23.668 -15.078  0.00  0.00    -0.004 C 
ATOM      8  C   UNL     1      32.938 -23.935 -14.418  0.00  0.00    -0.000 C 
ATOM      9  C   UNL     1      32.934 -24.563 -13.154  0.00  0.00    -0.000 C 
ATOM     10  C   UNL     1      34.147 -24.910 -12.552  0.00  0.00    -0.002 C 
ATOM     11  C   UNL     1      31.697 -23.574 -15.012  0.00  0.00    -0.000 C 
ATOM     12  C   UNL     1      34.097 -23.020 -16.330  0.00  0.00    -0.000 C 
ATOM     13  C   UNL     1      31.673 -22.934 -16.271  0.00  0.00    -0.000 C 
ATOM     14  C   UNL     1      30.477 -23.849 -14.349  0.00  0.00    -0.000 C 
ATOM     15  C   UNL     1      31.718 -24.828 -12.509  0.00  0.00    -0.000 C 
ATOM     16  C   UNL     1      32.881 -22.662 -16.915  0.00  0.00    -0.000 C 
ATOM     17  C   UNL     1      30.505 -24.477 -13.100  0.00  0.00    -0.000 C 
ATOM     18  C   UNL     1      30.445 -22.582 -16.849  0.00  0.00    -0.000 C 
ATOM     19  C   UNL     1      29.263 -23.486 -14.950  0.00  0.00    -0.000 C 
ATOM     20  C   UNL     1      29.248 -22.858 -16.193  0.00  0.00    +0.000 C 
ENDROOT
BRANCH   2  21
ATOM     21  O   UNL     1      37.954 -23.038 -12.619  0.00  0.00    -0.379 OA
ATOM     22  H   UNL     1      37.489 -22.497 -13.276  0.00  0.00    +0.211 HD
ENDBRANCH   2  21
BRANCH   3  23
ATOM     23  O   UNL     1      36.752 -26.481 -12.552  0.00  0.00    -0.377 OA
ATOM     24  H   UNL     1      37.687 -26.725 -12.637  0.00  0.00    +0.211 HD
ENDBRANCH   3  23
BRANCH   4  25
ATOM     25  O   UNL     1      39.109 -23.941 -15.057  0.00  0.00    -0.382 OA
ATOM     26  H   UNL     1      38.975 -23.703 -15.988  0.00  0.00    +0.210 HD
ENDBRANCH   4  25
TORSDOF 3
ENDMDL
