MODEL 1
REMARK VINA RESULT:     -11.2      0.000      0.000
REMARK  Name = 11223423
REMARK  3 active torsions:
REMARK  status: ('A' for Active; 'I' for Inactive)
REMARK    1  A    between atoms: N_1  and  C_23
REMARK    2  A    between atoms: C_7  and  N_12
REMARK    3  A    between atoms: C_29  and  O_30
REMARK                            x       y       z     vdW  Elec       q    Type
REMARK                         _______ _______ _______ _____ _____    ______ ____
ROOT
ATOM      1  N   UNL     1      32.070  -8.137 -22.705  0.00  0.00    -0.263 N 
ATOM      2  N   UNL     1      31.679  -9.257 -20.514  0.00  0.00    -0.395 NA
ATOM      3  C   UNL     1      32.882 -10.123 -23.857  0.00  0.00    +0.053 C 
ATOM      4  C   UNL     1      32.490 -10.412 -22.453  0.00  0.00    +0.035 C 
ATOM      5  C   UNL     1      32.327  -8.703 -24.043  0.00  0.00    +0.103 C 
ATOM      6  C   UNL     1      32.060  -9.255 -21.807  0.00  0.00    +0.183 C 
ATOM      7  C   UNL     1      32.556 -11.617 -21.776  0.00  0.00    +0.058 C 
ATOM      8  C   UNL     1      32.166 -11.636 -20.443  0.00  0.00    +0.097 C 
ATOM      9  C   UNL     1      31.741 -10.447 -19.866  0.00  0.00    +0.094 C 
ATOM     10  C   UNL     1      31.319 -10.444 -18.433  0.00  0.00    +0.062 C 
ENDROOT
BRANCH   7  12
ATOM     11  O   UNL     1      34.954 -15.665 -19.943  0.00  0.00    -0.252 OA
ATOM     12  N   UNL     1      32.997 -12.771 -22.392  0.00  0.00    -0.191 N 
ATOM     13  N   UNL     1      34.550 -15.881 -22.298  0.00  0.00    -0.225 N 
ATOM     14  N   UNL     1      33.620 -13.739 -21.686  0.00  0.00    -0.159 NA
ATOM     15  N   UNL     1      35.586 -17.546 -21.143  0.00  0.00    -0.287 N 
ATOM     16  C   UNL     1      33.891 -14.671 -22.603  0.00  0.00    +0.158 C 
ATOM     17  C   UNL     1      34.934 -16.889 -23.278  0.00  0.00    +0.122 C 
ATOM     18  C   UNL     1      32.873 -13.075 -23.723  0.00  0.00    +0.092 C 
ATOM     19  C   UNL     1      35.441 -18.066 -22.470  0.00  0.00    +0.113 C 
ATOM     20  C   UNL     1      33.448 -14.311 -23.890  0.00  0.00    +0.054 C 
ATOM     21  C   UNL     1      35.008 -16.270 -21.006  0.00  0.00    +0.309 C 
ATOM     22  H   UNL     1      36.037 -18.026 -20.412  0.00  0.00    +0.151 HD
ENDBRANCH   7  12
BRANCH   1  23
ATOM     23  C   UNL     1      31.756  -6.789 -22.507  0.00  0.00    +0.050 C 
ATOM     24  C   UNL     1      32.647  -5.747 -22.861  0.00  0.00    -0.005 C 
ATOM     25  C   UNL     1      30.517  -6.413 -21.936  0.00  0.00    +0.018 C 
ATOM     26  C   UNL     1      32.318  -4.408 -22.656  0.00  0.00    +0.034 C 
ATOM     27  C   UNL     1      33.972  -6.080 -23.468  0.00  0.00    +0.032 C 
ATOM     28  C   UNL     1      30.187  -5.073 -21.731  0.00  0.00    +0.038 C 
ATOM     29  C   UNL     1      31.088  -4.071 -22.092  0.00  0.00    +0.139 C 
BRANCH  29  30
ATOM     30  O   UNL     1      30.765  -2.764 -21.891  0.00  0.00    -0.471 OA
ATOM     31  C   UNL     1      31.664  -1.786 -22.411  0.00  0.00    +0.252 C 
ENDBRANCH  29  30
ENDBRANCH   1  23
TORSDOF 3
ENDMDL
MODEL 2
REMARK VINA RESULT:     -10.2      2.409      9.154
REMARK  Name = 11223423
REMARK  3 active torsions:
REMARK  status: ('A' for Active; 'I' for Inactive)
REMARK    1  A    between atoms: N_1  and  C_23
REMARK    2  A    between atoms: C_7  and  N_12
REMARK    3  A    between atoms: C_29  and  O_30
REMARK                            x       y       z     vdW  Elec       q    Type
REMARK                         _______ _______ _______ _____ _____    ______ ____
ROOT
ATOM      1  N   UNL     1      33.651 -12.617 -22.557  0.00  0.00    -0.263 N 
ATOM      2  N   UNL     1      32.418 -11.594 -20.648  0.00  0.00    -0.395 NA
ATOM      3  C   UNL     1      33.268 -10.782 -24.112  0.00  0.00    +0.053 C 
ATOM      4  C   UNL     1      32.681 -10.513 -22.773  0.00  0.00    +0.035 C 
ATOM      5  C   UNL     1      34.117 -12.030 -23.827  0.00  0.00    +0.103 C 
ATOM      6  C   UNL     1      32.886 -11.590 -21.913  0.00  0.00    +0.183 C 
ATOM      7  C   UNL     1      31.969  -9.402 -22.358  0.00  0.00    +0.058 C 
ATOM      8  C   UNL     1      31.482  -9.390 -21.057  0.00  0.00    +0.097 C 
ATOM      9  C   UNL     1      31.729 -10.495 -20.253  0.00  0.00    +0.094 C 
ATOM     10  C   UNL     1      31.213 -10.505 -18.852  0.00  0.00    +0.062 C 
ENDROOT
BRANCH   7  12
ATOM     11  O   UNL     1      35.139  -6.126 -24.529  0.00  0.00    -0.252 OA
ATOM     12  N   UNL     1      31.739  -8.332 -23.200  0.00  0.00    -0.191 N 
ATOM     13  N   UNL     1      32.863  -5.668 -25.131  0.00  0.00    -0.225 N 
ATOM     14  N   UNL     1      32.762  -7.587 -23.670  0.00  0.00    -0.159 NA
ATOM     15  N   UNL     1      34.559  -4.398 -25.962  0.00  0.00    -0.287 N 
ATOM     16  C   UNL     1      32.158  -6.671 -24.432  0.00  0.00    +0.158 C 
ATOM     17  C   UNL     1      32.242  -4.602 -25.907  0.00  0.00    +0.122 C 
ATOM     18  C   UNL     1      30.516  -7.905 -23.648  0.00  0.00    +0.092 C 
ATOM     19  C   UNL     1      33.384  -3.892 -26.607  0.00  0.00    +0.113 C 
ATOM     20  C   UNL     1      30.759  -6.820 -24.454  0.00  0.00    +0.054 C 
ATOM     21  C   UNL     1      34.278  -5.494 -25.126  0.00  0.00    +0.309 C 
ATOM     22  H   UNL     1      35.460  -4.023 -26.091  0.00  0.00    +0.151 HD
ENDBRANCH   7  12
BRANCH   1  23
ATOM     23  C   UNL     1      34.071 -13.875 -22.111  0.00  0.00    +0.050 C 
ATOM     24  C   UNL     1      34.223 -14.974 -22.991  0.00  0.00    -0.005 C 
ATOM     25  C   UNL     1      34.363 -14.095 -20.745  0.00  0.00    +0.018 C 
ATOM     26  C   UNL     1      34.643 -16.221 -22.528  0.00  0.00    +0.034 C 
ATOM     27  C   UNL     1      33.930 -14.804 -24.446  0.00  0.00    +0.032 C 
ATOM     28  C   UNL     1      34.783 -15.342 -20.282  0.00  0.00    +0.038 C 
ATOM     29  C   UNL     1      34.923 -16.405 -21.175  0.00  0.00    +0.139 C 
BRANCH  29  30
ATOM     30  O   UNL     1      35.333 -17.622 -20.723  0.00  0.00    -0.471 OA
ATOM     31  C   UNL     1      36.212 -18.365 -21.565  0.00  0.00    +0.252 C 
ENDBRANCH  29  30
ENDBRANCH   1  23
TORSDOF 3
ENDMDL
MODEL 3
REMARK VINA RESULT:     -10.2      2.706      5.985
REMARK  Name = 11223423
REMARK  3 active torsions:
REMARK  status: ('A' for Active; 'I' for Inactive)
REMARK    1  A    between atoms: N_1  and  C_23
REMARK    2  A    between atoms: C_7  and  N_12
REMARK    3  A    between atoms: C_29  and  O_30
REMARK                            x       y       z     vdW  Elec       q    Type
REMARK                         _______ _______ _______ _____ _____    ______ ____
ROOT
ATOM      1  N   UNL     1      33.521 -13.233 -21.559  0.00  0.00    -0.263 N 
ATOM      2  N   UNL     1      33.584 -14.346 -23.788  0.00  0.00    -0.395 NA
ATOM      3  C   UNL     1      34.462 -15.108 -20.320  0.00  0.00    +0.053 C 
ATOM      4  C   UNL     1      34.370 -15.390 -21.776  0.00  0.00    +0.035 C 
ATOM      5  C   UNL     1      34.159 -13.602 -20.281  0.00  0.00    +0.103 C 
ATOM      6  C   UNL     1      33.799 -14.316 -22.457  0.00  0.00    +0.183 C 
ATOM      7  C   UNL     1      34.725 -16.545 -22.449  0.00  0.00    +0.058 C 
ATOM      8  C   UNL     1      34.511 -16.592 -23.820  0.00  0.00    +0.097 C 
ATOM      9  C   UNL     1      33.945 -15.482 -24.435  0.00  0.00    +0.094 C 
ATOM     10  C   UNL     1      33.704 -15.511 -25.908  0.00  0.00    +0.062 C 
ENDROOT
BRANCH   7  12
ATOM     11  O   UNL     1      32.574 -20.325 -19.885  0.00  0.00    -0.252 OA
ATOM     12  N   UNL     1      35.274 -17.627 -21.790  0.00  0.00    -0.191 N 
ATOM     13  N   UNL     1      34.963 -20.538 -19.913  0.00  0.00    -0.225 N 
ATOM     14  N   UNL     1      34.487 -18.531 -21.167  0.00  0.00    -0.159 NA
ATOM     15  N   UNL     1      33.674 -22.095 -18.868  0.00  0.00    -0.287 N 
ATOM     16  C   UNL     1      35.358 -19.406 -20.658  0.00  0.00    +0.158 C 
ATOM     17  C   UNL     1      35.880 -21.474 -19.274  0.00  0.00    +0.122 C 
ATOM     18  C   UNL     1      36.609 -17.916 -21.683  0.00  0.00    +0.092 C 
ATOM     19  C   UNL     1      35.010 -22.601 -18.755  0.00  0.00    +0.113 C 
ATOM     20  C   UNL     1      36.694 -19.073 -20.948  0.00  0.00    +0.054 C 
ATOM     21  C   UNL     1      33.619 -20.898 -19.606  0.00  0.00    +0.309 C 
ATOM     22  H   UNL     1      32.886 -22.535 -18.475  0.00  0.00    +0.151 HD
ENDBRANCH   7  12
BRANCH   1  23
ATOM     23  C   UNL     1      32.932 -11.983 -21.773  0.00  0.00    +0.050 C 
ATOM     24  C   UNL     1      32.145 -11.342 -20.785  0.00  0.00    -0.005 C 
ATOM     25  C   UNL     1      33.106 -11.304 -23.002  0.00  0.00    +0.018 C 
ATOM     26  C   UNL     1      31.565 -10.095 -21.015  0.00  0.00    +0.034 C 
ATOM     27  C   UNL     1      31.925 -12.009 -19.466  0.00  0.00    +0.032 C 
ATOM     28  C   UNL     1      32.526 -10.057 -23.232  0.00  0.00    +0.038 C 
ATOM     29  C   UNL     1      31.756  -9.452 -22.238  0.00  0.00    +0.139 C 
BRANCH  29  30
ATOM     30  O   UNL     1      31.190  -8.235 -22.463  0.00  0.00    -0.471 OA
ATOM     31  C   UNL     1      31.611  -7.158 -21.627  0.00  0.00    +0.252 C 
ENDBRANCH  29  30
ENDBRANCH   1  23
TORSDOF 3
ENDMDL
MODEL 4
REMARK VINA RESULT:     -10.0      1.772      9.454
REMARK  Name = 11223423
REMARK  3 active torsions:
REMARK  status: ('A' for Active; 'I' for Inactive)
REMARK    1  A    between atoms: N_1  and  C_23
REMARK    2  A    between atoms: C_7  and  N_12
REMARK    3  A    between atoms: C_29  and  O_30
REMARK                            x       y       z     vdW  Elec       q    Type
REMARK                         _______ _______ _______ _____ _____    ______ ____
ROOT
ATOM      1  N   UNL     1      33.577 -12.811 -22.768  0.00  0.00    -0.263 N 
ATOM      2  N   UNL     1      32.574 -12.051 -20.617  0.00  0.00    -0.395 NA
ATOM      3  C   UNL     1      32.975 -10.821 -24.038  0.00  0.00    +0.053 C 
ATOM      4  C   UNL     1      32.555 -10.725 -22.616  0.00  0.00    +0.035 C 
ATOM      5  C   UNL     1      33.873 -12.067 -24.007  0.00  0.00    +0.103 C 
ATOM      6  C   UNL     1      32.881 -11.887 -21.919  0.00  0.00    +0.183 C 
ATOM      7  C   UNL     1      31.883  -9.691 -21.989  0.00  0.00    +0.058 C 
ATOM      8  C   UNL     1      31.560  -9.843 -20.647  0.00  0.00    +0.097 C 
ATOM      9  C   UNL     1      31.922 -11.025 -20.014  0.00  0.00    +0.094 C 
ATOM     10  C   UNL     1      31.584 -11.211 -18.572  0.00  0.00    +0.062 C 
ENDROOT
BRANCH   7  12
ATOM     11  O   UNL     1      32.354  -4.821 -20.744  0.00  0.00    -0.252 OA
ATOM     12  N   UNL     1      31.533  -8.539 -22.666  0.00  0.00    -0.191 N 
ATOM     13  N   UNL     1      31.344  -5.075 -22.905  0.00  0.00    -0.225 N 
ATOM     14  N   UNL     1      31.765  -7.322 -22.129  0.00  0.00    -0.159 NA
ATOM     15  N   UNL     1      31.736  -3.005 -22.046  0.00  0.00    -0.287 N 
ATOM     16  C   UNL     1      31.302  -6.478 -23.054  0.00  0.00    +0.158 C 
ATOM     17  C   UNL     1      30.780  -4.121 -23.851  0.00  0.00    +0.122 C 
ATOM     18  C   UNL     1      30.938  -8.475 -23.899  0.00  0.00    +0.092 C 
ATOM     19  C   UNL     1      31.222  -2.756 -23.361  0.00  0.00    +0.113 C 
ATOM     20  C   UNL     1      30.774  -7.141 -24.179  0.00  0.00    +0.054 C 
ATOM     21  C   UNL     1      31.872  -4.379 -21.779  0.00  0.00    +0.309 C 
ATOM     22  H   UNL     1      31.967  -2.295 -21.405  0.00  0.00    +0.151 HD
ENDBRANCH   7  12
BRANCH   1  23
ATOM     23  C   UNL     1      34.068 -14.097 -22.527  0.00  0.00    +0.050 C 
ATOM     24  C   UNL     1      34.138 -15.080 -23.544  0.00  0.00    -0.005 C 
ATOM     25  C   UNL     1      34.520 -14.468 -21.238  0.00  0.00    +0.018 C 
ATOM     26  C   UNL     1      34.631 -16.359 -23.286  0.00  0.00    +0.034 C 
ATOM     27  C   UNL     1      33.676 -14.749 -24.926  0.00  0.00    +0.032 C 
ATOM     28  C   UNL     1      35.014 -15.746 -20.980  0.00  0.00    +0.038 C 
ATOM     29  C   UNL     1      35.069 -16.692 -22.005  0.00  0.00    +0.139 C 
BRANCH  29  30
ATOM     30  O   UNL     1      35.551 -17.940 -21.752  0.00  0.00    -0.471 OA
ATOM     31  C   UNL     1      35.134 -18.986 -22.627  0.00  0.00    +0.252 C 
ENDBRANCH  29  30
ENDBRANCH   1  23
TORSDOF 3
ENDMDL
MODEL 5
REMARK VINA RESULT:      -9.7      2.150      9.571
REMARK  Name = 11223423
REMARK  3 active torsions:
REMARK  status: ('A' for Active; 'I' for Inactive)
REMARK    1  A    between atoms: N_1  and  C_23
REMARK    2  A    between atoms: C_7  and  N_12
REMARK    3  A    between atoms: C_29  and  O_30
REMARK                            x       y       z     vdW  Elec       q    Type
REMARK                         _______ _______ _______ _____ _____    ______ ____
ROOT
ATOM      1  N   UNL     1      33.742 -12.088 -23.575  0.00  0.00    -0.263 N 
ATOM      2  N   UNL     1      31.920 -11.763 -21.908  0.00  0.00    -0.395 NA
ATOM      3  C   UNL     1      34.127  -9.718 -23.988  0.00  0.00    +0.053 C 
ATOM      4  C   UNL     1      33.074  -9.944 -22.963  0.00  0.00    +0.035 C 
ATOM      5  C   UNL     1      34.712 -11.131 -24.140  0.00  0.00    +0.103 C 
ATOM      6  C   UNL     1      32.851 -11.306 -22.769  0.00  0.00    +0.183 C 
ATOM      7  C   UNL     1      32.327  -9.001 -22.280  0.00  0.00    +0.058 C 
ATOM      8  C   UNL     1      31.365  -9.455 -21.388  0.00  0.00    +0.097 C 
ATOM      9  C   UNL     1      31.201 -10.826 -21.239  0.00  0.00    +0.094 C 
ATOM     10  C   UNL     1      30.171 -11.337 -20.287  0.00  0.00    +0.062 C 
ENDROOT
BRANCH   7  12
ATOM     11  O   UNL     1      29.358  -5.040 -21.286  0.00  0.00    -0.252 OA
ATOM     12  N   UNL     1      32.520  -7.647 -22.472  0.00  0.00    -0.191 N 
ATOM     13  N   UNL     1      31.443  -4.348 -22.250  0.00  0.00    -0.225 N 
ATOM     14  N   UNL     1      31.570  -6.755 -22.117  0.00  0.00    -0.159 NA
ATOM     15  N   UNL     1      29.878  -2.810 -21.649  0.00  0.00    -0.287 N 
ATOM     16  C   UNL     1      32.106  -5.578 -22.450  0.00  0.00    +0.158 C 
ATOM     17  C   UNL     1      31.956  -3.050 -22.669  0.00  0.00    +0.122 C 
ATOM     18  C   UNL     1      33.631  -7.058 -23.016  0.00  0.00    +0.092 C 
ATOM     19  C   UNL     1      30.998  -2.030 -22.088  0.00  0.00    +0.113 C 
ATOM     20  C   UNL     1      33.389  -5.706 -23.015  0.00  0.00    +0.054 C 
ATOM     21  C   UNL     1      30.146  -4.190 -21.681  0.00  0.00    +0.309 C 
ATOM     22  H   UNL     1      29.021  -2.423 -21.357  0.00  0.00    +0.151 HD
ENDBRANCH   7  12
BRANCH   1  23
ATOM     23  C   UNL     1      33.870 -13.471 -23.737  0.00  0.00    +0.050 C 
ATOM     24  C   UNL     1      34.392 -14.305 -22.718  0.00  0.00    -0.005 C 
ATOM     25  C   UNL     1      33.476 -14.095 -24.944  0.00  0.00    +0.018 C 
ATOM     26  C   UNL     1      34.513 -15.682 -22.897  0.00  0.00    +0.034 C 
ATOM     27  C   UNL     1      34.826 -13.704 -21.420  0.00  0.00    +0.032 C 
ATOM     28  C   UNL     1      33.596 -15.473 -25.123  0.00  0.00    +0.038 C 
ATOM     29  C   UNL     1      34.114 -16.267 -24.099  0.00  0.00    +0.139 C 
BRANCH  29  30
ATOM     30  O   UNL     1      34.231 -17.611 -24.275  0.00  0.00    -0.471 OA
ATOM     31  C   UNL     1      34.874 -18.349 -23.236  0.00  0.00    +0.252 C 
ENDBRANCH  29  30
ENDBRANCH   1  23
TORSDOF 3
ENDMDL
MODEL 6
REMARK VINA RESULT:      -9.4      2.311      9.815
REMARK  Name = 11223423
REMARK  3 active torsions:
REMARK  status: ('A' for Active; 'I' for Inactive)
REMARK    1  A    between atoms: N_1  and  C_23
REMARK    2  A    between atoms: C_7  and  N_12
REMARK    3  A    between atoms: C_29  and  O_30
REMARK                            x       y       z     vdW  Elec       q    Type
REMARK                         _______ _______ _______ _____ _____    ______ ____
ROOT
ATOM      1  N   UNL     1      33.006 -12.400 -23.102  0.00  0.00    -0.263 N 
ATOM      2  N   UNL     1      34.784 -10.878 -23.957  0.00  0.00    -0.395 NA
ATOM      3  C   UNL     1      31.710 -10.665 -21.987  0.00  0.00    +0.053 C 
ATOM      4  C   UNL     1      32.900 -10.112 -22.685  0.00  0.00    +0.035 C 
ATOM      5  C   UNL     1      31.681 -12.103 -22.525  0.00  0.00    +0.103 C 
ATOM      6  C   UNL     1      33.641 -11.127 -23.287  0.00  0.00    +0.183 C 
ATOM      7  C   UNL     1      33.325  -8.797 -22.743  0.00  0.00    +0.058 C 
ATOM      8  C   UNL     1      34.499  -8.522 -23.432  0.00  0.00    +0.097 C 
ATOM      9  C   UNL     1      35.183  -9.583 -24.013  0.00  0.00    +0.094 C 
ATOM     10  C   UNL     1      36.449  -9.311 -24.756  0.00  0.00    +0.062 C 
ENDROOT
BRANCH   7  12
ATOM     11  O   UNL     1      31.556  -4.430 -24.558  0.00  0.00    -0.252 OA
ATOM     12  N   UNL     1      32.615  -7.779 -22.137  0.00  0.00    -0.191 N 
ATOM     13  N   UNL     1      31.014  -4.694 -22.236  0.00  0.00    -0.225 N 
ATOM     14  N   UNL     1      32.236  -6.687 -22.836  0.00  0.00    -0.159 NA
ATOM     15  N   UNL     1      30.338  -2.847 -23.380  0.00  0.00    -0.287 N 
ATOM     16  C   UNL     1      31.590  -5.946 -21.933  0.00  0.00    +0.158 C 
ATOM     17  C   UNL     1      30.370  -3.818 -21.266  0.00  0.00    +0.122 C 
ATOM     18  C   UNL     1      32.223  -7.737 -20.825  0.00  0.00    +0.092 C 
ATOM     19  C   UNL     1      29.759  -2.694 -22.078  0.00  0.00    +0.113 C 
ATOM     20  C   UNL     1      31.551  -6.551 -20.662  0.00  0.00    +0.054 C 
ATOM     21  C   UNL     1      31.039  -4.060 -23.512  0.00  0.00    +0.309 C 
ATOM     22  H   UNL     1      30.254  -2.180 -24.099  0.00  0.00    +0.151 HD
ENDBRANCH   7  12
BRANCH   1  23
ATOM     23  C   UNL     1      33.385 -13.688 -23.492  0.00  0.00    +0.050 C 
ATOM     24  C   UNL     1      34.125 -14.546 -22.643  0.00  0.00    -0.005 C 
ATOM     25  C   UNL     1      33.037 -14.186 -24.770  0.00  0.00    +0.018 C 
ATOM     26  C   UNL     1      34.495 -15.828 -23.050  0.00  0.00    +0.034 C 
ATOM     27  C   UNL     1      34.524 -14.077 -21.281  0.00  0.00    +0.032 C 
ATOM     28  C   UNL     1      33.406 -15.468 -25.176  0.00  0.00    +0.038 C 
ATOM     29  C   UNL     1      34.135 -16.289 -24.315  0.00  0.00    +0.139 C 
BRANCH  29  30
ATOM     30  O   UNL     1      34.496 -17.540 -24.713  0.00  0.00    -0.471 OA
ATOM     31  C   UNL     1      34.499 -18.562 -23.717  0.00  0.00    +0.252 C 
ENDBRANCH  29  30
ENDBRANCH   1  23
TORSDOF 3
ENDMDL
MODEL 7
REMARK VINA RESULT:      -9.4      1.760      2.200
REMARK  Name = 11223423
REMARK  3 active torsions:
REMARK  status: ('A' for Active; 'I' for Inactive)
REMARK    1  A    between atoms: N_1  and  C_23
REMARK    2  A    between atoms: C_7  and  N_12
REMARK    3  A    between atoms: C_29  and  O_30
REMARK                            x       y       z     vdW  Elec       q    Type
REMARK                         _______ _______ _______ _____ _____    ______ ____
ROOT
ATOM      1  N   UNL     1      32.588  -9.270 -23.244  0.00  0.00    -0.263 N 
ATOM      2  N   UNL     1      31.611  -9.642 -20.983  0.00  0.00    -0.395 NA
ATOM      3  C   UNL     1      33.710 -11.427 -23.388  0.00  0.00    +0.053 C 
ATOM      4  C   UNL     1      32.943 -11.278 -22.124  0.00  0.00    +0.035 C 
ATOM      5  C   UNL     1      33.215 -10.213 -24.189  0.00  0.00    +0.103 C 
ATOM      6  C   UNL     1      32.339 -10.025 -22.051  0.00  0.00    +0.183 C 
ATOM      7  C   UNL     1      32.829 -12.179 -21.080  0.00  0.00    +0.058 C 
ATOM      8  C   UNL     1      32.081 -11.801 -19.973  0.00  0.00    +0.097 C 
ATOM      9  C   UNL     1      31.500 -10.540 -19.972  0.00  0.00    +0.094 C 
ATOM     10  C   UNL     1      30.694 -10.111 -18.791  0.00  0.00    +0.062 C 
ENDROOT
BRANCH   7  12
ATOM     11  O   UNL     1      33.481 -15.441 -24.879  0.00  0.00    -0.252 OA
ATOM     12  N   UNL     1      33.436 -13.419 -21.124  0.00  0.00    -0.191 N 
ATOM     13  N   UNL     1      34.431 -16.275 -22.841  0.00  0.00    -0.225 N 
ATOM     14  N   UNL     1      33.498 -14.121 -22.276  0.00  0.00    -0.159 NA
ATOM     15  N   UNL     1      34.575 -17.482 -24.764  0.00  0.00    -0.287 N 
ATOM     16  C   UNL     1      34.142 -15.238 -21.927  0.00  0.00    +0.158 C 
ATOM     17  C   UNL     1      35.059 -17.541 -22.489  0.00  0.00    +0.122 C 
ATOM     18  C   UNL     1      34.023 -14.069 -20.069  0.00  0.00    +0.092 C 
ATOM     19  C   UNL     1      35.322 -18.243 -23.806  0.00  0.00    +0.113 C 
ATOM     20  C   UNL     1      34.493 -15.260 -20.564  0.00  0.00    +0.054 C 
ATOM     21  C   UNL     1      34.087 -16.278 -24.224  0.00  0.00    +0.309 C 
ATOM     22  H   UNL     1      34.422 -17.769 -25.693  0.00  0.00    +0.151 HD
ENDBRANCH   7  12
BRANCH   1  23
ATOM     23  C   UNL     1      32.218  -7.972 -23.612  0.00  0.00    +0.050 C 
ATOM     24  C   UNL     1      33.118  -6.881 -23.536  0.00  0.00    -0.005 C 
ATOM     25  C   UNL     1      30.911  -7.700 -24.080  0.00  0.00    +0.018 C 
ATOM     26  C   UNL     1      32.732  -5.594 -23.906  0.00  0.00    +0.034 C 
ATOM     27  C   UNL     1      34.513  -7.105 -23.049  0.00  0.00    +0.032 C 
ATOM     28  C   UNL     1      30.525  -6.412 -24.451  0.00  0.00    +0.038 C 
ATOM     29  C   UNL     1      31.436  -5.359 -24.364  0.00  0.00    +0.139 C 
BRANCH  29  30
ATOM     30  O   UNL     1      31.058  -4.103 -24.726  0.00  0.00    -0.471 OA
ATOM     31  C   UNL     1      30.877  -3.151 -23.679  0.00  0.00    +0.252 C 
ENDBRANCH  29  30
ENDBRANCH   1  23
TORSDOF 3
ENDMDL
MODEL 8
REMARK VINA RESULT:      -8.8      7.493     11.825
REMARK  Name = 11223423
REMARK  3 active torsions:
REMARK  status: ('A' for Active; 'I' for Inactive)
REMARK    1  A    between atoms: N_1  and  C_23
REMARK    2  A    between atoms: C_7  and  N_12
REMARK    3  A    between atoms: C_29  and  O_30
REMARK                            x       y       z     vdW  Elec       q    Type
REMARK                         _______ _______ _______ _____ _____    ______ ____
ROOT
ATOM      1  N   UNL     1      35.810 -18.946 -21.079  0.00  0.00    -0.263 N 
ATOM      2  N   UNL     1      33.818 -20.302 -20.445  0.00  0.00    -0.395 NA
ATOM      3  C   UNL     1      37.265 -19.808 -19.326  0.00  0.00    +0.053 C 
ATOM      4  C   UNL     1      35.920 -20.441 -19.298  0.00  0.00    +0.035 C 
ATOM      5  C   UNL     1      37.221 -19.058 -20.666  0.00  0.00    +0.103 C 
ATOM      6  C   UNL     1      35.098 -19.908 -20.289  0.00  0.00    +0.183 C 
ATOM      7  C   UNL     1      35.440 -21.395 -18.419  0.00  0.00    +0.058 C 
ATOM      8  C   UNL     1      34.124 -21.813 -18.567  0.00  0.00    +0.097 C 
ATOM      9  C   UNL     1      33.364 -21.244 -19.581  0.00  0.00    +0.094 C 
ATOM     10  C   UNL     1      31.946 -21.677 -19.757  0.00  0.00    +0.062 C 
ENDROOT
BRANCH   7  12
ATOM     11  O   UNL     1      34.384 -24.623 -14.683  0.00  0.00    -0.252 OA
ATOM     12  N   UNL     1      36.233 -21.922 -17.418  0.00  0.00    -0.191 N 
ATOM     13  N   UNL     1      36.686 -23.951 -14.631  0.00  0.00    -0.225 N 
ATOM     14  N   UNL     1      35.725 -22.789 -16.517  0.00  0.00    -0.159 NA
ATOM     15  N   UNL     1      35.877 -25.430 -13.103  0.00  0.00    -0.287 N 
ATOM     16  C   UNL     1      36.767 -23.068 -15.729  0.00  0.00    +0.158 C 
ATOM     17  C   UNL     1      37.774 -24.223 -13.701  0.00  0.00    +0.122 C 
ATOM     18  C   UNL     1      37.562 -21.654 -17.214  0.00  0.00    +0.092 C 
ATOM     19  C   UNL     1      37.279 -25.350 -12.817  0.00  0.00    +0.113 C 
ATOM     20  C   UNL     1      37.938 -22.389 -16.117  0.00  0.00    +0.054 C 
ATOM     21  C   UNL     1      35.516 -24.651 -14.217  0.00  0.00    +0.309 C 
ATOM     22  H   UNL     1      35.240 -25.970 -12.581  0.00  0.00    +0.151 HD
ENDBRANCH   7  12
BRANCH   1  23
ATOM     23  C   UNL     1      35.401 -18.142 -22.147  0.00  0.00    +0.050 C 
ATOM     24  C   UNL     1      34.992 -18.688 -23.388  0.00  0.00    -0.005 C 
ATOM     25  C   UNL     1      35.381 -16.733 -22.024  0.00  0.00    +0.018 C 
ATOM     26  C   UNL     1      34.587 -17.871 -24.444  0.00  0.00    +0.034 C 
ATOM     27  C   UNL     1      34.991 -20.170 -23.581  0.00  0.00    +0.032 C 
ATOM     28  C   UNL     1      34.976 -15.916 -23.079  0.00  0.00    +0.038 C 
ATOM     29  C   UNL     1      34.579 -16.485 -24.289  0.00  0.00    +0.139 C 
BRANCH  29  30
ATOM     30  O   UNL     1      34.184 -15.687 -25.318  0.00  0.00    -0.471 OA
ATOM     31  C   UNL     1      33.336 -14.586 -24.998  0.00  0.00    +0.252 C 
ENDBRANCH  29  30
ENDBRANCH   1  23
TORSDOF 3
ENDMDL
MODEL 9
REMARK VINA RESULT:      -8.5      2.365      9.237
REMARK  Name = 11223423
REMARK  3 active torsions:
REMARK  status: ('A' for Active; 'I' for Inactive)
REMARK    1  A    between atoms: N_1  and  C_23
REMARK    2  A    between atoms: C_7  and  N_12
REMARK    3  A    between atoms: C_29  and  O_30
REMARK                            x       y       z     vdW  Elec       q    Type
REMARK                         _______ _______ _______ _____ _____    ______ ____
ROOT
ATOM      1  N   UNL     1      33.607 -12.617 -23.391  0.00  0.00    -0.263 N 
ATOM      2  N   UNL     1      32.513 -12.101 -21.212  0.00  0.00    -0.395 NA
ATOM      3  C   UNL     1      33.261 -10.413 -24.370  0.00  0.00    +0.053 C 
ATOM      4  C   UNL     1      32.746 -10.494 -22.978  0.00  0.00    +0.035 C 
ATOM      5  C   UNL     1      34.052 -11.726 -24.479  0.00  0.00    +0.103 C 
ATOM      6  C   UNL     1      32.927 -11.772 -22.453  0.00  0.00    +0.183 C 
ATOM      7  C   UNL     1      32.113  -9.510 -22.240  0.00  0.00    +0.058 C 
ATOM      8  C   UNL     1      31.682  -9.832 -20.960  0.00  0.00    +0.097 C 
ATOM      9  C   UNL     1      31.902 -11.123 -20.498  0.00  0.00    +0.094 C 
ATOM     10  C   UNL     1      31.445 -11.492 -19.126  0.00  0.00    +0.062 C 
ENDROOT
BRANCH   7  12
ATOM     11  O   UNL     1      35.078  -6.510 -25.017  0.00  0.00    -0.252 OA
ATOM     12  N   UNL     1      31.907  -8.243 -22.749  0.00  0.00    -0.191 N 
ATOM     13  N   UNL     1      32.965  -5.470 -24.561  0.00  0.00    -0.225 N 
ATOM     14  N   UNL     1      32.859  -7.627 -23.483  0.00  0.00    -0.159 NA
ATOM     15  N   UNL     1      34.533  -4.404 -25.819  0.00  0.00    -0.287 N 
ATOM     16  C   UNL     1      32.306  -6.450 -23.788  0.00  0.00    +0.158 C 
ATOM     17  C   UNL     1      32.433  -4.144 -24.851  0.00  0.00    +0.122 C 
ATOM     18  C   UNL     1      30.778  -7.481 -22.590  0.00  0.00    +0.092 C 
ATOM     19  C   UNL     1      33.398  -3.530 -25.845  0.00  0.00    +0.113 C 
ATOM     20  C   UNL     1      31.011  -6.305 -23.258  0.00  0.00    +0.054 C 
ATOM     21  C   UNL     1      34.274  -5.591 -25.110  0.00  0.00    +0.309 C 
ATOM     22  H   UNL     1      35.394  -4.197 -26.249  0.00  0.00    +0.151 HD
ENDBRANCH   7  12
BRANCH   1  23
ATOM     23  C   UNL     1      33.976 -13.964 -23.324  0.00  0.00    +0.050 C 
ATOM     24  C   UNL     1      34.603 -14.518 -22.181  0.00  0.00    -0.005 C 
ATOM     25  C   UNL     1      33.733 -14.833 -24.413  0.00  0.00    +0.018 C 
ATOM     26  C   UNL     1      34.964 -15.864 -22.132  0.00  0.00    +0.034 C 
ATOM     27  C   UNL     1      34.886 -13.650 -20.998  0.00  0.00    +0.032 C 
ATOM     28  C   UNL     1      34.094 -16.180 -24.364  0.00  0.00    +0.038 C 
ATOM     29  C   UNL     1      34.710 -16.695 -23.223  0.00  0.00    +0.139 C 
BRANCH  29  30
ATOM     30  O   UNL     1      35.062 -18.009 -23.175  0.00  0.00    -0.471 OA
ATOM     31  C   UNL     1      34.258 -18.924 -23.917  0.00  0.00    +0.252 C 
ENDBRANCH  29  30
ENDBRANCH   1  23
TORSDOF 3
ENDMDL
