MODEL 1
REMARK VINA RESULT:     -11.0      0.000      0.000
REMARK  Name = 11596613
REMARK  6 active torsions:
REMARK  status: ('A' for Active; 'I' for Inactive)
REMARK    1  A    between atoms: C_4  and  N_21
REMARK    2  A    between atoms: C_5  and  C_12
REMARK    3  A    between atoms: C_18  and  O_19
REMARK    4  A    between atoms: N_21  and  C_23
REMARK    5  A    between atoms: C_23  and  C_27
REMARK    6  A    between atoms: C_23  and  C_30
REMARK                            x       y       z     vdW  Elec       q    Type
REMARK                         _______ _______ _______ _____ _____    ______ ____
ROOT
ATOM      1  N   UNL     1      33.058 -23.359 -15.088  0.00  0.00    -0.152 N 
ATOM      2  N   UNL     1      32.980 -23.635 -13.755  0.00  0.00    -0.179 NA
ATOM      3  N   UNL     1      34.658 -23.443 -16.888  0.00  0.00    -0.393 NA
ATOM      4  C   UNL     1      32.044 -22.864 -15.924  0.00  0.00    +0.126 C 
ATOM      5  C   UNL     1      35.074 -24.101 -14.515  0.00  0.00    +0.128 C 
ATOM      6  C   UNL     1      34.335 -23.638 -15.580  0.00  0.00    +0.192 C 
ATOM      7  C   UNL     1      34.194 -24.076 -13.428  0.00  0.00    +0.067 C 
ATOM      8  C   UNL     1      32.326 -22.659 -17.221  0.00  0.00    +0.059 C 
ATOM      9  C   UNL     1      33.716 -22.984 -17.658  0.00  0.00    +0.113 C 
ATOM     10  C   UNL     1      34.465 -24.471 -12.034  0.00  0.00    +0.050 C 
ATOM     11  C   UNL     1      34.047 -22.758 -19.113  0.00  0.00    +0.067 C 
ENDROOT
BRANCH   5  12
ATOM     12  C   UNL     1      36.448 -24.500 -14.605  0.00  0.00    -0.013 C 
ATOM     13  C   UNL     1      37.455 -23.572 -14.888  0.00  0.00    -0.022 C 
ATOM     14  C   UNL     1      36.780 -25.842 -14.405  0.00  0.00    -0.001 C 
ATOM     15  C   UNL     1      38.785 -23.986 -14.969  0.00  0.00    +0.032 C 
ATOM     16  C   UNL     1      37.143 -22.127 -15.107  0.00  0.00    +0.031 C 
ATOM     17  C   UNL     1      38.111 -26.255 -14.487  0.00  0.00    +0.037 C 
ATOM     18  C   UNL     1      39.113 -25.327 -14.768  0.00  0.00    +0.138 C 
BRANCH  18  19
ATOM     19  O   UNL     1      40.410 -25.730 -14.849  0.00  0.00    -0.471 OA
ATOM     20  C   UNL     1      40.871 -26.636 -13.849  0.00  0.00    +0.252 C 
ENDBRANCH  18  19
ENDBRANCH   5  12
BRANCH   4  21
ATOM     21  N   UNL     1      30.824 -22.621 -15.360  0.00  0.00    -0.313 N 
ATOM     22  H   UNL     1      30.687 -21.780 -14.869  0.00  0.00    +0.148 HD
BRANCH  21  23
ATOM     23  C   UNL     1      29.735 -23.547 -15.459  0.00  0.00    +0.164 C 
BRANCH  23  27
ATOM     24  O   UNL     1      27.478 -23.014 -14.820  0.00  0.00    -0.314 OA
ATOM     25  N   UNL     1      28.082 -22.253 -16.839  0.00  0.00    -0.315 NA
ATOM     26  N   UNL     1      26.360 -22.344 -15.334  0.00  0.00    -0.012 NA
ATOM     27  C   UNL     1      28.402 -22.891 -15.779  0.00  0.00    +0.311 C 
ATOM     28  C   UNL     1      26.795 -21.924 -16.527  0.00  0.00    +0.105 C 
ATOM     29  C   UNL     1      25.939 -21.157 -17.438  0.00  0.00    +0.132 C 
ENDBRANCH  23  27
BRANCH  23  30
ATOM     30  C   UNL     1      29.639 -24.364 -14.155  0.00  0.00    +0.030 C 
ATOM     31  C   UNL     1      30.116 -25.802 -14.324  0.00  0.00    +0.002 C 
ENDBRANCH  23  30
ENDBRANCH  21  23
ENDBRANCH   4  21
TORSDOF 6
ENDMDL
MODEL 2
REMARK VINA RESULT:      -9.8      2.233      8.822
REMARK  Name = 11596613
REMARK  6 active torsions:
REMARK  status: ('A' for Active; 'I' for Inactive)
REMARK    1  A    between atoms: C_4  and  N_21
REMARK    2  A    between atoms: C_5  and  C_12
REMARK    3  A    between atoms: C_18  and  O_19
REMARK    4  A    between atoms: N_21  and  C_23
REMARK    5  A    between atoms: C_23  and  C_27
REMARK    6  A    between atoms: C_23  and  C_30
REMARK                            x       y       z     vdW  Elec       q    Type
REMARK                         _______ _______ _______ _____ _____    ______ ____
ROOT
ATOM      1  N   UNL     1      33.364 -24.067 -13.808  0.00  0.00    -0.152 N 
ATOM      2  N   UNL     1      32.653 -24.516 -12.734  0.00  0.00    -0.179 NA
ATOM      3  N   UNL     1      32.988 -23.198 -16.023  0.00  0.00    -0.393 NA
ATOM      4  C   UNL     1      34.760 -23.971 -13.935  0.00  0.00    +0.126 C 
ATOM      5  C   UNL     1      31.227 -23.900 -14.399  0.00  0.00    +0.128 C 
ATOM      6  C   UNL     1      32.511 -23.682 -14.844  0.00  0.00    +0.192 C 
ATOM      7  C   UNL     1      31.378 -24.411 -13.104  0.00  0.00    +0.067 C 
ATOM      8  C   UNL     1      35.267 -23.498 -15.085  0.00  0.00    +0.059 C 
ATOM      9  C   UNL     1      34.281 -23.111 -16.137  0.00  0.00    +0.113 C 
ATOM     10  C   UNL     1      30.319 -24.818 -12.163  0.00  0.00    +0.050 C 
ATOM     11  C   UNL     1      34.837 -22.578 -17.434  0.00  0.00    +0.067 C 
ENDROOT
BRANCH   5  12
ATOM     12  C   UNL     1      30.052 -23.629 -15.172  0.00  0.00    -0.013 C 
ATOM     13  C   UNL     1      29.299 -24.664 -15.735  0.00  0.00    -0.022 C 
ATOM     14  C   UNL     1      29.657 -22.303 -15.365  0.00  0.00    -0.001 C 
ATOM     15  C   UNL     1      28.158 -24.373 -16.483  0.00  0.00    +0.032 C 
ATOM     16  C   UNL     1      29.685 -26.096 -15.551  0.00  0.00    +0.031 C 
ATOM     17  C   UNL     1      28.516 -22.012 -16.115  0.00  0.00    +0.037 C 
ATOM     18  C   UNL     1      27.767 -23.047 -16.673  0.00  0.00    +0.138 C 
BRANCH  18  19
ATOM     19  O   UNL     1      26.655 -22.764 -17.404  0.00  0.00    -0.471 OA
ATOM     20  C   UNL     1      26.136 -21.438 -17.310  0.00  0.00    +0.252 C 
ENDBRANCH  18  19
ENDBRANCH   5  12
BRANCH   4  21
ATOM     21  N   UNL     1      35.519 -24.369 -12.872  0.00  0.00    -0.313 N 
ATOM     22  H   UNL     1      35.120 -24.967 -12.201  0.00  0.00    +0.148 HD
BRANCH  21  23
ATOM     23  C   UNL     1      36.877 -23.946 -12.698  0.00  0.00    +0.164 C 
BRANCH  23  27
ATOM     24  O   UNL     1      37.399 -26.165 -13.467  0.00  0.00    -0.314 OA
ATOM     25  N   UNL     1      39.150 -24.769 -13.384  0.00  0.00    -0.315 NA
ATOM     26  N   UNL     1      38.507 -26.903 -13.903  0.00  0.00    -0.012 NA
ATOM     27  C   UNL     1      37.899 -24.954 -13.199  0.00  0.00    +0.311 C 
ATOM     28  C   UNL     1      39.501 -26.012 -13.825  0.00  0.00    +0.105 C 
ATOM     29  C   UNL     1      40.879 -26.352 -14.194  0.00  0.00    +0.132 C 
ENDBRANCH  23  27
BRANCH  23  30
ATOM     30  C   UNL     1      37.124 -23.613 -11.213  0.00  0.00    +0.030 C 
ATOM     31  C   UNL     1      36.038 -24.168 -10.297  0.00  0.00    +0.002 C 
ENDBRANCH  23  30
ENDBRANCH  21  23
ENDBRANCH   4  21
TORSDOF 6
ENDMDL
MODEL 3
REMARK VINA RESULT:      -9.6     14.021     17.063
REMARK  Name = 11596613
REMARK  6 active torsions:
REMARK  status: ('A' for Active; 'I' for Inactive)
REMARK    1  A    between atoms: C_4  and  N_21
REMARK    2  A    between atoms: C_5  and  C_12
REMARK    3  A    between atoms: C_18  and  O_19
REMARK    4  A    between atoms: N_21  and  C_23
REMARK    5  A    between atoms: C_23  and  C_27
REMARK    6  A    between atoms: C_23  and  C_30
REMARK                            x       y       z     vdW  Elec       q    Type
REMARK                         _______ _______ _______ _____ _____    ______ ____
ROOT
ATOM      1  N   UNL     1      32.195 -10.695 -22.163  0.00  0.00    -0.152 N 
ATOM      2  N   UNL     1      32.346 -10.541 -23.509  0.00  0.00    -0.179 NA
ATOM      3  N   UNL     1      31.778  -9.363 -20.199  0.00  0.00    -0.393 NA
ATOM      4  C   UNL     1      32.249 -11.888 -21.423  0.00  0.00    +0.126 C 
ATOM      5  C   UNL     1      31.970  -8.515 -22.540  0.00  0.00    +0.128 C 
ATOM      6  C   UNL     1      31.962  -9.466 -21.543  0.00  0.00    +0.192 C 
ATOM      7  C   UNL     1      32.210  -9.232 -23.718  0.00  0.00    +0.067 C 
ATOM      8  C   UNL     1      32.072 -11.826 -20.094  0.00  0.00    +0.059 C 
ATOM      9  C   UNL     1      31.830 -10.470 -19.518  0.00  0.00    +0.113 C 
ATOM     10  C   UNL     1      32.318  -8.706 -25.090  0.00  0.00    +0.050 C 
ATOM     11  C   UNL     1      31.630 -10.385 -18.025  0.00  0.00    +0.067 C 
ENDROOT
BRANCH   5  12
ATOM     12  C   UNL     1      31.765  -7.115 -22.314  0.00  0.00    -0.013 C 
ATOM     13  C   UNL     1      32.838  -6.220 -22.292  0.00  0.00    -0.022 C 
ATOM     14  C   UNL     1      30.466  -6.642 -22.114  0.00  0.00    -0.001 C 
ATOM     15  C   UNL     1      32.612  -4.861 -22.073  0.00  0.00    +0.032 C 
ATOM     16  C   UNL     1      34.243  -6.684 -22.504  0.00  0.00    +0.031 C 
ATOM     17  C   UNL     1      30.240  -5.283 -21.893  0.00  0.00    +0.037 C 
ATOM     18  C   UNL     1      31.313  -4.393 -21.873  0.00  0.00    +0.138 C 
BRANCH  18  19
ATOM     19  O   UNL     1      31.093  -3.067 -21.657  0.00  0.00    -0.471 OA
ATOM     20  C   UNL     1      31.768  -2.148 -22.515  0.00  0.00    +0.252 C 
ENDBRANCH  18  19
ENDBRANCH   5  12
BRANCH   4  21
ATOM     21  N   UNL     1      32.480 -13.046 -22.110  0.00  0.00    -0.313 N 
ATOM     22  H   UNL     1      31.717 -13.622 -22.339  0.00  0.00    +0.148 HD
BRANCH  21  23
ATOM     23  C   UNL     1      33.795 -13.451 -22.509  0.00  0.00    +0.164 C 
BRANCH  23  27
ATOM     24  O   UNL     1      33.157 -14.393 -24.629  0.00  0.00    -0.314 OA
ATOM     25  N   UNL     1      34.353 -15.763 -23.320  0.00  0.00    -0.315 NA
ATOM     26  N   UNL     1      33.301 -15.588 -25.345  0.00  0.00    -0.012 NA
ATOM     27  C   UNL     1      33.805 -14.620 -23.481  0.00  0.00    +0.311 C 
ATOM     28  C   UNL     1      34.017 -16.346 -24.508  0.00  0.00    +0.105 C 
ATOM     29  C   UNL     1      34.416 -17.715 -24.849  0.00  0.00    +0.132 C 
ENDBRANCH  23  27
BRANCH  23  30
ATOM     30  C   UNL     1      34.631 -13.779 -21.257  0.00  0.00    +0.030 C 
ATOM     31  C   UNL     1      33.961 -14.808 -20.353  0.00  0.00    +0.002 C 
ENDBRANCH  23  30
ENDBRANCH  21  23
ENDBRANCH   4  21
TORSDOF 6
ENDMDL
MODEL 4
REMARK VINA RESULT:      -9.3     13.985     17.226
REMARK  Name = 11596613
REMARK  6 active torsions:
REMARK  status: ('A' for Active; 'I' for Inactive)
REMARK    1  A    between atoms: C_4  and  N_21
REMARK    2  A    between atoms: C_5  and  C_12
REMARK    3  A    between atoms: C_18  and  O_19
REMARK    4  A    between atoms: N_21  and  C_23
REMARK    5  A    between atoms: C_23  and  C_27
REMARK    6  A    between atoms: C_23  and  C_30
REMARK                            x       y       z     vdW  Elec       q    Type
REMARK                         _______ _______ _______ _____ _____    ______ ____
ROOT
ATOM      1  N   UNL     1      33.396 -10.350 -22.727  0.00  0.00    -0.152 N 
ATOM      2  N   UNL     1      34.408  -9.777 -23.440  0.00  0.00    -0.179 NA
ATOM      3  N   UNL     1      31.426  -9.708 -21.497  0.00  0.00    -0.393 NA
ATOM      4  C   UNL     1      33.190 -11.716 -22.474  0.00  0.00    +0.126 C 
ATOM      5  C   UNL     1      33.003  -8.162 -22.663  0.00  0.00    +0.128 C 
ATOM      6  C   UNL     1      32.518  -9.379 -22.239  0.00  0.00    +0.192 C 
ATOM      7  C   UNL     1      34.158  -8.469 -23.391  0.00  0.00    +0.067 C 
ATOM      8  C   UNL     1      32.122 -12.078 -21.744  0.00  0.00    +0.059 C 
ATOM      9  C   UNL     1      31.240 -10.974 -21.264  0.00  0.00    +0.113 C 
ATOM     10  C   UNL     1      35.074  -7.536 -24.072  0.00  0.00    +0.050 C 
ATOM     11  C   UNL     1      30.037 -11.366 -20.442  0.00  0.00    +0.067 C 
ENDROOT
BRANCH   5  12
ATOM     12  C   UNL     1      32.382  -6.905 -22.369  0.00  0.00    -0.013 C 
ATOM     13  C   UNL     1      31.365  -6.391 -23.180  0.00  0.00    -0.022 C 
ATOM     14  C   UNL     1      32.804  -6.185 -21.249  0.00  0.00    -0.001 C 
ATOM     15  C   UNL     1      30.776  -5.165 -22.871  0.00  0.00    +0.032 C 
ATOM     16  C   UNL     1      30.883  -7.130 -24.386  0.00  0.00    +0.031 C 
ATOM     17  C   UNL     1      32.214  -4.958 -20.941  0.00  0.00    +0.037 C 
ATOM     18  C   UNL     1      31.200  -4.449 -21.752  0.00  0.00    +0.138 C 
BRANCH  18  19
ATOM     19  O   UNL     1      30.625  -3.252 -21.451  0.00  0.00    -0.471 OA
ATOM     20  C   UNL     1      30.687  -2.234 -22.448  0.00  0.00    +0.252 C 
ENDBRANCH  18  19
ENDBRANCH   5  12
BRANCH   4  21
ATOM     21  N   UNL     1      34.097 -12.597 -22.990  0.00  0.00    -0.313 N 
ATOM     22  H   UNL     1      35.022 -12.297 -23.132  0.00  0.00    +0.148 HD
BRANCH  21  23
ATOM     23  C   UNL     1      33.748 -13.944 -23.332  0.00  0.00    +0.164 C 
BRANCH  23  27
ATOM     24  O   UNL     1      34.252 -14.717 -21.110  0.00  0.00    -0.314 OA
ATOM     25  N   UNL     1      34.968 -16.063 -22.752  0.00  0.00    -0.315 NA
ATOM     26  N   UNL     1      34.884 -15.797 -20.480  0.00  0.00    -0.012 NA
ATOM     27  C   UNL     1      34.367 -14.987 -22.415  0.00  0.00    +0.311 C 
ATOM     28  C   UNL     1      35.280 -16.546 -21.514  0.00  0.00    +0.105 C 
ATOM     29  C   UNL     1      36.001 -17.810 -21.325  0.00  0.00    +0.132 C 
ENDBRANCH  23  27
BRANCH  23  30
ATOM     30  C   UNL     1      34.132 -14.215 -24.800  0.00  0.00    +0.030 C 
ATOM     31  C   UNL     1      33.050 -14.972 -25.562  0.00  0.00    +0.002 C 
ENDBRANCH  23  30
ENDBRANCH  21  23
ENDBRANCH   4  21
TORSDOF 6
ENDMDL
MODEL 5
REMARK VINA RESULT:      -8.9     13.123     16.260
REMARK  Name = 11596613
REMARK  6 active torsions:
REMARK  status: ('A' for Active; 'I' for Inactive)
REMARK    1  A    between atoms: C_4  and  N_21
REMARK    2  A    between atoms: C_5  and  C_12
REMARK    3  A    between atoms: C_18  and  O_19
REMARK    4  A    between atoms: N_21  and  C_23
REMARK    5  A    between atoms: C_23  and  C_27
REMARK    6  A    between atoms: C_23  and  C_30
REMARK                            x       y       z     vdW  Elec       q    Type
REMARK                         _______ _______ _______ _____ _____    ______ ____
ROOT
ATOM      1  N   UNL     1      32.792 -11.601 -22.377  0.00  0.00    -0.152 N 
ATOM      2  N   UNL     1      31.754 -11.921 -21.552  0.00  0.00    -0.179 NA
ATOM      3  N   UNL     1      33.825  -9.657 -23.357  0.00  0.00    -0.393 NA
ATOM      4  C   UNL     1      33.705 -12.476 -22.988  0.00  0.00    +0.126 C 
ATOM      5  C   UNL     1      31.841  -9.664 -21.840  0.00  0.00    +0.128 C 
ATOM      6  C   UNL     1      32.868 -10.220 -22.570  0.00  0.00    +0.192 C 
ATOM      7  C   UNL     1      31.196 -10.752 -21.241  0.00  0.00    +0.067 C 
ATOM      8  C   UNL     1      34.664 -11.956 -23.772  0.00  0.00    +0.059 C 
ATOM      9  C   UNL     1      34.668 -10.471 -23.921  0.00  0.00    +0.113 C 
ATOM     10  C   UNL     1      30.024 -10.729 -20.348  0.00  0.00    +0.050 C 
ATOM     11  C   UNL     1      35.739  -9.873 -24.799  0.00  0.00    +0.067 C 
ENDROOT
BRANCH   5  12
ATOM     12  C   UNL     1      31.574  -8.258 -21.773  0.00  0.00    -0.013 C 
ATOM     13  C   UNL     1      32.025  -7.484 -20.700  0.00  0.00    -0.022 C 
ATOM     14  C   UNL     1      30.850  -7.654 -22.804  0.00  0.00    -0.001 C 
ATOM     15  C   UNL     1      31.753  -6.116 -20.659  0.00  0.00    +0.032 C 
ATOM     16  C   UNL     1      32.805  -8.090 -19.578  0.00  0.00    +0.031 C 
ATOM     17  C   UNL     1      30.577  -6.286 -22.763  0.00  0.00    +0.037 C 
ATOM     18  C   UNL     1      31.030  -5.518 -21.690  0.00  0.00    +0.138 C 
BRANCH  18  19
ATOM     19  O   UNL     1      30.763  -4.184 -21.650  0.00  0.00    -0.471 OA
ATOM     20  C   UNL     1      31.326  -3.377 -22.683  0.00  0.00    +0.252 C 
ENDBRANCH  18  19
ENDBRANCH   5  12
BRANCH   4  21
ATOM     21  N   UNL     1      33.559 -13.812 -22.744  0.00  0.00    -0.313 N 
ATOM     22  H   UNL     1      32.665 -14.213 -22.820  0.00  0.00    +0.148 HD
BRANCH  21  23
ATOM     23  C   UNL     1      34.663 -14.650 -22.380  0.00  0.00    +0.164 C 
BRANCH  23  27
ATOM     24  O   UNL     1      34.232 -16.002 -24.323  0.00  0.00    -0.314 OA
ATOM     25  N   UNL     1      34.959 -17.140 -22.535  0.00  0.00    -0.315 NA
ATOM     26  N   UNL     1      34.294 -17.345 -24.716  0.00  0.00    -0.012 NA
ATOM     27  C   UNL     1      34.640 -16.015 -23.049  0.00  0.00    +0.311 C 
ATOM     28  C   UNL     1      34.730 -17.953 -23.607  0.00  0.00    +0.105 C 
ATOM     29  C   UNL     1      34.950 -19.402 -23.553  0.00  0.00    +0.132 C 
ENDBRANCH  23  27
BRANCH  23  30
ATOM     30  C   UNL     1      34.710 -14.797 -20.846  0.00  0.00    +0.030 C 
ATOM     31  C   UNL     1      33.349 -14.588 -20.192  0.00  0.00    +0.002 C 
ENDBRANCH  23  30
ENDBRANCH  21  23
ENDBRANCH   4  21
TORSDOF 6
ENDMDL
MODEL 6
REMARK VINA RESULT:      -8.4      2.428      8.345
REMARK  Name = 11596613
REMARK  6 active torsions:
REMARK  status: ('A' for Active; 'I' for Inactive)
REMARK    1  A    between atoms: C_4  and  N_21
REMARK    2  A    between atoms: C_5  and  C_12
REMARK    3  A    between atoms: C_18  and  O_19
REMARK    4  A    between atoms: N_21  and  C_23
REMARK    5  A    between atoms: C_23  and  C_27
REMARK    6  A    between atoms: C_23  and  C_30
REMARK                            x       y       z     vdW  Elec       q    Type
REMARK                         _______ _______ _______ _____ _____    ______ ____
ROOT
ATOM      1  N   UNL     1      33.519 -24.011 -15.199  0.00  0.00    -0.152 N 
ATOM      2  N   UNL     1      33.143 -24.666 -14.063  0.00  0.00    -0.179 NA
ATOM      3  N   UNL     1      32.536 -22.741 -16.995  0.00  0.00    -0.393 NA
ATOM      4  C   UNL     1      34.815 -23.872 -15.721  0.00  0.00    +0.126 C 
ATOM      5  C   UNL     1      31.313 -23.765 -15.073  0.00  0.00    +0.128 C 
ATOM      6  C   UNL     1      32.413 -23.447 -15.838  0.00  0.00    +0.192 C 
ATOM      7  C   UNL     1      31.821 -24.511 -14.004  0.00  0.00    +0.067 C 
ATOM      8  C   UNL     1      34.975 -23.181 -16.862  0.00  0.00    +0.059 C 
ATOM      9  C   UNL     1      33.738 -22.616 -17.476  0.00  0.00    +0.113 C 
ATOM     10  C   UNL     1      31.077 -25.105 -12.880  0.00  0.00    +0.050 C 
ATOM     11  C   UNL     1      33.902 -21.837 -18.757  0.00  0.00    +0.067 C 
ENDROOT
BRANCH   5  12
ATOM     12  C   UNL     1      29.973 -23.368 -15.391  0.00  0.00    -0.013 C 
ATOM     13  C   UNL     1      29.304 -22.402 -14.635  0.00  0.00    -0.022 C 
ATOM     14  C   UNL     1      29.329 -23.962 -16.479  0.00  0.00    -0.001 C 
ATOM     15  C   UNL     1      28.000 -22.032 -14.966  0.00  0.00    +0.032 C 
ATOM     16  C   UNL     1      29.957 -21.741 -13.464  0.00  0.00    +0.031 C 
ATOM     17  C   UNL     1      28.025 -23.592 -16.810  0.00  0.00    +0.037 C 
ATOM     18  C   UNL     1      27.361 -22.627 -16.053  0.00  0.00    +0.138 C 
BRANCH  18  19
ATOM     19  O   UNL     1      26.089 -22.267 -16.376  0.00  0.00    -0.471 OA
ATOM     20  C   UNL     1      25.918 -21.449 -17.532  0.00  0.00    +0.252 C 
ENDBRANCH  18  19
ENDBRANCH   5  12
BRANCH   4  21
ATOM     21  N   UNL     1      35.840 -24.454 -15.031  0.00  0.00    -0.313 N 
ATOM     22  H   UNL     1      35.864 -25.434 -14.953  0.00  0.00    +0.148 HD
BRANCH  21  23
ATOM     23  C   UNL     1      36.883 -23.687 -14.415  0.00  0.00    +0.164 C 
BRANCH  23  27
ATOM     24  O   UNL     1      37.661 -22.811 -12.315  0.00  0.00    -0.314 OA
ATOM     25  N   UNL     1      36.026 -24.333 -12.144  0.00  0.00    -0.315 NA
ATOM     26  N   UNL     1      37.405 -22.955 -10.945  0.00  0.00    -0.012 NA
ATOM     27  C   UNL     1      36.803 -23.656 -12.898  0.00  0.00    +0.311 C 
ATOM     28  C   UNL     1      36.430 -23.869 -10.925  0.00  0.00    +0.105 C 
ATOM     29  C   UNL     1      35.833 -24.340  -9.671  0.00  0.00    +0.132 C 
ENDBRANCH  23  27
BRANCH  23  30
ATOM     30  C   UNL     1      36.873 -22.257 -14.990  0.00  0.00    +0.030 C 
ATOM     31  C   UNL     1      37.929 -22.048 -16.069  0.00  0.00    +0.002 C 
ENDBRANCH  23  30
ENDBRANCH  21  23
ENDBRANCH   4  21
TORSDOF 6
ENDMDL
