MODEL 1
REMARK VINA RESULT:     -12.1      0.000      0.000
REMARK  Name = 15602701
REMARK  5 active torsions:
REMARK  status: ('A' for Active; 'I' for Inactive)
REMARK    1  A    between atoms: N_5  and  C_12
REMARK    2  A    between atoms: C_6  and  C_22
REMARK    3  A    between atoms: C_13  and  C_21
REMARK    4  A    between atoms: C_22  and  C_23
REMARK    5  A    between atoms: C_23  and  N_24
REMARK                            x       y       z     vdW  Elec       q    Type
REMARK                         _______ _______ _______ _____ _____    ______ ____
ROOT
ATOM      1  S   UNL     1      36.611 -20.521 -19.389  0.00  0.00    -0.056 S 
ATOM      2  O   UNL     1      35.293 -23.391 -15.985  0.00  0.00    -0.252 OA
ATOM      3  N   UNL     1      34.631 -21.870 -18.420  0.00  0.00    -0.223 NA
ATOM      4  N   UNL     1      36.728 -22.020 -17.242  0.00  0.00    -0.248 N 
ATOM      5  N   UNL     1      37.526 -23.102 -15.359  0.00  0.00    -0.268 N 
ATOM      6  C   UNL     1      35.109 -20.455 -20.177  0.00  0.00    +0.031 C 
ATOM      7  C   UNL     1      34.177 -21.213 -19.547  0.00  0.00    +0.103 C 
ATOM      8  C   UNL     1      35.900 -21.580 -18.241  0.00  0.00    +0.166 C 
ATOM      9  C   UNL     1      36.398 -22.893 -16.171  0.00  0.00    +0.310 C 
ATOM     10  H   UNL     1      37.657 -21.694 -17.269  0.00  0.00    +0.158 HD
ATOM     11  H   UNL     1      38.348 -22.635 -15.633  0.00  0.00    +0.156 HD
ENDROOT
BRANCH   5  12
ATOM     12  C   UNL     1      37.625 -23.901 -14.195  0.00  0.00    +0.052 C 
ATOM     13  C   UNL     1      36.914 -24.405 -11.960  0.00  0.00    +0.073 C 
ATOM     14  C   UNL     1      36.816 -23.617 -13.107  0.00  0.00    +0.019 C 
ATOM     15  C   UNL     1      38.527 -24.951 -14.169  0.00  0.00    +0.015 C 
ATOM     16  C   UNL     1      37.817 -25.467 -11.917  0.00  0.00    +0.004 C 
ATOM     17  C   UNL     1      38.625 -25.739 -13.022  0.00  0.00    +0.001 C 
BRANCH  13  21
ATOM     18  F   UNL     1      35.632 -25.234 -10.117  0.00  0.00    -0.166 F 
ATOM     19  F   UNL     1      36.663 -23.348  -9.829  0.00  0.00    -0.166 F 
ATOM     20  F   UNL     1      34.911 -23.441 -11.114  0.00  0.00    -0.166 F 
ATOM     21  C   UNL     1      36.050 -24.114 -10.779  0.00  0.00    +0.419 C 
ENDBRANCH  13  21
ENDBRANCH   5  12
BRANCH   6  22
ATOM     22  C   UNL     1      34.956 -19.613 -21.422  0.00  0.00    +0.056 C 
BRANCH  22  23
ATOM     23  C   UNL     1      36.049 -18.552 -21.553  0.00  0.00    +0.093 C 
BRANCH  23  24
ATOM     24  N   UNL     1      35.490 -17.233 -21.532  0.00  0.00    -0.320 N 
ATOM     25  N   UNL     1      34.260 -14.411 -21.633  0.00  0.00    -0.220 N 
ATOM     26  N   UNL     1      33.677 -13.268 -22.044  0.00  0.00    -0.178 NA
ATOM     27  N   UNL     1      34.950 -17.252 -23.861  0.00  0.00    -0.232 NA
ATOM     28  N   UNL     1      33.883 -15.361 -24.970  0.00  0.00    -0.245 NA
ATOM     29  C   UNL     1      34.422 -15.334 -22.624  0.00  0.00    +0.185 C 
ATOM     30  C   UNL     1      34.955 -16.609 -22.671  0.00  0.00    +0.128 C 
ATOM     31  C   UNL     1      33.902 -14.746 -23.765  0.00  0.00    +0.103 C 
ATOM     32  C   UNL     1      33.461 -13.479 -23.347  0.00  0.00    +0.134 C 
ATOM     33  C   UNL     1      34.640 -14.536 -20.245  0.00  0.00    +0.135 C 
ATOM     34  C   UNL     1      34.422 -16.598 -24.922  0.00  0.00    +0.251 C 
ATOM     35  H   UNL     1      35.481 -16.741 -20.679  0.00  0.00    +0.148 HD
ENDBRANCH  23  24
ENDBRANCH  22  23
ENDBRANCH   6  22
TORSDOF 5
ENDMDL
MODEL 2
REMARK VINA RESULT:     -11.9      0.879      1.934
REMARK  Name = 15602701
REMARK  5 active torsions:
REMARK  status: ('A' for Active; 'I' for Inactive)
REMARK    1  A    between atoms: N_5  and  C_12
REMARK    2  A    between atoms: C_6  and  C_22
REMARK    3  A    between atoms: C_13  and  C_21
REMARK    4  A    between atoms: C_22  and  C_23
REMARK    5  A    between atoms: C_23  and  N_24
REMARK                            x       y       z     vdW  Elec       q    Type
REMARK                         _______ _______ _______ _____ _____    ______ ____
ROOT
ATOM      1  S   UNL     1      36.510 -20.382 -19.875  0.00  0.00    -0.056 S 
ATOM      2  O   UNL     1      35.377 -23.108 -16.291  0.00  0.00    -0.252 OA
ATOM      3  N   UNL     1      34.585 -21.687 -18.747  0.00  0.00    -0.223 NA
ATOM      4  N   UNL     1      36.742 -21.792 -17.678  0.00  0.00    -0.248 N 
ATOM      5  N   UNL     1      37.640 -22.798 -15.798  0.00  0.00    -0.268 N 
ATOM      6  C   UNL     1      34.968 -20.345 -20.583  0.00  0.00    +0.031 C 
ATOM      7  C   UNL     1      34.071 -21.075 -19.874  0.00  0.00    +0.103 C 
ATOM      8  C   UNL     1      35.861 -21.391 -18.648  0.00  0.00    +0.166 C 
ATOM      9  C   UNL     1      36.471 -22.621 -16.556  0.00  0.00    +0.310 C 
ATOM     10  H   UNL     1      37.668 -21.469 -17.768  0.00  0.00    +0.158 HD
ATOM     11  H   UNL     1      38.446 -22.344 -16.134  0.00  0.00    +0.156 HD
ENDROOT
BRANCH   5  12
ATOM     12  C   UNL     1      37.801 -23.549 -14.609  0.00  0.00    +0.052 C 
ATOM     13  C   UNL     1      37.249 -23.928 -12.305  0.00  0.00    +0.073 C 
ATOM     14  C   UNL     1      37.090 -23.188 -13.477  0.00  0.00    +0.019 C 
ATOM     15  C   UNL     1      38.666 -24.631 -14.603  0.00  0.00    +0.015 C 
ATOM     16  C   UNL     1      38.115 -25.021 -12.283  0.00  0.00    +0.004 C 
ATOM     17  C   UNL     1      38.825 -25.372 -13.432  0.00  0.00    +0.001 C 
BRANCH  13  21
ATOM     18  F   UNL     1      35.153 -23.373 -11.292  0.00  0.00    -0.166 F 
ATOM     19  F   UNL     1      36.567 -24.487 -10.082  0.00  0.00    -0.166 F 
ATOM     20  F   UNL     1      36.932 -22.389 -10.521  0.00  0.00    -0.166 F 
ATOM     21  C   UNL     1      36.490 -23.554 -11.077  0.00  0.00    +0.419 C 
ENDBRANCH  13  21
ENDBRANCH   5  12
BRANCH   6  22
ATOM     22  C   UNL     1      34.749 -19.555 -21.852  0.00  0.00    +0.056 C 
BRANCH  22  23
ATOM     23  C   UNL     1      35.767 -18.428 -22.027  0.00  0.00    +0.093 C 
BRANCH  23  24
ATOM     24  N   UNL     1      35.170 -17.287 -22.656  0.00  0.00    -0.320 N 
ATOM     25  N   UNL     1      33.883 -14.767 -23.873  0.00  0.00    -0.220 N 
ATOM     26  N   UNL     1      33.333 -13.550 -24.043  0.00  0.00    -0.178 NA
ATOM     27  N   UNL     1      35.003 -16.052 -20.616  0.00  0.00    -0.232 NA
ATOM     28  N   UNL     1      34.061 -13.805 -20.523  0.00  0.00    -0.245 NA
ATOM     29  C   UNL     1      34.227 -15.042 -22.582  0.00  0.00    +0.185 C 
ATOM     30  C   UNL     1      34.802 -16.129 -21.951  0.00  0.00    +0.128 C 
ATOM     31  C   UNL     1      33.873 -13.914 -21.858  0.00  0.00    +0.103 C 
ATOM     32  C   UNL     1      33.330 -13.033 -22.809  0.00  0.00    +0.134 C 
ATOM     33  C   UNL     1      34.045 -15.623 -25.026  0.00  0.00    +0.135 C 
ATOM     34  C   UNL     1      34.625 -14.911 -19.993  0.00  0.00    +0.251 C 
ATOM     35  H   UNL     1      35.011 -17.316 -23.627  0.00  0.00    +0.148 HD
ENDBRANCH  23  24
ENDBRANCH  22  23
ENDBRANCH   6  22
TORSDOF 5
ENDMDL
MODEL 3
REMARK VINA RESULT:     -11.7      3.720      4.676
REMARK  Name = 15602701
REMARK  5 active torsions:
REMARK  status: ('A' for Active; 'I' for Inactive)
REMARK    1  A    between atoms: N_5  and  C_12
REMARK    2  A    between atoms: C_6  and  C_22
REMARK    3  A    between atoms: C_13  and  C_21
REMARK    4  A    between atoms: C_22  and  C_23
REMARK    5  A    between atoms: C_23  and  N_24
REMARK                            x       y       z     vdW  Elec       q    Type
REMARK                         _______ _______ _______ _____ _____    ______ ____
ROOT
ATOM      1  S   UNL     1      35.808 -20.930 -19.862  0.00  0.00    -0.056 S 
ATOM      2  O   UNL     1      31.933 -22.185 -17.633  0.00  0.00    -0.252 OA
ATOM      3  N   UNL     1      33.229 -20.747 -19.854  0.00  0.00    -0.223 NA
ATOM      4  N   UNL     1      34.233 -22.042 -18.087  0.00  0.00    -0.248 N 
ATOM      5  N   UNL     1      33.493 -23.251 -16.259  0.00  0.00    -0.268 N 
ATOM      6  C   UNL     1      35.044 -20.030 -21.083  0.00  0.00    +0.031 C 
ATOM      7  C   UNL     1      33.696 -20.030 -20.938  0.00  0.00    +0.103 C 
ATOM      8  C   UNL     1      34.254 -21.264 -19.215  0.00  0.00    +0.166 C 
ATOM      9  C   UNL     1      33.093 -22.465 -17.352  0.00  0.00    +0.310 C 
ATOM     10  H   UNL     1      35.108 -22.342 -17.747  0.00  0.00    +0.158 HD
ATOM     11  H   UNL     1      34.462 -23.392 -16.159  0.00  0.00    +0.156 HD
ENDROOT
BRANCH   5  12
ATOM     12  C   UNL     1      32.673 -23.865 -15.282  0.00  0.00    +0.052 C 
ATOM     13  C   UNL     1      30.502 -24.569 -14.542  0.00  0.00    +0.073 C 
ATOM     14  C   UNL     1      31.309 -23.962 -15.505  0.00  0.00    +0.019 C 
ATOM     15  C   UNL     1      33.252 -24.359 -14.125  0.00  0.00    +0.015 C 
ATOM     16  C   UNL     1      31.069 -25.071 -13.371  0.00  0.00    +0.004 C 
ATOM     17  C   UNL     1      32.444 -24.965 -13.162  0.00  0.00    +0.001 C 
BRANCH  13  21
ATOM     18  F   UNL     1      28.357 -23.508 -14.584  0.00  0.00    -0.166 F 
ATOM     19  F   UNL     1      28.700 -25.091 -16.026  0.00  0.00    -0.166 F 
ATOM     20  F   UNL     1      28.439 -25.578 -13.923  0.00  0.00    -0.166 F 
ATOM     21  C   UNL     1      29.031 -24.682 -14.766  0.00  0.00    +0.419 C 
ENDBRANCH  13  21
ENDBRANCH   5  12
BRANCH   6  22
ATOM     22  C   UNL     1      35.880 -19.355 -22.146  0.00  0.00    +0.056 C 
BRANCH  22  23
ATOM     23  C   UNL     1      36.273 -17.928 -21.766  0.00  0.00    +0.093 C 
BRANCH  23  24
ATOM     24  N   UNL     1      35.476 -16.969 -22.473  0.00  0.00    -0.320 N 
ATOM     25  N   UNL     1      33.739 -14.838 -23.861  0.00  0.00    -0.220 N 
ATOM     26  N   UNL     1      32.948 -13.777 -24.111  0.00  0.00    -0.178 NA
ATOM     27  N   UNL     1      34.945 -15.723 -20.503  0.00  0.00    -0.232 NA
ATOM     28  N   UNL     1      33.537 -13.733 -20.556  0.00  0.00    -0.245 NA
ATOM     29  C   UNL     1      34.068 -14.982 -22.545  0.00  0.00    +0.185 C 
ATOM     30  C   UNL     1      34.832 -15.893 -21.840  0.00  0.00    +0.128 C 
ATOM     31  C   UNL     1      33.444 -13.931 -21.892  0.00  0.00    +0.103 C 
ATOM     32  C   UNL     1      32.771 -13.226 -22.905  0.00  0.00    +0.134 C 
ATOM     33  C   UNL     1      34.139 -15.680 -24.964  0.00  0.00    +0.135 C 
ATOM     34  C   UNL     1      34.299 -14.668 -19.951  0.00  0.00    +0.251 C 
ATOM     35  H   UNL     1      35.376 -17.069 -23.447  0.00  0.00    +0.148 HD
ENDBRANCH  23  24
ENDBRANCH  22  23
ENDBRANCH   6  22
TORSDOF 5
ENDMDL
MODEL 4
REMARK VINA RESULT:     -11.7      2.045      2.979
REMARK  Name = 15602701
REMARK  5 active torsions:
REMARK  status: ('A' for Active; 'I' for Inactive)
REMARK    1  A    between atoms: N_5  and  C_12
REMARK    2  A    between atoms: C_6  and  C_22
REMARK    3  A    between atoms: C_13  and  C_21
REMARK    4  A    between atoms: C_22  and  C_23
REMARK    5  A    between atoms: C_23  and  N_24
REMARK                            x       y       z     vdW  Elec       q    Type
REMARK                         _______ _______ _______ _____ _____    ______ ____
ROOT
ATOM      1  S   UNL     1      34.070 -20.929 -20.080  0.00  0.00    -0.056 S 
ATOM      2  O   UNL     1      36.816 -22.106 -16.525  0.00  0.00    -0.252 OA
ATOM      3  N   UNL     1      36.428 -20.650 -19.057  0.00  0.00    -0.223 NA
ATOM      4  N   UNL     1      34.872 -22.032 -17.842  0.00  0.00    -0.248 N 
ATOM      5  N   UNL     1      34.892 -23.267 -15.885  0.00  0.00    -0.268 N 
ATOM      6  C   UNL     1      35.209 -19.966 -20.891  0.00  0.00    +0.031 C 
ATOM      7  C   UNL     1      36.392 -19.922 -20.230  0.00  0.00    +0.103 C 
ATOM      8  C   UNL     1      35.259 -21.223 -18.877  0.00  0.00    +0.166 C 
ATOM      9  C   UNL     1      35.652 -22.436 -16.725  0.00  0.00    +0.310 C 
ATOM     10  H   UNL     1      33.949 -22.374 -17.875  0.00  0.00    +0.158 HD
ATOM     11  H   UNL     1      33.969 -23.445 -16.175  0.00  0.00    +0.156 HD
ENDROOT
BRANCH   5  12
ATOM     12  C   UNL     1      35.291 -23.879 -14.673  0.00  0.00    +0.052 C 
ATOM     13  C   UNL     1      36.838 -25.250 -13.455  0.00  0.00    +0.073 C 
ATOM     14  C   UNL     1      36.445 -24.647 -14.649  0.00  0.00    +0.019 C 
ATOM     15  C   UNL     1      34.522 -23.697 -13.536  0.00  0.00    +0.015 C 
ATOM     16  C   UNL     1      36.074 -25.077 -12.300  0.00  0.00    +0.004 C 
ATOM     17  C   UNL     1      34.916 -24.301 -12.342  0.00  0.00    +0.001 C 
BRANCH  13  21
ATOM     18  F   UNL     1      39.104 -25.571 -14.154  0.00  0.00    -0.166 F 
ATOM     19  F   UNL     1      38.589 -26.231 -12.153  0.00  0.00    -0.166 F 
ATOM     20  F   UNL     1      37.879 -27.346 -13.879  0.00  0.00    -0.166 F 
ATOM     21  C   UNL     1      38.077 -26.080 -13.410  0.00  0.00    +0.419 C 
ENDBRANCH  13  21
ENDBRANCH   5  12
BRANCH   6  22
ATOM     22  C   UNL     1      34.827 -19.294 -22.190  0.00  0.00    +0.056 C 
BRANCH  22  23
ATOM     23  C   UNL     1      35.807 -18.192 -22.592  0.00  0.00    +0.093 C 
BRANCH  23  24
ATOM     24  N   UNL     1      35.111 -17.032 -23.064  0.00  0.00    -0.320 N 
ATOM     25  N   UNL     1      33.619 -14.483 -23.938  0.00  0.00    -0.220 N 
ATOM     26  N   UNL     1      32.998 -13.288 -23.950  0.00  0.00    -0.178 NA
ATOM     27  N   UNL     1      35.025 -16.009 -20.905  0.00  0.00    -0.232 NA
ATOM     28  N   UNL     1      33.981 -13.839 -20.527  0.00  0.00    -0.245 NA
ATOM     29  C   UNL     1      34.064 -14.861 -22.706  0.00  0.00    +0.185 C 
ATOM     30  C   UNL     1      34.736 -15.969 -22.225  0.00  0.00    +0.128 C 
ATOM     31  C   UNL     1      33.706 -13.830 -21.852  0.00  0.00    +0.103 C 
ATOM     32  C   UNL     1      33.054 -12.893 -22.673  0.00  0.00    +0.134 C 
ATOM     33  C   UNL     1      33.742 -15.213 -25.178  0.00  0.00    +0.135 C 
ATOM     34  C   UNL     1      34.635 -14.957 -20.147  0.00  0.00    +0.251 C 
ATOM     35  H   UNL     1      34.887 -16.976 -24.021  0.00  0.00    +0.148 HD
ENDBRANCH  23  24
ENDBRANCH  22  23
ENDBRANCH   6  22
TORSDOF 5
ENDMDL
MODEL 5
REMARK VINA RESULT:     -11.6      1.958      2.405
REMARK  Name = 15602701
REMARK  5 active torsions:
REMARK  status: ('A' for Active; 'I' for Inactive)
REMARK    1  A    between atoms: N_5  and  C_12
REMARK    2  A    between atoms: C_6  and  C_22
REMARK    3  A    between atoms: C_13  and  C_21
REMARK    4  A    between atoms: C_22  and  C_23
REMARK    5  A    between atoms: C_23  and  N_24
REMARK                            x       y       z     vdW  Elec       q    Type
REMARK                         _______ _______ _______ _____ _____    ______ ____
ROOT
ATOM      1  S   UNL     1      34.131 -20.935 -20.108  0.00  0.00    -0.056 S 
ATOM      2  O   UNL     1      36.854 -22.045 -16.514  0.00  0.00    -0.252 OA
ATOM      3  N   UNL     1      36.466 -20.597 -19.050  0.00  0.00    -0.223 NA
ATOM      4  N   UNL     1      34.928 -22.019 -17.859  0.00  0.00    -0.248 N 
ATOM      5  N   UNL     1      34.951 -23.255 -15.903  0.00  0.00    -0.268 N 
ATOM      6  C   UNL     1      35.256 -19.942 -20.902  0.00  0.00    +0.031 C 
ATOM      7  C   UNL     1      36.429 -19.868 -20.223  0.00  0.00    +0.103 C 
ATOM      8  C   UNL     1      35.310 -21.200 -18.888  0.00  0.00    +0.166 C 
ATOM      9  C   UNL     1      35.702 -22.404 -16.731  0.00  0.00    +0.310 C 
ATOM     10  H   UNL     1      34.014 -22.385 -17.906  0.00  0.00    +0.158 HD
ATOM     11  H   UNL     1      34.037 -23.457 -16.206  0.00  0.00    +0.156 HD
ENDROOT
BRANCH   5  12
ATOM     12  C   UNL     1      35.348 -23.859 -14.686  0.00  0.00    +0.052 C 
ATOM     13  C   UNL     1      36.936 -25.149 -13.433  0.00  0.00    +0.073 C 
ATOM     14  C   UNL     1      36.545 -24.555 -14.633  0.00  0.00    +0.019 C 
ATOM     15  C   UNL     1      34.533 -23.740 -13.573  0.00  0.00    +0.015 C 
ATOM     16  C   UNL     1      36.127 -25.038 -12.302  0.00  0.00    +0.004 C 
ATOM     17  C   UNL     1      34.924 -24.334 -12.373  0.00  0.00    +0.001 C 
BRANCH  13  21
ATOM     18  F   UNL     1      38.232 -27.046 -14.104  0.00  0.00    -0.166 F 
ATOM     19  F   UNL     1      39.301 -25.185 -13.790  0.00  0.00    -0.166 F 
ATOM     20  F   UNL     1      38.528 -26.292 -12.086  0.00  0.00    -0.166 F 
ATOM     21  C   UNL     1      38.222 -25.902 -13.357  0.00  0.00    +0.419 C 
ENDBRANCH  13  21
ENDBRANCH   5  12
BRANCH   6  22
ATOM     22  C   UNL     1      34.877 -19.279 -22.205  0.00  0.00    +0.056 C 
BRANCH  22  23
ATOM     23  C   UNL     1      35.811 -18.126 -22.572  0.00  0.00    +0.093 C 
BRANCH  23  24
ATOM     24  N   UNL     1      35.249 -16.865 -22.189  0.00  0.00    -0.320 N 
ATOM     25  N   UNL     1      33.990 -14.138 -21.507  0.00  0.00    -0.220 N 
ATOM     26  N   UNL     1      33.347 -12.957 -21.578  0.00  0.00    -0.178 NA
ATOM     27  N   UNL     1      34.403 -16.398 -24.376  0.00  0.00    -0.232 NA
ATOM     28  N   UNL     1      33.180 -14.354 -24.895  0.00  0.00    -0.245 NA
ATOM     29  C   UNL     1      34.027 -14.817 -22.689  0.00  0.00    +0.185 C 
ATOM     30  C   UNL     1      34.560 -16.030 -23.085  0.00  0.00    +0.128 C 
ATOM     31  C   UNL     1      33.355 -14.015 -23.597  0.00  0.00    +0.103 C 
ATOM     32  C   UNL     1      32.961 -12.886 -22.857  0.00  0.00    +0.134 C 
ATOM     33  C   UNL     1      34.552 -14.547 -20.241  0.00  0.00    +0.135 C 
ATOM     34  C   UNL     1      33.732 -15.549 -25.191  0.00  0.00    +0.251 C 
ATOM     35  H   UNL     1      35.348 -16.571 -21.255  0.00  0.00    +0.148 HD
ENDBRANCH  23  24
ENDBRANCH  22  23
ENDBRANCH   6  22
TORSDOF 5
ENDMDL
MODEL 6
REMARK VINA RESULT:     -11.4      3.672      4.312
REMARK  Name = 15602701
REMARK  5 active torsions:
REMARK  status: ('A' for Active; 'I' for Inactive)
REMARK    1  A    between atoms: N_5  and  C_12
REMARK    2  A    between atoms: C_6  and  C_22
REMARK    3  A    between atoms: C_13  and  C_21
REMARK    4  A    between atoms: C_22  and  C_23
REMARK    5  A    between atoms: C_23  and  N_24
REMARK                            x       y       z     vdW  Elec       q    Type
REMARK                         _______ _______ _______ _____ _____    ______ ____
ROOT
ATOM      1  S   UNL     1      35.991 -20.777 -19.868  0.00  0.00    -0.056 S 
ATOM      2  O   UNL     1      32.077 -22.122 -17.762  0.00  0.00    -0.252 OA
ATOM      3  N   UNL     1      33.410 -20.648 -19.937  0.00  0.00    -0.223 NA
ATOM      4  N   UNL     1      34.386 -21.930 -18.146  0.00  0.00    -0.248 N 
ATOM      5  N   UNL     1      33.615 -23.163 -16.345  0.00  0.00    -0.268 N 
ATOM      6  C   UNL     1      35.246 -19.888 -21.107  0.00  0.00    +0.031 C 
ATOM      7  C   UNL     1      33.894 -19.916 -21.004  0.00  0.00    +0.103 C 
ATOM      8  C   UNL     1      34.425 -21.147 -19.269  0.00  0.00    +0.166 C 
ATOM      9  C   UNL     1      33.233 -22.380 -17.448  0.00  0.00    +0.310 C 
ATOM     10  H   UNL     1      35.256 -22.214 -17.780  0.00  0.00    +0.158 HD
ATOM     11  H   UNL     1      34.584 -23.284 -16.217  0.00  0.00    +0.156 HD
ENDROOT
BRANCH   5  12
ATOM     12  C   UNL     1      32.780 -23.798 -15.396  0.00  0.00    +0.052 C 
ATOM     13  C   UNL     1      30.590 -24.478 -14.689  0.00  0.00    +0.073 C 
ATOM     14  C   UNL     1      31.414 -23.851 -15.624  0.00  0.00    +0.019 C 
ATOM     15  C   UNL     1      33.344 -24.356 -14.262  0.00  0.00    +0.015 C 
ATOM     16  C   UNL     1      31.143 -25.045 -13.540  0.00  0.00    +0.004 C 
ATOM     17  C   UNL     1      32.521 -24.983 -13.326  0.00  0.00    +0.001 C 
BRANCH  13  21
ATOM     18  F   UNL     1      28.777 -24.956 -16.175  0.00  0.00    -0.166 F 
ATOM     19  F   UNL     1      28.473 -25.405 -14.075  0.00  0.00    -0.166 F 
ATOM     20  F   UNL     1      28.504 -23.338 -14.748  0.00  0.00    -0.166 F 
ATOM     21  C   UNL     1      29.118 -24.545 -14.917  0.00  0.00    +0.419 C 
ENDBRANCH  13  21
ENDBRANCH   5  12
BRANCH   6  22
ATOM     22  C   UNL     1      36.099 -19.191 -22.141  0.00  0.00    +0.056 C 
BRANCH  22  23
ATOM     23  C   UNL     1      35.270 -18.403 -23.154  0.00  0.00    +0.093 C 
BRANCH  23  24
ATOM     24  N   UNL     1      34.927 -17.109 -22.644  0.00  0.00    -0.320 N 
ATOM     25  N   UNL     1      34.141 -14.289 -21.685  0.00  0.00    -0.220 N 
ATOM     26  N   UNL     1      33.697 -13.019 -21.631  0.00  0.00    -0.178 NA
ATOM     27  N   UNL     1      34.125 -16.315 -24.752  0.00  0.00    -0.232 NA
ATOM     28  N   UNL     1      33.240 -14.063 -25.049  0.00  0.00    -0.245 NA
ATOM     29  C   UNL     1      34.044 -14.855 -22.922  0.00  0.00    +0.185 C 
ATOM     30  C   UNL     1      34.365 -16.096 -23.440  0.00  0.00    +0.128 C 
ATOM     31  C   UNL     1      33.492 -13.876 -23.733  0.00  0.00    +0.103 C 
ATOM     32  C   UNL     1      33.302 -12.772 -22.885  0.00  0.00    +0.134 C 
ATOM     33  C   UNL     1      34.655 -14.897 -20.479  0.00  0.00    +0.135 C 
ATOM     34  C   UNL     1      33.584 -15.300 -25.466  0.00  0.00    +0.251 C 
ATOM     35  H   UNL     1      35.091 -16.921 -21.692  0.00  0.00    +0.148 HD
ENDBRANCH  23  24
ENDBRANCH  22  23
ENDBRANCH   6  22
TORSDOF 5
ENDMDL
MODEL 7
REMARK VINA RESULT:     -10.8      7.997     13.793
REMARK  Name = 15602701
REMARK  5 active torsions:
REMARK  status: ('A' for Active; 'I' for Inactive)
REMARK    1  A    between atoms: N_5  and  C_12
REMARK    2  A    between atoms: C_6  and  C_22
REMARK    3  A    between atoms: C_13  and  C_21
REMARK    4  A    between atoms: C_22  and  C_23
REMARK    5  A    between atoms: C_23  and  N_24
REMARK                            x       y       z     vdW  Elec       q    Type
REMARK                         _______ _______ _______ _____ _____    ______ ____
ROOT
ATOM      1  S   UNL     1      34.956 -15.592 -21.971  0.00  0.00    -0.056 S 
ATOM      2  O   UNL     1      33.190 -12.190 -24.592  0.00  0.00    -0.252 OA
ATOM      3  N   UNL     1      34.138 -14.968 -24.343  0.00  0.00    -0.223 NA
ATOM      4  N   UNL     1      34.025 -13.242 -22.665  0.00  0.00    -0.248 N 
ATOM      5  N   UNL     1      33.346 -11.032 -22.569  0.00  0.00    -0.268 N 
ATOM      6  C   UNL     1      35.011 -16.767 -23.194  0.00  0.00    +0.031 C 
ATOM      7  C   UNL     1      34.551 -16.286 -24.375  0.00  0.00    +0.103 C 
ATOM      8  C   UNL     1      34.306 -14.501 -23.126  0.00  0.00    +0.166 C 
ATOM      9  C   UNL     1      33.487 -12.154 -23.403  0.00  0.00    +0.310 C 
ATOM     10  H   UNL     1      34.218 -13.071 -21.714  0.00  0.00    +0.158 HD
ATOM     11  H   UNL     1      33.628 -11.152 -21.633  0.00  0.00    +0.156 HD
ENDROOT
BRANCH   5  12
ATOM     12  C   UNL     1      32.850  -9.751 -22.909  0.00  0.00    +0.052 C 
ATOM     13  C   UNL     1      33.249  -7.497 -23.628  0.00  0.00    +0.073 C 
ATOM     14  C   UNL     1      33.739  -8.760 -23.293  0.00  0.00    +0.019 C 
ATOM     15  C   UNL     1      31.487  -9.515 -22.852  0.00  0.00    +0.015 C 
ATOM     16  C   UNL     1      31.879  -7.243 -23.576  0.00  0.00    +0.004 C 
ATOM     17  C   UNL     1      30.997  -8.252 -23.187  0.00  0.00    +0.001 C 
BRANCH  13  21
ATOM     18  F   UNL     1      33.695  -5.158 -23.864  0.00  0.00    -0.166 F 
ATOM     19  F   UNL     1      35.376  -6.435 -23.366  0.00  0.00    -0.166 F 
ATOM     20  F   UNL     1      34.525  -6.493 -25.366  0.00  0.00    -0.166 F 
ATOM     21  C   UNL     1      34.191  -6.418 -24.045  0.00  0.00    +0.419 C 
ENDBRANCH  13  21
ENDBRANCH   5  12
BRANCH   6  22
ATOM     22  C   UNL     1      35.536 -18.149 -22.878  0.00  0.00    +0.056 C 
BRANCH  22  23
ATOM     23  C   UNL     1      35.869 -18.327 -21.397  0.00  0.00    +0.093 C 
BRANCH  23  24
ATOM     24  N   UNL     1      34.961 -19.241 -20.771  0.00  0.00    -0.320 N 
ATOM     25  N   UNL     1      33.125 -21.265 -19.349  0.00  0.00    -0.220 N 
ATOM     26  N   UNL     1      32.653 -22.258 -18.572  0.00  0.00    -0.178 NA
ATOM     27  N   UNL     1      36.674 -20.318 -19.497  0.00  0.00    -0.232 NA
ATOM     28  N   UNL     1      36.205 -22.162 -17.972  0.00  0.00    -0.245 NA
ATOM     29  C   UNL     1      34.473 -21.082 -19.251  0.00  0.00    +0.185 C 
ATOM     30  C   UNL     1      35.371 -20.211 -19.840  0.00  0.00    +0.128 C 
ATOM     31  C   UNL     1      34.908 -22.029 -18.337  0.00  0.00    +0.103 C 
ATOM     32  C   UNL     1      33.746 -22.721 -17.956  0.00  0.00    +0.134 C 
ATOM     33  C   UNL     1      32.197 -20.528 -20.174  0.00  0.00    +0.135 C 
ATOM     34  C   UNL     1      37.006 -21.273 -18.596  0.00  0.00    +0.251 C 
ATOM     35  H   UNL     1      34.006 -19.187 -21.003  0.00  0.00    +0.148 HD
ENDBRANCH  23  24
ENDBRANCH  22  23
ENDBRANCH   6  22
TORSDOF 5
ENDMDL
MODEL 8
REMARK VINA RESULT:     -10.8      5.550      9.047
REMARK  Name = 15602701
REMARK  5 active torsions:
REMARK  status: ('A' for Active; 'I' for Inactive)
REMARK    1  A    between atoms: N_5  and  C_12
REMARK    2  A    between atoms: C_6  and  C_22
REMARK    3  A    between atoms: C_13  and  C_21
REMARK    4  A    between atoms: C_22  and  C_23
REMARK    5  A    between atoms: C_23  and  N_24
REMARK                            x       y       z     vdW  Elec       q    Type
REMARK                         _______ _______ _______ _____ _____    ______ ____
ROOT
ATOM      1  S   UNL     1      33.844 -13.647 -24.025  0.00  0.00    -0.056 S 
ATOM      2  O   UNL     1      34.889 -16.080 -20.211  0.00  0.00    -0.252 OA
ATOM      3  N   UNL     1      34.070 -13.536 -21.452  0.00  0.00    -0.223 NA
ATOM      4  N   UNL     1      34.543 -15.657 -22.496  0.00  0.00    -0.248 N 
ATOM      5  N   UNL     1      35.188 -17.767 -21.799  0.00  0.00    -0.268 N 
ATOM      6  C   UNL     1      33.523 -12.179 -23.235  0.00  0.00    +0.031 C 
ATOM      7  C   UNL     1      33.687 -12.285 -21.893  0.00  0.00    +0.103 C 
ATOM      8  C   UNL     1      34.184 -14.335 -22.490  0.00  0.00    +0.166 C 
ATOM      9  C   UNL     1      34.876 -16.464 -21.375  0.00  0.00    +0.310 C 
ATOM     10  H   UNL     1      34.575 -16.098 -23.376  0.00  0.00    +0.158 HD
ATOM     11  H   UNL     1      35.135 -17.930 -22.769  0.00  0.00    +0.156 HD
ENDROOT
BRANCH   5  12
ATOM     12  C   UNL     1      35.570 -18.874 -21.004  0.00  0.00    +0.052 C 
ATOM     13  C   UNL     1      34.978 -20.861 -19.797  0.00  0.00    +0.073 C 
ATOM     14  C   UNL     1      34.602 -19.769 -20.580  0.00  0.00    +0.019 C 
ATOM     15  C   UNL     1      36.903 -19.040 -20.669  0.00  0.00    +0.015 C 
ATOM     16  C   UNL     1      36.317 -21.043 -19.450  0.00  0.00    +0.004 C 
ATOM     17  C   UNL     1      37.280 -20.131 -19.886  0.00  0.00    +0.001 C 
BRANCH  13  21
ATOM     18  F   UNL     1      34.303 -23.141 -19.529  0.00  0.00    -0.166 F 
ATOM     19  F   UNL     1      33.670 -21.741 -17.998  0.00  0.00    -0.166 F 
ATOM     20  F   UNL     1      32.753 -21.681 -19.968  0.00  0.00    -0.166 F 
ATOM     21  C   UNL     1      33.950 -21.836 -19.331  0.00  0.00    +0.419 C 
ENDBRANCH  13  21
ENDBRANCH   5  12
BRANCH   6  22
ATOM     22  C   UNL     1      33.114 -10.970 -24.044  0.00  0.00    +0.056 C 
BRANCH  22  23
ATOM     23  C   UNL     1      33.929  -9.725 -23.694  0.00  0.00    +0.093 C 
BRANCH  23  24
ATOM     24  N   UNL     1      33.095  -8.561 -23.643  0.00  0.00    -0.320 N 
ATOM     25  N   UNL     1      31.302  -6.070 -23.383  0.00  0.00    -0.220 N 
ATOM     26  N   UNL     1      30.547  -5.066 -22.899  0.00  0.00    -0.178 NA
ATOM     27  N   UNL     1      32.932  -8.588 -21.258  0.00  0.00    -0.232 NA
ATOM     28  N   UNL     1      31.651  -6.926 -20.017  0.00  0.00    -0.245 NA
ATOM     29  C   UNL     1      31.812  -6.890 -22.420  0.00  0.00    +0.185 C 
ATOM     30  C   UNL     1      32.615  -8.015 -22.441  0.00  0.00    +0.128 C 
ATOM     31  C   UNL     1      31.353  -6.376 -21.218  0.00  0.00    +0.103 C 
ATOM     32  C   UNL     1      30.582  -5.257 -21.576  0.00  0.00    +0.134 C 
ATOM     33  C   UNL     1      31.486  -6.174 -24.812  0.00  0.00    +0.135 C 
ATOM     34  C   UNL     1      32.437  -8.016 -20.135  0.00  0.00    +0.251 C 
ATOM     35  H   UNL     1      32.848  -8.123 -24.489  0.00  0.00    +0.148 HD
ENDBRANCH  23  24
ENDBRANCH  22  23
ENDBRANCH   6  22
TORSDOF 5
ENDMDL
MODEL 9
REMARK VINA RESULT:     -10.7      7.461     13.414
REMARK  Name = 15602701
REMARK  5 active torsions:
REMARK  status: ('A' for Active; 'I' for Inactive)
REMARK    1  A    between atoms: N_5  and  C_12
REMARK    2  A    between atoms: C_6  and  C_22
REMARK    3  A    between atoms: C_13  and  C_21
REMARK    4  A    between atoms: C_22  and  C_23
REMARK    5  A    between atoms: C_23  and  N_24
REMARK                            x       y       z     vdW  Elec       q    Type
REMARK                         _______ _______ _______ _____ _____    ______ ____
ROOT
ATOM      1  S   UNL     1      34.875 -15.572 -21.918  0.00  0.00    -0.056 S 
ATOM      2  O   UNL     1      33.096 -12.124 -24.470  0.00  0.00    -0.252 OA
ATOM      3  N   UNL     1      34.118 -14.882 -24.292  0.00  0.00    -0.223 NA
ATOM      4  N   UNL     1      33.898 -13.225 -22.556  0.00  0.00    -0.248 N 
ATOM      5  N   UNL     1      33.150 -11.040 -22.401  0.00  0.00    -0.268 N 
ATOM      6  C   UNL     1      35.006 -16.698 -23.182  0.00  0.00    +0.031 C 
ATOM      7  C   UNL     1      34.571 -16.185 -24.360  0.00  0.00    +0.103 C 
ATOM      8  C   UNL     1      34.232 -14.457 -23.054  0.00  0.00    +0.166 C 
ATOM      9  C   UNL     1      33.352 -12.125 -23.271  0.00  0.00    +0.310 C 
ATOM     10  H   UNL     1      34.054 -13.085 -21.593  0.00  0.00    +0.158 HD
ATOM     11  H   UNL     1      33.404 -11.188 -21.461  0.00  0.00    +0.156 HD
ENDROOT
BRANCH   5  12
ATOM     12  C   UNL     1      32.628  -9.762 -22.709  0.00  0.00    +0.052 C 
ATOM     13  C   UNL     1      31.899  -7.592 -21.990  0.00  0.00    +0.073 C 
ATOM     14  C   UNL     1      32.414  -8.852 -21.686  0.00  0.00    +0.019 C 
ATOM     15  C   UNL     1      32.343  -9.446 -24.027  0.00  0.00    +0.015 C 
ATOM     16  C   UNL     1      31.607  -7.257 -23.312  0.00  0.00    +0.004 C 
ATOM     17  C   UNL     1      31.829  -8.185 -24.331  0.00  0.00    +0.001 C 
BRANCH  13  21
ATOM     18  F   UNL     1      32.714  -5.752 -20.695  0.00  0.00    -0.166 F 
ATOM     19  F   UNL     1      30.589  -5.787 -21.127  0.00  0.00    -0.166 F 
ATOM     20  F   UNL     1      31.428  -7.191 -19.694  0.00  0.00    -0.166 F 
ATOM     21  C   UNL     1      31.663  -6.600 -20.901  0.00  0.00    +0.419 C 
ENDBRANCH  13  21
ENDBRANCH   5  12
BRANCH   6  22
ATOM     22  C   UNL     1      35.561 -18.075 -22.900  0.00  0.00    +0.056 C 
BRANCH  22  23
ATOM     23  C   UNL     1      35.895 -18.283 -21.423  0.00  0.00    +0.093 C 
BRANCH  23  24
ATOM     24  N   UNL     1      34.992 -19.216 -20.817  0.00  0.00    -0.320 N 
ATOM     25  N   UNL     1      33.166 -21.277 -19.437  0.00  0.00    -0.220 N 
ATOM     26  N   UNL     1      32.697 -22.280 -18.669  0.00  0.00    -0.178 NA
ATOM     27  N   UNL     1      36.696 -20.254 -19.501  0.00  0.00    -0.232 NA
ATOM     28  N   UNL     1      36.231 -22.106 -17.986  0.00  0.00    -0.245 NA
ATOM     29  C   UNL     1      34.507 -21.065 -19.307  0.00  0.00    +0.185 C 
ATOM     30  C   UNL     1      35.400 -20.176 -19.876  0.00  0.00    +0.128 C 
ATOM     31  C   UNL     1      34.941 -22.001 -18.382  0.00  0.00    +0.103 C 
ATOM     32  C   UNL     1      33.785 -22.718 -18.027  0.00  0.00    +0.134 C 
ATOM     33  C   UNL     1      32.242 -20.561 -20.285  0.00  0.00    +0.135 C 
ATOM     34  C   UNL     1      37.027 -21.201 -18.592  0.00  0.00    +0.251 C 
ATOM     35  H   UNL     1      34.042 -19.182 -21.072  0.00  0.00    +0.148 HD
ENDBRANCH  23  24
ENDBRANCH  22  23
ENDBRANCH   6  22
TORSDOF 5
ENDMDL
