MODEL 1
REMARK VINA RESULT:     -11.0      0.000      0.000
REMARK  Name = 9811834
REMARK  13 active torsions:
REMARK  status: ('A' for Active; 'I' for Inactive)
REMARK    1  A    between atoms: C_1  and  N_3
REMARK    2  A    between atoms: C_1  and  C_12
REMARK    3  A    between atoms: C_1  and  C_20
REMARK    4  A    between atoms: C_4  and  C_6
REMARK    5  A    between atoms: C_6  and  C_7
REMARK    6  A    between atoms: C_7  and  C_9
REMARK    7  A    between atoms: C_9  and  O_10
REMARK    8  A    between atoms: C_12  and  C_13
REMARK    9  A    between atoms: C_13  and  C_16
REMARK   10  A    between atoms: C_16  and  O_17
REMARK   11  A    between atoms: O_17  and  C_18
REMARK   12  A    between atoms: C_20  and  C_21
REMARK   13  A    between atoms: C_24  and  C_27
REMARK                            x       y       z     vdW  Elec       q    Type
REMARK                         _______ _______ _______ _____ _____    ______ ____
ROOT
ATOM      1  C   UNL     1      33.761 -22.738 -16.049  0.00  0.00    +0.076 C 
ENDROOT
BRANCH   1   3
ATOM      2  O   UNL     1      30.981 -22.372 -16.762  0.00  0.00    -0.275 OA
ATOM      3  N   UNL     1      32.630 -23.509 -15.584  0.00  0.00    -0.306 N 
ATOM      4  C   UNL     1      31.327 -23.257 -15.985  0.00  0.00    +0.223 C 
ATOM      5  H   UNL     1      32.792 -24.248 -14.953  0.00  0.00    +0.149 HD
BRANCH   4   6
ATOM      6  C   UNL     1      30.349 -24.221 -15.336  0.00  0.00    +0.097 C 
BRANCH   6   7
ATOM      7  C   UNL     1      28.999 -23.573 -15.046  0.00  0.00    +0.119 C 
BRANCH   7   9
ATOM      8  O   UNL     1      27.740 -24.269 -17.010  0.00  0.00    -0.250 OA
ATOM      9  C   UNL     1      28.185 -23.375 -16.304  0.00  0.00    +0.314 C 
BRANCH   9  10
ATOM     10  O   UNL     1      27.994 -22.056 -16.569  0.00  0.00    -0.480 OA
ATOM     11  H   UNL     1      27.357 -21.568 -16.084  0.00  0.00    +0.295 HD
ENDBRANCH   9  10
ENDBRANCH   7   9
ENDBRANCH   6   7
ENDBRANCH   4   6
ENDBRANCH   1   3
BRANCH   1  12
ATOM     12  C   UNL     1      34.898 -22.761 -15.009  0.00  0.00    +0.031 C 
BRANCH  12  13
ATOM     13  C   UNL     1      36.201 -23.403 -15.516  0.00  0.00    +0.101 C 
ATOM     14  C   UNL     1      37.383 -22.449 -15.341  0.00  0.00    +0.012 C 
BRANCH  13  16
ATOM     15  O   UNL     1      35.944 -25.758 -14.979  0.00  0.00    -0.250 OA
ATOM     16  C   UNL     1      36.493 -24.686 -14.758  0.00  0.00    +0.316 C 
BRANCH  16  17
ATOM     17  O   UNL     1      37.458 -24.459 -13.820  0.00  0.00    -0.449 OA
BRANCH  17  18
ATOM     18  C   UNL     1      38.281 -25.584 -13.499  0.00  0.00    +0.209 C 
ATOM     19  C   UNL     1      39.627 -25.419 -14.172  0.00  0.00    +0.051 C 
ENDBRANCH  17  18
ENDBRANCH  16  17
ENDBRANCH  13  16
ENDBRANCH  12  13
ENDBRANCH   1  12
BRANCH   1  20
ATOM     20  C   UNL     1      34.266 -23.277 -17.400  0.00  0.00    +0.046 C 
BRANCH  20  21
ATOM     21  C   UNL     1      34.417 -22.199 -18.447  0.00  0.00    -0.021 C 
ATOM     22  C   UNL     1      33.284 -21.624 -19.024  0.00  0.00    -0.004 C 
ATOM     23  C   UNL     1      35.688 -21.779 -18.838  0.00  0.00    -0.004 C 
ATOM     24  C   UNL     1      34.693 -20.209 -20.383  0.00  0.00    -0.000 C 
ATOM     25  C   UNL     1      33.422 -20.630 -19.992  0.00  0.00    -0.000 C 
ATOM     26  C   UNL     1      35.826 -20.784 -19.806  0.00  0.00    -0.000 C 
BRANCH  24  27
ATOM     27  C   UNL     1      34.837 -19.178 -21.387  0.00  0.00    -0.000 C 
ATOM     28  C   UNL     1      34.485 -19.441 -22.711  0.00  0.00    -0.000 C 
ATOM     29  C   UNL     1      35.327 -17.921 -21.032  0.00  0.00    -0.000 C 
ATOM     30  C   UNL     1      34.623 -18.447 -23.680  0.00  0.00    +0.000 C 
ATOM     31  C   UNL     1      35.465 -16.928 -22.001  0.00  0.00    +0.000 C 
ATOM     32  C   UNL     1      35.113 -17.190 -23.324  0.00  0.00    +0.000 C 
ENDBRANCH  24  27
ENDBRANCH  20  21
ENDBRANCH   1  20
TORSDOF 13
ENDMDL
MODEL 2
REMARK VINA RESULT:     -11.0      0.929      1.383
REMARK  Name = 9811834
REMARK  13 active torsions:
REMARK  status: ('A' for Active; 'I' for Inactive)
REMARK    1  A    between atoms: C_1  and  N_3
REMARK    2  A    between atoms: C_1  and  C_12
REMARK    3  A    between atoms: C_1  and  C_20
REMARK    4  A    between atoms: C_4  and  C_6
REMARK    5  A    between atoms: C_6  and  C_7
REMARK    6  A    between atoms: C_7  and  C_9
REMARK    7  A    between atoms: C_9  and  O_10
REMARK    8  A    between atoms: C_12  and  C_13
REMARK    9  A    between atoms: C_13  and  C_16
REMARK   10  A    between atoms: C_16  and  O_17
REMARK   11  A    between atoms: O_17  and  C_18
REMARK   12  A    between atoms: C_20  and  C_21
REMARK   13  A    between atoms: C_24  and  C_27
REMARK                            x       y       z     vdW  Elec       q    Type
REMARK                         _______ _______ _______ _____ _____    ______ ____
ROOT
ATOM      1  C   UNL     1      33.597 -22.717 -16.093  0.00  0.00    +0.076 C 
ENDROOT
BRANCH   1   3
ATOM      2  O   UNL     1      30.819 -22.259 -16.761  0.00  0.00    -0.275 OA
ATOM      3  N   UNL     1      32.452 -23.476 -15.643  0.00  0.00    -0.306 N 
ATOM      4  C   UNL     1      31.152 -23.179 -16.019  0.00  0.00    +0.223 C 
ATOM      5  H   UNL     1      32.604 -24.240 -15.040  0.00  0.00    +0.149 HD
BRANCH   4   6
ATOM      6  C   UNL     1      30.158 -24.142 -15.394  0.00  0.00    +0.097 C 
BRANCH   6   7
ATOM      7  C   UNL     1      28.808 -23.487 -15.118  0.00  0.00    +0.119 C 
BRANCH   7   9
ATOM      8  O   UNL     1      27.576 -24.182 -17.100  0.00  0.00    -0.250 OA
ATOM      9  C   UNL     1      28.008 -23.288 -16.386  0.00  0.00    +0.314 C 
BRANCH   9  10
ATOM     10  O   UNL     1      27.813 -21.969 -16.647  0.00  0.00    -0.480 OA
ATOM     11  H   UNL     1      27.078 -21.521 -16.277  0.00  0.00    +0.295 HD
ENDBRANCH   9  10
ENDBRANCH   7   9
ENDBRANCH   6   7
ENDBRANCH   4   6
ENDBRANCH   1   3
BRANCH   1  12
ATOM     12  C   UNL     1      34.720 -22.750 -15.038  0.00  0.00    +0.031 C 
BRANCH  12  13
ATOM     13  C   UNL     1      35.928 -23.618 -15.432  0.00  0.00    +0.101 C 
ATOM     14  C   UNL     1      37.239 -22.864 -15.208  0.00  0.00    +0.012 C 
BRANCH  13  16
ATOM     15  O   UNL     1      36.464 -25.945 -14.984  0.00  0.00    -0.250 OA
ATOM     16  C   UNL     1      35.953 -24.897 -14.612  0.00  0.00    +0.316 C 
BRANCH  16  17
ATOM     17  O   UNL     1      35.340 -24.686 -13.411  0.00  0.00    -0.449 OA
BRANCH  17  18
ATOM     18  C   UNL     1      36.169 -24.864 -12.258  0.00  0.00    +0.209 C 
ATOM     19  C   UNL     1      36.329 -23.532 -11.556  0.00  0.00    +0.051 C 
ENDBRANCH  17  18
ENDBRANCH  16  17
ENDBRANCH  13  16
ENDBRANCH  12  13
ENDBRANCH   1  12
BRANCH   1  20
ATOM     20  C   UNL     1      34.115 -23.262 -17.437  0.00  0.00    +0.046 C 
BRANCH  20  21
ATOM     21  C   UNL     1      34.294 -22.186 -18.482  0.00  0.00    -0.021 C 
ATOM     22  C   UNL     1      33.178 -21.557 -19.033  0.00  0.00    -0.004 C 
ATOM     23  C   UNL     1      35.575 -21.822 -18.895  0.00  0.00    -0.004 C 
ATOM     24  C   UNL     1      34.624 -20.200 -20.413  0.00  0.00    -0.000 C 
ATOM     25  C   UNL     1      33.343 -20.564 -19.999  0.00  0.00    -0.000 C 
ATOM     26  C   UNL     1      35.740 -20.829 -19.861  0.00  0.00    -0.000 C 
BRANCH  24  27
ATOM     27  C   UNL     1      34.795 -19.170 -21.415  0.00  0.00    -0.000 C 
ATOM     28  C   UNL     1      35.289 -17.918 -21.049  0.00  0.00    -0.000 C 
ATOM     29  C   UNL     1      34.469 -19.430 -22.746  0.00  0.00    -0.000 C 
ATOM     30  C   UNL     1      35.455 -16.925 -22.014  0.00  0.00    +0.000 C 
ATOM     31  C   UNL     1      34.635 -18.437 -23.711  0.00  0.00    +0.000 C 
ATOM     32  C   UNL     1      35.128 -17.185 -23.345  0.00  0.00    +0.000 C 
ENDBRANCH  24  27
ENDBRANCH  20  21
ENDBRANCH   1  20
TORSDOF 13
ENDMDL
MODEL 3
REMARK VINA RESULT:     -10.8      1.387      2.350
REMARK  Name = 9811834
REMARK  13 active torsions:
REMARK  status: ('A' for Active; 'I' for Inactive)
REMARK    1  A    between atoms: C_1  and  N_3
REMARK    2  A    between atoms: C_1  and  C_12
REMARK    3  A    between atoms: C_1  and  C_20
REMARK    4  A    between atoms: C_4  and  C_6
REMARK    5  A    between atoms: C_6  and  C_7
REMARK    6  A    between atoms: C_7  and  C_9
REMARK    7  A    between atoms: C_9  and  O_10
REMARK    8  A    between atoms: C_12  and  C_13
REMARK    9  A    between atoms: C_13  and  C_16
REMARK   10  A    between atoms: C_16  and  O_17
REMARK   11  A    between atoms: O_17  and  C_18
REMARK   12  A    between atoms: C_20  and  C_21
REMARK   13  A    between atoms: C_24  and  C_27
REMARK                            x       y       z     vdW  Elec       q    Type
REMARK                         _______ _______ _______ _____ _____    ______ ____
ROOT
ATOM      1  C   UNL     1      33.301 -22.757 -16.010  0.00  0.00    +0.076 C 
ENDROOT
BRANCH   1   3
ATOM      2  O   UNL     1      30.503 -22.403 -16.657  0.00  0.00    -0.275 OA
ATOM      3  N   UNL     1      32.180 -23.505 -15.486  0.00  0.00    -0.306 N 
ATOM      4  C   UNL     1      30.867 -23.262 -15.858  0.00  0.00    +0.223 C 
ATOM      5  H   UNL     1      32.358 -24.222 -14.833  0.00  0.00    +0.149 HD
BRANCH   4   6
ATOM      6  C   UNL     1      29.905 -24.197 -15.147  0.00  0.00    +0.097 C 
BRANCH   6   7
ATOM      7  C   UNL     1      30.626 -25.287 -14.361  0.00  0.00    +0.119 C 
BRANCH   7   9
ATOM      8  O   UNL     1      30.807 -23.868 -12.391  0.00  0.00    -0.250 OA
ATOM      9  C   UNL     1      31.271 -24.746 -13.106  0.00  0.00    +0.314 C 
BRANCH   9  10
ATOM     10  O   UNL     1      32.454 -25.363 -12.851  0.00  0.00    -0.480 OA
ATOM     11  H   UNL     1      32.557 -26.275 -13.039  0.00  0.00    +0.295 HD
ENDBRANCH   9  10
ENDBRANCH   7   9
ENDBRANCH   6   7
ENDBRANCH   4   6
ENDBRANCH   1   3
BRANCH   1  12
ATOM     12  C   UNL     1      34.475 -22.767 -15.012  0.00  0.00    +0.031 C 
BRANCH  12  13
ATOM     13  C   UNL     1      35.658 -23.653 -15.441  0.00  0.00    +0.101 C 
ATOM     14  C   UNL     1      36.968 -22.864 -15.415  0.00  0.00    +0.012 C 
BRANCH  13  16
ATOM     15  O   UNL     1      35.318 -24.906 -13.388  0.00  0.00    -0.250 OA
ATOM     16  C   UNL     1      35.790 -24.850 -14.516  0.00  0.00    +0.316 C 
BRANCH  16  17
ATOM     17  O   UNL     1      36.490 -25.841 -15.141  0.00  0.00    -0.449 OA
BRANCH  17  18
ATOM     18  C   UNL     1      37.311 -26.646 -14.290  0.00  0.00    +0.209 C 
ATOM     19  C   UNL     1      38.688 -26.023 -14.200  0.00  0.00    +0.051 C 
ENDBRANCH  17  18
ENDBRANCH  16  17
ENDBRANCH  13  16
ENDBRANCH  12  13
ENDBRANCH   1  12
BRANCH   1  20
ATOM     20  C   UNL     1      33.751 -23.333 -17.365  0.00  0.00    +0.046 C 
BRANCH  20  21
ATOM     21  C   UNL     1      34.013 -22.267 -18.402  0.00  0.00    -0.021 C 
ATOM     22  C   UNL     1      35.324 -21.959 -18.769  0.00  0.00    -0.004 C 
ATOM     23  C   UNL     1      32.947 -21.591 -18.994  0.00  0.00    -0.004 C 
ATOM     24  C   UNL     1      34.500 -20.299 -20.318  0.00  0.00    -0.000 C 
ATOM     25  C   UNL     1      35.567 -20.975 -19.727  0.00  0.00    -0.000 C 
ATOM     26  C   UNL     1      33.190 -20.607 -19.951  0.00  0.00    -0.000 C 
BRANCH  24  27
ATOM     27  C   UNL     1      34.752 -19.277 -21.311  0.00  0.00    -0.000 C 
ATOM     28  C   UNL     1      35.325 -18.063 -20.932  0.00  0.00    -0.000 C 
ATOM     29  C   UNL     1      34.423 -19.506 -22.647  0.00  0.00    -0.000 C 
ATOM     30  C   UNL     1      35.569 -17.078 -21.888  0.00  0.00    +0.000 C 
ATOM     31  C   UNL     1      34.666 -18.521 -23.604  0.00  0.00    +0.000 C 
ATOM     32  C   UNL     1      35.240 -17.307 -23.225  0.00  0.00    +0.000 C 
ENDBRANCH  24  27
ENDBRANCH  20  21
ENDBRANCH   1  20
TORSDOF 13
ENDMDL
MODEL 4
REMARK VINA RESULT:      -9.7      1.477      2.030
REMARK  Name = 9811834
REMARK  13 active torsions:
REMARK  status: ('A' for Active; 'I' for Inactive)
REMARK    1  A    between atoms: C_1  and  N_3
REMARK    2  A    between atoms: C_1  and  C_12
REMARK    3  A    between atoms: C_1  and  C_20
REMARK    4  A    between atoms: C_4  and  C_6
REMARK    5  A    between atoms: C_6  and  C_7
REMARK    6  A    between atoms: C_7  and  C_9
REMARK    7  A    between atoms: C_9  and  O_10
REMARK    8  A    between atoms: C_12  and  C_13
REMARK    9  A    between atoms: C_13  and  C_16
REMARK   10  A    between atoms: C_16  and  O_17
REMARK   11  A    between atoms: O_17  and  C_18
REMARK   12  A    between atoms: C_20  and  C_21
REMARK   13  A    between atoms: C_24  and  C_27
REMARK                            x       y       z     vdW  Elec       q    Type
REMARK                         _______ _______ _______ _____ _____    ______ ____
ROOT
ATOM      1  C   UNL     1      33.913 -22.770 -16.279  0.00  0.00    +0.076 C 
ENDROOT
BRANCH   1   3
ATOM      2  O   UNL     1      31.729 -22.074 -14.512  0.00  0.00    -0.275 OA
ATOM      3  N   UNL     1      32.591 -23.356 -16.248  0.00  0.00    -0.306 N 
ATOM      4  C   UNL     1      31.606 -22.954 -15.360  0.00  0.00    +0.223 C 
ATOM      5  H   UNL     1      32.382 -24.075 -16.888  0.00  0.00    +0.149 HD
BRANCH   4   6
ATOM      6  C   UNL     1      30.324 -23.745 -15.556  0.00  0.00    +0.097 C 
BRANCH   6   7
ATOM      7  C   UNL     1      30.442 -25.179 -15.050  0.00  0.00    +0.119 C 
BRANCH   7   9
ATOM      8  O   UNL     1      30.683 -25.209 -12.628  0.00  0.00    -0.250 OA
ATOM      9  C   UNL     1      29.974 -25.314 -13.619  0.00  0.00    +0.314 C 
BRANCH   9  10
ATOM     10  O   UNL     1      28.641 -25.567 -13.556  0.00  0.00    -0.480 OA
ATOM     11  H   UNL     1      28.295 -26.087 -12.856  0.00  0.00    +0.295 HD
ENDBRANCH   9  10
ENDBRANCH   7   9
ENDBRANCH   6   7
ENDBRANCH   4   6
ENDBRANCH   1   3
BRANCH   1  12
ATOM     12  C   UNL     1      34.718 -23.180 -15.031  0.00  0.00    +0.031 C 
BRANCH  12  13
ATOM     13  C   UNL     1      36.150 -23.654 -15.333  0.00  0.00    +0.101 C 
ATOM     14  C   UNL     1      37.180 -22.657 -14.802  0.00  0.00    +0.012 C 
BRANCH  13  16
ATOM     15  O   UNL     1      35.907 -26.058 -15.079  0.00  0.00    -0.250 OA
ATOM     16  C   UNL     1      36.407 -25.009 -14.696  0.00  0.00    +0.316 C 
BRANCH  16  17
ATOM     17  O   UNL     1      37.281 -24.871 -13.657  0.00  0.00    -0.449 OA
BRANCH  17  18
ATOM     18  C   UNL     1      37.026 -25.704 -12.522  0.00  0.00    +0.209 C 
ATOM     19  C   UNL     1      36.187 -24.934 -11.524  0.00  0.00    +0.051 C 
ENDBRANCH  17  18
ENDBRANCH  16  17
ENDBRANCH  13  16
ENDBRANCH  12  13
ENDBRANCH   1  12
BRANCH   1  20
ATOM     20  C   UNL     1      34.663 -23.192 -17.556  0.00  0.00    +0.046 C 
BRANCH  20  21
ATOM     21  C   UNL     1      34.729 -22.095 -18.592  0.00  0.00    -0.021 C 
ATOM     22  C   UNL     1      35.965 -21.584 -18.989  0.00  0.00    -0.004 C 
ATOM     23  C   UNL     1      33.555 -21.592 -19.152  0.00  0.00    -0.004 C 
ATOM     24  C   UNL     1      34.852 -20.068 -20.506  0.00  0.00    -0.000 C 
ATOM     25  C   UNL     1      36.026 -20.571 -19.946  0.00  0.00    -0.000 C 
ATOM     26  C   UNL     1      33.616 -20.579 -20.109  0.00  0.00    -0.000 C 
BRANCH  24  27
ATOM     27  C   UNL     1      34.916 -19.017 -21.498  0.00  0.00    -0.000 C 
ATOM     28  C   UNL     1      34.570 -19.286 -22.822  0.00  0.00    -0.000 C 
ATOM     29  C   UNL     1      35.322 -17.734 -21.130  0.00  0.00    -0.000 C 
ATOM     30  C   UNL     1      34.630 -18.274 -23.778  0.00  0.00    +0.000 C 
ATOM     31  C   UNL     1      35.382 -16.721 -22.086  0.00  0.00    +0.000 C 
ATOM     32  C   UNL     1      35.036 -16.991 -23.410  0.00  0.00    +0.000 C 
ENDBRANCH  24  27
ENDBRANCH  20  21
ENDBRANCH   1  20
TORSDOF 13
ENDMDL
MODEL 5
REMARK VINA RESULT:      -9.4      2.761      5.938
REMARK  Name = 9811834
REMARK  13 active torsions:
REMARK  status: ('A' for Active; 'I' for Inactive)
REMARK    1  A    between atoms: C_1  and  N_3
REMARK    2  A    between atoms: C_1  and  C_12
REMARK    3  A    between atoms: C_1  and  C_20
REMARK    4  A    between atoms: C_4  and  C_6
REMARK    5  A    between atoms: C_6  and  C_7
REMARK    6  A    between atoms: C_7  and  C_9
REMARK    7  A    between atoms: C_9  and  O_10
REMARK    8  A    between atoms: C_12  and  C_13
REMARK    9  A    between atoms: C_13  and  C_16
REMARK   10  A    between atoms: C_16  and  O_17
REMARK   11  A    between atoms: O_17  and  C_18
REMARK   12  A    between atoms: C_20  and  C_21
REMARK   13  A    between atoms: C_24  and  C_27
REMARK                            x       y       z     vdW  Elec       q    Type
REMARK                         _______ _______ _______ _____ _____    ______ ____
ROOT
ATOM      1  C   UNL     1      35.982 -24.356 -15.374  0.00  0.00    +0.076 C 
ENDROOT
BRANCH   1   3
ATOM      2  O   UNL     1      36.822 -27.105 -15.706  0.00  0.00    -0.275 OA
ATOM      3  N   UNL     1      36.833 -25.123 -14.493  0.00  0.00    -0.306 N 
ATOM      4  C   UNL     1      37.182 -26.442 -14.737  0.00  0.00    +0.223 C 
ATOM      5  H   UNL     1      37.181 -24.688 -13.680  0.00  0.00    +0.149 HD
BRANCH   4   6
ATOM      6  C   UNL     1      38.082 -26.992 -13.644  0.00  0.00    +0.097 C 
BRANCH   6   7
ATOM      7  C   UNL     1      39.004 -25.927 -13.058  0.00  0.00    +0.119 C 
BRANCH   7   9
ATOM      8  O   UNL     1      40.813 -24.719 -14.150  0.00  0.00    -0.250 OA
ATOM      9  C   UNL     1      40.277 -25.780 -13.859  0.00  0.00    +0.314 C 
BRANCH   9  10
ATOM     10  O   UNL     1      40.776 -26.989 -14.224  0.00  0.00    -0.480 OA
ATOM     11  H   UNL     1      40.219 -27.620 -14.638  0.00  0.00    +0.295 HD
ENDBRANCH   9  10
ENDBRANCH   7   9
ENDBRANCH   6   7
ENDBRANCH   4   6
ENDBRANCH   1   3
BRANCH   1  12
ATOM     12  C   UNL     1      34.496 -24.621 -15.061  0.00  0.00    +0.031 C 
BRANCH  12  13
ATOM     13  C   UNL     1      33.847 -23.564 -14.152  0.00  0.00    +0.101 C 
ATOM     14  C   UNL     1      32.546 -23.043 -14.763  0.00  0.00    +0.012 C 
BRANCH  13  16
ATOM     15  O   UNL     1      32.597 -24.890 -12.545  0.00  0.00    -0.250 OA
ATOM     16  C   UNL     1      33.544 -24.152 -12.784  0.00  0.00    +0.316 C 
BRANCH  16  17
ATOM     17  O   UNL     1      34.489 -23.745 -11.888  0.00  0.00    -0.449 OA
BRANCH  17  18
ATOM     18  C   UNL     1      35.318 -24.782 -11.354  0.00  0.00    +0.209 C 
ATOM     19  C   UNL     1      36.577 -24.163 -10.785  0.00  0.00    +0.051 C 
ENDBRANCH  17  18
ENDBRANCH  16  17
ENDBRANCH  13  16
ENDBRANCH  12  13
ENDBRANCH   1  12
BRANCH   1  20
ATOM     20  C   UNL     1      36.290 -22.853 -15.252  0.00  0.00    +0.046 C 
BRANCH  20  21
ATOM     21  C   UNL     1      36.188 -22.119 -16.568  0.00  0.00    -0.021 C 
ATOM     22  C   UNL     1      37.114 -21.125 -16.886  0.00  0.00    -0.004 C 
ATOM     23  C   UNL     1      35.169 -22.436 -17.466  0.00  0.00    -0.004 C 
ATOM     24  C   UNL     1      36.000 -20.763 -18.999  0.00  0.00    -0.000 C 
ATOM     25  C   UNL     1      37.019 -20.447 -18.101  0.00  0.00    -0.000 C 
ATOM     26  C   UNL     1      35.075 -21.758 -18.681  0.00  0.00    -0.000 C 
BRANCH  24  27
ATOM     27  C   UNL     1      35.902 -20.060 -20.259  0.00  0.00    -0.000 C 
ATOM     28  C   UNL     1      36.916 -19.185 -20.650  0.00  0.00    -0.000 C 
ATOM     29  C   UNL     1      34.795 -20.257 -21.084  0.00  0.00    -0.000 C 
ATOM     30  C   UNL     1      36.823 -18.507 -21.865  0.00  0.00    +0.000 C 
ATOM     31  C   UNL     1      34.701 -19.579 -22.299  0.00  0.00    +0.000 C 
ATOM     32  C   UNL     1      35.715 -18.704 -22.690  0.00  0.00    +0.000 C 
ENDBRANCH  24  27
ENDBRANCH  20  21
ENDBRANCH   1  20
TORSDOF 13
ENDMDL
MODEL 6
REMARK VINA RESULT:      -9.2      2.694      8.313
REMARK  Name = 9811834
REMARK  13 active torsions:
REMARK  status: ('A' for Active; 'I' for Inactive)
REMARK    1  A    between atoms: C_1  and  N_3
REMARK    2  A    between atoms: C_1  and  C_12
REMARK    3  A    between atoms: C_1  and  C_20
REMARK    4  A    between atoms: C_4  and  C_6
REMARK    5  A    between atoms: C_6  and  C_7
REMARK    6  A    between atoms: C_7  and  C_9
REMARK    7  A    between atoms: C_9  and  O_10
REMARK    8  A    between atoms: C_12  and  C_13
REMARK    9  A    between atoms: C_13  and  C_16
REMARK   10  A    between atoms: C_16  and  O_17
REMARK   11  A    between atoms: O_17  and  C_18
REMARK   12  A    between atoms: C_20  and  C_21
REMARK   13  A    between atoms: C_24  and  C_27
REMARK                            x       y       z     vdW  Elec       q    Type
REMARK                         _______ _______ _______ _____ _____    ______ ____
ROOT
ATOM      1  C   UNL     1      35.055 -24.092 -13.696  0.00  0.00    +0.076 C 
ENDROOT
BRANCH   1   3
ATOM      2  O   UNL     1      37.629 -23.060 -12.869  0.00  0.00    -0.275 OA
ATOM      3  N   UNL     1      36.237 -24.855 -13.362  0.00  0.00    -0.306 N 
ATOM      4  C   UNL     1      37.431 -24.268 -12.974  0.00  0.00    +0.223 C 
ATOM      5  H   UNL     1      36.191 -25.837 -13.412  0.00  0.00    +0.149 HD
BRANCH   4   6
ATOM      6  C   UNL     1      38.497 -25.311 -12.687  0.00  0.00    +0.097 C 
BRANCH   6   7
ATOM      7  C   UNL     1      38.938 -26.053 -13.945  0.00  0.00    +0.119 C 
BRANCH   7   9
ATOM      8  O   UNL     1      40.994 -24.751 -13.886  0.00  0.00    -0.250 OA
ATOM      9  C   UNL     1      40.267 -25.549 -14.461  0.00  0.00    +0.314 C 
BRANCH   9  10
ATOM     10  O   UNL     1      40.573 -26.100 -15.664  0.00  0.00    -0.480 OA
ATOM     11  H   UNL     1      40.466 -27.022 -15.798  0.00  0.00    +0.295 HD
ENDBRANCH   9  10
ENDBRANCH   7   9
ENDBRANCH   6   7
ENDBRANCH   4   6
ENDBRANCH   1   3
BRANCH   1  12
ATOM     12  C   UNL     1      34.797 -24.129 -15.215  0.00  0.00    +0.031 C 
BRANCH  12  13
ATOM     13  C   UNL     1      34.998 -22.776 -15.921  0.00  0.00    +0.101 C 
ATOM     14  C   UNL     1      36.481 -22.505 -16.169  0.00  0.00    +0.012 C 
BRANCH  13  16
ATOM     15  O   UNL     1      33.075 -22.996 -17.389  0.00  0.00    -0.250 OA
ATOM     16  C   UNL     1      34.267 -22.758 -17.253  0.00  0.00    +0.316 C 
BRANCH  16  17
ATOM     17  O   UNL     1      35.137 -22.422 -18.250  0.00  0.00    -0.449 OA
BRANCH  17  18
ATOM     18  C   UNL     1      34.633 -21.499 -19.221  0.00  0.00    +0.209 C 
ATOM     19  C   UNL     1      35.799 -20.840 -19.926  0.00  0.00    +0.051 C 
ENDBRANCH  17  18
ENDBRANCH  16  17
ENDBRANCH  13  16
ENDBRANCH  12  13
ENDBRANCH   1  12
BRANCH   1  20
ATOM     20  C   UNL     1      33.829 -24.631 -12.937  0.00  0.00    +0.046 C 
BRANCH  20  21
ATOM     21  C   UNL     1      32.518 -24.207 -13.554  0.00  0.00    -0.021 C 
ATOM     22  C   UNL     1      32.280 -22.860 -13.830  0.00  0.00    -0.004 C 
ATOM     23  C   UNL     1      31.544 -25.161 -13.847  0.00  0.00    -0.004 C 
ATOM     24  C   UNL     1      30.095 -23.423 -14.693  0.00  0.00    -0.000 C 
ATOM     25  C   UNL     1      31.068 -22.469 -14.400  0.00  0.00    -0.000 C 
ATOM     26  C   UNL     1      30.332 -24.769 -14.417  0.00  0.00    -0.000 C 
BRANCH  24  27
ATOM     27  C   UNL     1      28.838 -23.016 -15.283  0.00  0.00    -0.000 C 
ATOM     28  C   UNL     1      27.837 -22.469 -14.482  0.00  0.00    -0.000 C 
ATOM     29  C   UNL     1      28.628 -23.171 -16.654  0.00  0.00    -0.000 C 
ATOM     30  C   UNL     1      26.625 -22.076 -15.049  0.00  0.00    +0.000 C 
ATOM     31  C   UNL     1      27.416 -22.779 -17.222  0.00  0.00    +0.000 C 
ATOM     32  C   UNL     1      26.415 -22.231 -16.420  0.00  0.00    +0.000 C 
ENDBRANCH  24  27
ENDBRANCH  20  21
ENDBRANCH   1  20
TORSDOF 13
ENDMDL
MODEL 7
REMARK VINA RESULT:      -9.2      8.761     13.186
REMARK  Name = 9811834
REMARK  13 active torsions:
REMARK  status: ('A' for Active; 'I' for Inactive)
REMARK    1  A    between atoms: C_1  and  N_3
REMARK    2  A    between atoms: C_1  and  C_12
REMARK    3  A    between atoms: C_1  and  C_20
REMARK    4  A    between atoms: C_4  and  C_6
REMARK    5  A    between atoms: C_6  and  C_7
REMARK    6  A    between atoms: C_7  and  C_9
REMARK    7  A    between atoms: C_9  and  O_10
REMARK    8  A    between atoms: C_12  and  C_13
REMARK    9  A    between atoms: C_13  and  C_16
REMARK   10  A    between atoms: C_16  and  O_17
REMARK   11  A    between atoms: O_17  and  C_18
REMARK   12  A    between atoms: C_20  and  C_21
REMARK   13  A    between atoms: C_24  and  C_27
REMARK                            x       y       z     vdW  Elec       q    Type
REMARK                         _______ _______ _______ _____ _____    ______ ____
ROOT
ATOM      1  C   UNL     1      33.381 -13.077 -23.222  0.00  0.00    +0.076 C 
ENDROOT
BRANCH   1   3
ATOM      2  O   UNL     1      33.084 -14.807 -25.523  0.00  0.00    -0.275 OA
ATOM      3  N   UNL     1      33.953 -14.392 -23.408  0.00  0.00    -0.306 N 
ATOM      4  C   UNL     1      33.753 -15.149 -24.551  0.00  0.00    +0.223 C 
ATOM      5  H   UNL     1      34.510 -14.767 -22.688  0.00  0.00    +0.149 HD
BRANCH   4   6
ATOM      6  C   UNL     1      34.470 -16.485 -24.467  0.00  0.00    +0.097 C 
BRANCH   6   7
ATOM      7  C   UNL     1      35.073 -16.737 -23.088  0.00  0.00    +0.119 C 
BRANCH   7   9
ATOM      8  O   UNL     1      34.623 -19.129 -23.125  0.00  0.00    -0.250 OA
ATOM      9  C   UNL     1      35.375 -18.200 -22.863  0.00  0.00    +0.314 C 
BRANCH   9  10
ATOM     10  O   UNL     1      36.612 -18.374 -22.328  0.00  0.00    -0.480 OA
ATOM     11  H   UNL     1      37.315 -18.684 -22.864  0.00  0.00    +0.295 HD
ENDBRANCH   9  10
ENDBRANCH   7   9
ENDBRANCH   6   7
ENDBRANCH   4   6
ENDBRANCH   1   3
BRANCH   1  12
ATOM     12  C   UNL     1      33.352 -12.703 -21.727  0.00  0.00    +0.031 C 
BRANCH  12  13
ATOM     13  C   UNL     1      32.042 -13.074 -21.011  0.00  0.00    +0.101 C 
ATOM     14  C   UNL     1      32.299 -14.080 -19.889  0.00  0.00    +0.012 C 
BRANCH  13  16
ATOM     15  O   UNL     1      30.423 -11.266 -20.905  0.00  0.00    -0.250 OA
ATOM     16  C   UNL     1      31.391 -11.837 -20.419  0.00  0.00    +0.316 C 
BRANCH  16  17
ATOM     17  O   UNL     1      32.036 -11.481 -19.270  0.00  0.00    -0.449 OA
BRANCH  17  18
ATOM     18  C   UNL     1      31.588 -10.265 -18.663  0.00  0.00    +0.209 C 
ATOM     19  C   UNL     1      32.315  -9.100 -19.300  0.00  0.00    +0.051 C 
ENDBRANCH  17  18
ENDBRANCH  16  17
ENDBRANCH  13  16
ENDBRANCH  12  13
ENDBRANCH   1  12
BRANCH   1  20
ATOM     20  C   UNL     1      34.175 -12.024 -24.017  0.00  0.00    +0.046 C 
BRANCH  20  21
ATOM     21  C   UNL     1      33.759 -10.607 -23.701  0.00  0.00    -0.021 C 
ATOM     22  C   UNL     1      32.405 -10.275 -23.641  0.00  0.00    -0.004 C 
ATOM     23  C   UNL     1      34.727  -9.631 -23.469  0.00  0.00    -0.004 C 
ATOM     24  C   UNL     1      32.988  -7.990 -23.117  0.00  0.00    -0.000 C 
ATOM     25  C   UNL     1      32.020  -8.966 -23.349  0.00  0.00    -0.000 C 
ATOM     26  C   UNL     1      34.342  -8.322 -23.177  0.00  0.00    -0.000 C 
BRANCH  24  27
ATOM     27  C   UNL     1      32.590  -6.632 -22.815  0.00  0.00    -0.000 C 
ATOM     28  C   UNL     1      32.453  -5.701 -23.845  0.00  0.00    -0.000 C 
ATOM     29  C   UNL     1      32.341  -6.255 -21.496  0.00  0.00    -0.000 C 
ATOM     30  C   UNL     1      32.068  -4.393 -23.555  0.00  0.00    +0.000 C 
ATOM     31  C   UNL     1      31.957  -4.946 -21.206  0.00  0.00    +0.000 C 
ATOM     32  C   UNL     1      31.819  -4.015 -22.236  0.00  0.00    +0.000 C 
ENDBRANCH  24  27
ENDBRANCH  20  21
ENDBRANCH   1  20
TORSDOF 13
ENDMDL
MODEL 8
REMARK VINA RESULT:      -9.1      1.948      6.344
REMARK  Name = 9811834
REMARK  13 active torsions:
REMARK  status: ('A' for Active; 'I' for Inactive)
REMARK    1  A    between atoms: C_1  and  N_3
REMARK    2  A    between atoms: C_1  and  C_12
REMARK    3  A    between atoms: C_1  and  C_20
REMARK    4  A    between atoms: C_4  and  C_6
REMARK    5  A    between atoms: C_6  and  C_7
REMARK    6  A    between atoms: C_7  and  C_9
REMARK    7  A    between atoms: C_9  and  O_10
REMARK    8  A    between atoms: C_12  and  C_13
REMARK    9  A    between atoms: C_13  and  C_16
REMARK   10  A    between atoms: C_16  and  O_17
REMARK   11  A    between atoms: O_17  and  C_18
REMARK   12  A    between atoms: C_20  and  C_21
REMARK   13  A    between atoms: C_24  and  C_27
REMARK                            x       y       z     vdW  Elec       q    Type
REMARK                         _______ _______ _______ _____ _____    ______ ____
ROOT
ATOM      1  C   UNL     1      33.980 -24.064 -13.808  0.00  0.00    +0.076 C 
ENDROOT
BRANCH   1   3
ATOM      2  O   UNL     1      34.925 -24.994 -11.236  0.00  0.00    -0.275 OA
ATOM      3  N   UNL     1      34.947 -23.422 -12.946  0.00  0.00    -0.306 N 
ATOM      4  C   UNL     1      35.340 -23.947 -11.725  0.00  0.00    +0.223 C 
ATOM      5  H   UNL     1      35.346 -22.571 -13.241  0.00  0.00    +0.149 HD
BRANCH   4   6
ATOM      6  C   UNL     1      36.363 -23.059 -11.040  0.00  0.00    +0.097 C 
BRANCH   6   7
ATOM      7  C   UNL     1      37.753 -23.192 -11.654  0.00  0.00    +0.119 C 
BRANCH   7   9
ATOM      8  O   UNL     1      38.216 -24.845 -13.381  0.00  0.00    -0.250 OA
ATOM      9  C   UNL     1      37.996 -24.578 -12.207  0.00  0.00    +0.314 C 
BRANCH   9  10
ATOM     10  O   UNL     1      37.947 -25.518 -11.228  0.00  0.00    -0.480 OA
ATOM     11  H   UNL     1      37.228 -25.531 -10.627  0.00  0.00    +0.295 HD
ENDBRANCH   9  10
ENDBRANCH   7   9
ENDBRANCH   6   7
ENDBRANCH   4   6
ENDBRANCH   1   3
BRANCH   1  12
ATOM     12  C   UNL     1      32.896 -23.061 -14.249  0.00  0.00    +0.031 C 
BRANCH  12  13
ATOM     13  C   UNL     1      31.509 -23.690 -14.469  0.00  0.00    +0.101 C 
ATOM     14  C   UNL     1      30.722 -23.747 -13.159  0.00  0.00    +0.012 C 
BRANCH  13  16
ATOM     15  O   UNL     1      31.145 -22.528 -16.571  0.00  0.00    -0.250 OA
ATOM     16  C   UNL     1      30.714 -22.885 -15.482  0.00  0.00    +0.316 C 
BRANCH  16  17
ATOM     17  O   UNL     1      29.461 -22.644 -14.999  0.00  0.00    -0.449 OA
BRANCH  17  18
ATOM     18  C   UNL     1      28.414 -22.645 -15.974  0.00  0.00    +0.209 C 
ATOM     19  C   UNL     1      28.139 -24.072 -16.400  0.00  0.00    +0.051 C 
ENDBRANCH  17  18
ENDBRANCH  16  17
ENDBRANCH  13  16
ENDBRANCH  12  13
ENDBRANCH   1  12
BRANCH   1  20
ATOM     20  C   UNL     1      34.672 -24.675 -15.040  0.00  0.00    +0.046 C 
BRANCH  20  21
ATOM     21  C   UNL     1      34.881 -23.678 -16.155  0.00  0.00    -0.021 C 
ATOM     22  C   UNL     1      33.977 -23.620 -17.217  0.00  0.00    -0.004 C 
ATOM     23  C   UNL     1      35.976 -22.816 -16.125  0.00  0.00    -0.004 C 
ATOM     24  C   UNL     1      35.266 -21.838 -18.217  0.00  0.00    -0.000 C 
ATOM     25  C   UNL     1      34.170 -22.701 -18.248  0.00  0.00    -0.000 C 
ATOM     26  C   UNL     1      36.169 -21.896 -17.155  0.00  0.00    -0.000 C 
BRANCH  24  27
ATOM     27  C   UNL     1      35.466 -20.885 -19.286  0.00  0.00    -0.000 C 
ATOM     28  C   UNL     1      34.395 -20.514 -20.099  0.00  0.00    -0.000 C 
ATOM     29  C   UNL     1      36.730 -20.335 -19.504  0.00  0.00    -0.000 C 
ATOM     30  C   UNL     1      34.587 -19.594 -21.129  0.00  0.00    +0.000 C 
ATOM     31  C   UNL     1      36.922 -19.416 -20.534  0.00  0.00    +0.000 C 
ATOM     32  C   UNL     1      35.851 -19.045 -21.347  0.00  0.00    +0.000 C 
ENDBRANCH  24  27
ENDBRANCH  20  21
ENDBRANCH   1  20
TORSDOF 13
ENDMDL
MODEL 9
REMARK VINA RESULT:      -9.0      1.363      6.274
REMARK  Name = 9811834
REMARK  13 active torsions:
REMARK  status: ('A' for Active; 'I' for Inactive)
REMARK    1  A    between atoms: C_1  and  N_3
REMARK    2  A    between atoms: C_1  and  C_12
REMARK    3  A    between atoms: C_1  and  C_20
REMARK    4  A    between atoms: C_4  and  C_6
REMARK    5  A    between atoms: C_6  and  C_7
REMARK    6  A    between atoms: C_7  and  C_9
REMARK    7  A    between atoms: C_9  and  O_10
REMARK    8  A    between atoms: C_12  and  C_13
REMARK    9  A    between atoms: C_13  and  C_16
REMARK   10  A    between atoms: C_16  and  O_17
REMARK   11  A    between atoms: O_17  and  C_18
REMARK   12  A    between atoms: C_20  and  C_21
REMARK   13  A    between atoms: C_24  and  C_27
REMARK                            x       y       z     vdW  Elec       q    Type
REMARK                         _______ _______ _______ _____ _____    ______ ____
ROOT
ATOM      1  C   UNL     1      33.008 -23.584 -15.514  0.00  0.00    +0.076 C 
ENDROOT
BRANCH   1   3
ATOM      2  O   UNL     1      35.177 -24.295 -13.735  0.00  0.00    -0.275 OA
ATOM      3  N   UNL     1      34.263 -22.887 -15.341  0.00  0.00    -0.306 N 
ATOM      4  C   UNL     1      35.246 -23.306 -14.460  0.00  0.00    +0.223 C 
ATOM      5  H   UNL     1      34.426 -22.075 -15.875  0.00  0.00    +0.149 HD
BRANCH   4   6
ATOM      6  C   UNL     1      36.451 -22.381 -14.488  0.00  0.00    +0.097 C 
BRANCH   6   7
ATOM      7  C   UNL     1      37.649 -23.007 -15.195  0.00  0.00    +0.119 C 
BRANCH   7   9
ATOM      8  O   UNL     1      38.779 -24.248 -13.431  0.00  0.00    -0.250 OA
ATOM      9  C   UNL     1      38.146 -24.241 -14.479  0.00  0.00    +0.314 C 
BRANCH   9  10
ATOM     10  O   UNL     1      37.799 -25.374 -15.143  0.00  0.00    -0.480 OA
ATOM     11  H   UNL     1      37.529 -26.134 -14.666  0.00  0.00    +0.295 HD
ENDBRANCH   9  10
ENDBRANCH   7   9
ENDBRANCH   6   7
ENDBRANCH   4   6
ENDBRANCH   1   3
BRANCH   1  12
ATOM     12  C   UNL     1      31.845 -22.764 -14.921  0.00  0.00    +0.031 C 
BRANCH  12  13
ATOM     13  C   UNL     1      30.484 -23.481 -14.963  0.00  0.00    +0.101 C 
ATOM     14  C   UNL     1      30.223 -24.232 -13.658  0.00  0.00    +0.012 C 
BRANCH  13  16
ATOM     15  O   UNL     1      28.836 -21.827 -14.296  0.00  0.00    -0.250 OA
ATOM     16  C   UNL     1      29.363 -22.482 -15.185  0.00  0.00    +0.316 C 
BRANCH  16  17
ATOM     17  O   UNL     1      29.056 -22.421 -16.514  0.00  0.00    -0.449 OA
BRANCH  17  18
ATOM     18  C   UNL     1      27.839 -23.070 -16.895  0.00  0.00    +0.209 C 
ATOM     19  C   UNL     1      26.747 -22.030 -17.030  0.00  0.00    +0.051 C 
ENDBRANCH  17  18
ENDBRANCH  16  17
ENDBRANCH  13  16
ENDBRANCH  12  13
ENDBRANCH   1  12
BRANCH   1  20
ATOM     20  C   UNL     1      32.749 -23.873 -17.004  0.00  0.00    +0.046 C 
BRANCH  20  21
ATOM     21  C   UNL     1      33.404 -22.870 -17.923  0.00  0.00    -0.021 C 
ATOM     22  C   UNL     1      32.646 -21.846 -18.492  0.00  0.00    -0.004 C 
ATOM     23  C   UNL     1      34.766 -22.967 -18.204  0.00  0.00    -0.004 C 
ATOM     24  C   UNL     1      34.613 -21.016 -19.623  0.00  0.00    -0.000 C 
ATOM     25  C   UNL     1      33.250 -20.920 -19.342  0.00  0.00    -0.000 C 
ATOM     26  C   UNL     1      35.371 -22.041 -19.054  0.00  0.00    -0.000 C 
BRANCH  24  27
ATOM     27  C   UNL     1      35.240 -20.056 -20.504  0.00  0.00    -0.000 C 
ATOM     28  C   UNL     1      36.549 -19.640 -20.263  0.00  0.00    -0.000 C 
ATOM     29  C   UNL     1      34.536 -19.548 -21.597  0.00  0.00    -0.000 C 
ATOM     30  C   UNL     1      37.155 -18.715 -21.113  0.00  0.00    +0.000 C 
ATOM     31  C   UNL     1      35.142 -18.623 -22.446  0.00  0.00    +0.000 C 
ATOM     32  C   UNL     1      36.451 -18.207 -22.205  0.00  0.00    +0.000 C 
ENDBRANCH  24  27
ENDBRANCH  20  21
ENDBRANCH   1  20
TORSDOF 13
ENDMDL
