MODEL 1
REMARK VINA RESULT:     -11.2      0.000      0.000
REMARK  Name = 4565
REMARK  4 active torsions:
REMARK  status: ('A' for Active; 'I' for Inactive)
REMARK    1  A    between atoms: N_5  and  C_15
REMARK    2  A    between atoms: C_6  and  O_21
REMARK    3  A    between atoms: O_21  and  C_22
REMARK    4  A    between atoms: C_22  and  C_23
REMARK                            x       y       z     vdW  Elec       q    Type
REMARK                         _______ _______ _______ _____ _____    ______ ____
ROOT
ATOM      1  N   UNL     1      32.880 -23.461 -15.414  0.00  0.00    -0.293 NA
ATOM      2  N   UNL     1      29.484 -22.763 -16.641  0.00  0.00    -0.266 NA
ATOM      3  N   UNL     1      31.104 -24.218 -13.921  0.00  0.00    -0.316 NA
ATOM      4  N   UNL     1      28.864 -23.750 -14.742  0.00  0.00    -0.296 N 
ATOM      5  N   UNL     1      33.360 -24.533 -13.388  0.00  0.00    -0.238 N 
ATOM      6  C   UNL     1      31.985 -22.979 -16.303  0.00  0.00    +0.288 C 
ATOM      7  C   UNL     1      30.643 -23.112 -16.010  0.00  0.00    +0.215 C 
ATOM      8  C   UNL     1      30.232 -23.724 -14.833  0.00  0.00    +0.196 C 
ATOM      9  C   UNL     1      32.390 -24.043 -14.292  0.00  0.00    +0.207 C 
ATOM     10  C   UNL     1      28.446 -23.165 -15.844  0.00  0.00    +0.164 C 
ATOM     11  H   UNL     1      29.408 -22.305 -17.510  0.00  0.00    +0.126 HD
ATOM     12  H   UNL     1      28.317 -24.124 -14.014  0.00  0.00    +0.150 HD
ATOM     13  H   UNL     1      32.976 -24.951 -12.582  0.00  0.00    +0.166 HD
ENDROOT
BRANCH   5  15
ATOM     14 CL   UNL     1      37.771 -22.870 -11.362  0.00  0.00    -0.082 Cl
ATOM     15  C   UNL     1      34.766 -24.541 -13.413  0.00  0.00    +0.059 C 
ATOM     16  C   UNL     1      35.489 -23.789 -12.484  0.00  0.00    +0.027 C 
ATOM     17  C   UNL     1      35.447 -25.302 -14.367  0.00  0.00    +0.015 C 
ATOM     18  C   UNL     1      36.883 -23.798 -12.509  0.00  0.00    +0.059 C 
ATOM     19  C   UNL     1      36.841 -25.311 -14.392  0.00  0.00    +0.002 C 
ATOM     20  C   UNL     1      37.560 -24.558 -13.462  0.00  0.00    +0.011 C 
ENDBRANCH   5  15
BRANCH   6  21
ATOM     21  O   UNL     1      32.447 -22.383 -17.451  0.00  0.00    -0.453 OA
BRANCH  21  22
ATOM     22  C   UNL     1      33.743 -22.747 -17.888  0.00  0.00    +0.208 C 
BRANCH  22  23
ATOM     23  C   UNL     1      34.057 -21.977 -19.169  0.00  0.00    +0.044 C 
ATOM     24  C   UNL     1      33.002 -20.890 -19.420  0.00  0.00    +0.004 C 
ATOM     25  C   UNL     1      35.464 -21.369 -19.106  0.00  0.00    +0.004 C 
ATOM     26  C   UNL     1      33.323 -20.071 -20.668  0.00  0.00    +0.000 C 
ATOM     27  C   UNL     1      35.780 -20.548 -20.354  0.00  0.00    +0.000 C 
ATOM     28  C   UNL     1      34.725 -19.475 -20.605  0.00  0.00    +0.000 C 
ENDBRANCH  22  23
ENDBRANCH  21  22
ENDBRANCH   6  21
TORSDOF 4
ENDMDL
MODEL 2
REMARK VINA RESULT:     -10.5      3.197      7.020
REMARK  Name = 4565
REMARK  4 active torsions:
REMARK  status: ('A' for Active; 'I' for Inactive)
REMARK    1  A    between atoms: N_5  and  C_15
REMARK    2  A    between atoms: C_6  and  O_21
REMARK    3  A    between atoms: O_21  and  C_22
REMARK    4  A    between atoms: C_22  and  C_23
REMARK                            x       y       z     vdW  Elec       q    Type
REMARK                         _______ _______ _______ _____ _____    ______ ____
ROOT
ATOM      1  N   UNL     1      35.132 -23.525 -15.479  0.00  0.00    -0.293 NA
ATOM      2  N   UNL     1      36.073 -25.296 -12.396  0.00  0.00    -0.266 NA
ATOM      3  N   UNL     1      37.516 -23.435 -14.964  0.00  0.00    -0.316 NA
ATOM      4  N   UNL     1      38.126 -24.607 -12.924  0.00  0.00    -0.296 N 
ATOM      5  N   UNL     1      36.641 -22.393 -16.867  0.00  0.00    -0.238 N 
ATOM      6  C   UNL     1      34.879 -24.261 -14.376  0.00  0.00    +0.288 C 
ATOM      7  C   UNL     1      35.940 -24.590 -13.558  0.00  0.00    +0.215 C 
ATOM      8  C   UNL     1      37.228 -24.173 -13.865  0.00  0.00    +0.196 C 
ATOM      9  C   UNL     1      36.419 -23.162 -15.702  0.00  0.00    +0.207 C 
ATOM     10  C   UNL     1      37.400 -25.278 -12.056  0.00  0.00    +0.164 C 
ATOM     11  H   UNL     1      35.349 -25.736 -11.894  0.00  0.00    +0.126 HD
ATOM     12  H   UNL     1      39.098 -24.451 -12.902  0.00  0.00    +0.150 HD
ATOM     13  H   UNL     1      37.584 -22.143 -17.004  0.00  0.00    +0.166 HD
ENDROOT
BRANCH   5  15
ATOM     14 CL   UNL     1      35.968 -19.407 -20.985  0.00  0.00    -0.082 Cl
ATOM     15  C   UNL     1      35.778 -21.913 -17.869  0.00  0.00    +0.059 C 
ATOM     16  C   UNL     1      36.245 -21.002 -18.820  0.00  0.00    +0.027 C 
ATOM     17  C   UNL     1      34.450 -22.345 -17.918  0.00  0.00    +0.015 C 
ATOM     18  C   UNL     1      35.389 -20.528 -19.814  0.00  0.00    +0.059 C 
ATOM     19  C   UNL     1      33.595 -21.871 -18.912  0.00  0.00    +0.002 C 
ATOM     20  C   UNL     1      34.065 -20.962 -19.860  0.00  0.00    +0.011 C 
ENDBRANCH   5  15
BRANCH   6  21
ATOM     21  O   UNL     1      33.585 -24.647 -14.119  0.00  0.00    -0.453 OA
BRANCH  21  22
ATOM     22  C   UNL     1      32.842 -23.847 -13.218  0.00  0.00    +0.208 C 
BRANCH  22  23
ATOM     23  C   UNL     1      31.397 -23.781 -13.708  0.00  0.00    +0.044 C 
ATOM     24  C   UNL     1      31.325 -23.135 -15.098  0.00  0.00    +0.004 C 
ATOM     25  C   UNL     1      30.765 -25.179 -13.722  0.00  0.00    +0.004 C 
ATOM     26  C   UNL     1      29.894 -23.105 -15.632  0.00  0.00    +0.000 C 
ATOM     27  C   UNL     1      29.336 -25.146 -14.259  0.00  0.00    +0.000 C 
ATOM     28  C   UNL     1      29.267 -24.495 -15.637  0.00  0.00    +0.000 C 
ENDBRANCH  22  23
ENDBRANCH  21  22
ENDBRANCH   6  21
TORSDOF 4
ENDMDL
MODEL 3
REMARK VINA RESULT:     -10.4      2.405      5.247
REMARK  Name = 4565
REMARK  4 active torsions:
REMARK  status: ('A' for Active; 'I' for Inactive)
REMARK    1  A    between atoms: N_5  and  C_15
REMARK    2  A    between atoms: C_6  and  O_21
REMARK    3  A    between atoms: O_21  and  C_22
REMARK    4  A    between atoms: C_22  and  C_23
REMARK                            x       y       z     vdW  Elec       q    Type
REMARK                         _______ _______ _______ _____ _____    ______ ____
ROOT
ATOM      1  N   UNL     1      35.153 -23.317 -16.019  0.00  0.00    -0.293 NA
ATOM      2  N   UNL     1      33.083 -22.045 -18.780  0.00  0.00    -0.266 NA
ATOM      3  N   UNL     1      36.373 -21.957 -17.637  0.00  0.00    -0.316 NA
ATOM      4  N   UNL     1      34.996 -21.123 -19.457  0.00  0.00    -0.296 N 
ATOM      5  N   UNL     1      37.444 -22.895 -15.779  0.00  0.00    -0.238 N 
ATOM      6  C   UNL     1      33.997 -23.166 -16.701  0.00  0.00    +0.288 C 
ATOM      7  C   UNL     1      34.019 -22.411 -17.855  0.00  0.00    +0.215 C 
ATOM      8  C   UNL     1      35.198 -21.826 -18.297  0.00  0.00    +0.196 C 
ATOM      9  C   UNL     1      36.256 -22.711 -16.523  0.00  0.00    +0.207 C 
ATOM     10  C   UNL     1      33.716 -21.274 -19.720  0.00  0.00    +0.164 C 
ATOM     11  H   UNL     1      32.130 -22.290 -18.774  0.00  0.00    +0.126 HD
ATOM     12  H   UNL     1      35.661 -20.617 -19.978  0.00  0.00    +0.150 HD
ATOM     13  H   UNL     1      38.229 -22.443 -16.168  0.00  0.00    +0.166 HD
ENDROOT
BRANCH   5  15
ATOM     14 CL   UNL     1      36.816 -23.315 -10.705  0.00  0.00    -0.082 Cl
ATOM     15  C   UNL     1      37.725 -23.596 -14.593  0.00  0.00    +0.059 C 
ATOM     16  C   UNL     1      37.194 -23.159 -13.377  0.00  0.00    +0.027 C 
ATOM     17  C   UNL     1      38.538 -24.732 -14.625  0.00  0.00    +0.015 C 
ATOM     18  C   UNL     1      37.473 -23.856 -12.201  0.00  0.00    +0.059 C 
ATOM     19  C   UNL     1      38.816 -25.429 -13.450  0.00  0.00    +0.002 C 
ATOM     20  C   UNL     1      38.283 -24.990 -12.237  0.00  0.00    +0.011 C 
ENDBRANCH   5  15
BRANCH   6  21
ATOM     21  O   UNL     1      32.860 -23.767 -16.218  0.00  0.00    -0.453 OA
BRANCH  21  22
ATOM     22  C   UNL     1      32.506 -23.490 -14.876  0.00  0.00    +0.208 C 
BRANCH  22  23
ATOM     23  C   UNL     1      30.983 -23.513 -14.763  0.00  0.00    +0.044 C 
ATOM     24  C   UNL     1      30.340 -22.784 -15.951  0.00  0.00    +0.004 C 
ATOM     25  C   UNL     1      30.469 -24.955 -14.664  0.00  0.00    +0.004 C 
ATOM     26  C   UNL     1      28.815 -22.840 -15.887  0.00  0.00    +0.000 C 
ATOM     27  C   UNL     1      28.944 -25.007 -14.603  0.00  0.00    +0.000 C 
ATOM     28  C   UNL     1      28.308 -24.274 -15.780  0.00  0.00    +0.000 C 
ENDBRANCH  22  23
ENDBRANCH  21  22
ENDBRANCH   6  21
TORSDOF 4
ENDMDL
MODEL 4
REMARK VINA RESULT:     -10.4      2.731      6.429
REMARK  Name = 4565
REMARK  4 active torsions:
REMARK  status: ('A' for Active; 'I' for Inactive)
REMARK    1  A    between atoms: N_5  and  C_15
REMARK    2  A    between atoms: C_6  and  O_21
REMARK    3  A    between atoms: O_21  and  C_22
REMARK    4  A    between atoms: C_22  and  C_23
REMARK                            x       y       z     vdW  Elec       q    Type
REMARK                         _______ _______ _______ _____ _____    ______ ____
ROOT
ATOM      1  N   UNL     1      33.539 -22.937 -16.071  0.00  0.00    -0.293 NA
ATOM      2  N   UNL     1      31.551 -24.569 -13.442  0.00  0.00    -0.266 NA
ATOM      3  N   UNL     1      31.207 -23.324 -16.678  0.00  0.00    -0.316 NA
ATOM      4  N   UNL     1      29.903 -24.404 -14.935  0.00  0.00    -0.296 N 
ATOM      5  N   UNL     1      32.699 -22.301 -18.163  0.00  0.00    -0.238 N 
ATOM      6  C   UNL     1      33.357 -23.491 -14.852  0.00  0.00    +0.288 C 
ATOM      7  C   UNL     1      32.101 -23.966 -14.537  0.00  0.00    +0.215 C 
ATOM      8  C   UNL     1      31.058 -23.874 -15.450  0.00  0.00    +0.196 C 
ATOM      9  C   UNL     1      32.466 -22.888 -16.898  0.00  0.00    +0.207 C 
ATOM     10  C   UNL     1      30.233 -24.812 -13.728  0.00  0.00    +0.164 C 
ATOM     11  H   UNL     1      32.015 -24.789 -12.602  0.00  0.00    +0.126 HD
ATOM     12  H   UNL     1      29.022 -24.465 -15.371  0.00  0.00    +0.150 HD
ATOM     13  H   UNL     1      31.903 -22.279 -18.743  0.00  0.00    +0.166 HD
ENDROOT
BRANCH   5  15
ATOM     14 CL   UNL     1      34.696 -19.140 -21.676  0.00  0.00    -0.082 Cl
ATOM     15  C   UNL     1      33.846 -21.743 -18.756  0.00  0.00    +0.059 C 
ATOM     16  C   UNL     1      33.718 -20.825 -19.801  0.00  0.00    +0.027 C 
ATOM     17  C   UNL     1      35.117 -22.104 -18.302  0.00  0.00    +0.015 C 
ATOM     18  C   UNL     1      34.856 -20.271 -20.388  0.00  0.00    +0.059 C 
ATOM     19  C   UNL     1      36.254 -21.550 -18.889  0.00  0.00    +0.002 C 
ATOM     20  C   UNL     1      36.123 -20.633 -19.933  0.00  0.00    +0.011 C 
ENDBRANCH   5  15
BRANCH   6  21
ATOM     21  O   UNL     1      34.423 -23.556 -13.989  0.00  0.00    -0.453 OA
BRANCH  21  22
ATOM     22  C   UNL     1      35.656 -23.036 -14.450  0.00  0.00    +0.208 C 
BRANCH  22  23
ATOM     23  C   UNL     1      36.789 -23.790 -13.757  0.00  0.00    +0.044 C 
ATOM     24  C   UNL     1      36.636 -23.718 -12.231  0.00  0.00    +0.004 C 
ATOM     25  C   UNL     1      36.839 -25.248 -14.233  0.00  0.00    +0.004 C 
ATOM     26  C   UNL     1      37.728 -24.511 -11.517  0.00  0.00    +0.000 C 
ATOM     27  C   UNL     1      37.931 -26.038 -13.514  0.00  0.00    +0.000 C 
ATOM     28  C   UNL     1      37.780 -25.957 -11.998  0.00  0.00    +0.000 C 
ENDBRANCH  22  23
ENDBRANCH  21  22
ENDBRANCH   6  21
TORSDOF 4
ENDMDL
MODEL 5
REMARK VINA RESULT:     -10.3      2.765      5.290
REMARK  Name = 4565
REMARK  4 active torsions:
REMARK  status: ('A' for Active; 'I' for Inactive)
REMARK    1  A    between atoms: N_5  and  C_15
REMARK    2  A    between atoms: C_6  and  O_21
REMARK    3  A    between atoms: O_21  and  C_22
REMARK    4  A    between atoms: C_22  and  C_23
REMARK                            x       y       z     vdW  Elec       q    Type
REMARK                         _______ _______ _______ _____ _____    ______ ____
ROOT
ATOM      1  N   UNL     1      33.519 -23.669 -15.608  0.00  0.00    -0.293 NA
ATOM      2  N   UNL     1      37.121 -22.996 -15.926  0.00  0.00    -0.266 NA
ATOM      3  N   UNL     1      34.719 -23.633 -13.483  0.00  0.00    -0.316 NA
ATOM      4  N   UNL     1      37.098 -23.188 -13.705  0.00  0.00    -0.296 N 
ATOM      5  N   UNL     1      32.416 -24.038 -13.575  0.00  0.00    -0.238 N 
ATOM      6  C   UNL     1      34.650 -23.408 -16.299  0.00  0.00    +0.288 C 
ATOM      7  C   UNL     1      35.823 -23.258 -15.589  0.00  0.00    +0.215 C 
ATOM      8  C   UNL     1      35.835 -23.372 -14.206  0.00  0.00    +0.196 C 
ATOM      9  C   UNL     1      33.622 -23.764 -14.260  0.00  0.00    +0.207 C 
ATOM     10  C   UNL     1      37.846 -22.964 -14.764  0.00  0.00    +0.164 C 
ATOM     11  H   UNL     1      37.471 -22.857 -16.836  0.00  0.00    +0.126 HD
ATOM     12  H   UNL     1      37.382 -23.217 -12.763  0.00  0.00    +0.150 HD
ATOM     13  H   UNL     1      32.521 -24.101 -12.598  0.00  0.00    +0.166 HD
ENDROOT
BRANCH   5  15
ATOM     14 CL   UNL     1      28.195 -22.085 -15.741  0.00  0.00    -0.082 Cl
ATOM     15  C   UNL     1      31.096 -24.238 -14.017  0.00  0.00    +0.059 C 
ATOM     16  C   UNL     1      30.381 -23.185 -14.593  0.00  0.00    +0.027 C 
ATOM     17  C   UNL     1      30.493 -25.491 -13.881  0.00  0.00    +0.015 C 
ATOM     18  C   UNL     1      29.072 -23.385 -15.031  0.00  0.00    +0.059 C 
ATOM     19  C   UNL     1      29.185 -25.691 -14.320  0.00  0.00    +0.002 C 
ATOM     20  C   UNL     1      28.474 -24.637 -14.895  0.00  0.00    +0.011 C 
ENDBRANCH   5  15
BRANCH   6  21
ATOM     21  O   UNL     1      34.581 -23.305 -17.667  0.00  0.00    -0.453 OA
BRANCH  21  22
ATOM     22  C   UNL     1      33.559 -22.484 -18.200  0.00  0.00    +0.208 C 
BRANCH  22  23
ATOM     23  C   UNL     1      34.118 -21.738 -19.410  0.00  0.00    +0.044 C 
ATOM     24  C   UNL     1      33.181 -20.594 -19.822  0.00  0.00    +0.004 C 
ATOM     25  C   UNL     1      35.528 -21.210 -19.117  0.00  0.00    +0.004 C 
ATOM     26  C   UNL     1      33.744 -19.799 -20.998  0.00  0.00    +0.000 C 
ATOM     27  C   UNL     1      36.087 -20.414 -20.294  0.00  0.00    +0.000 C 
ATOM     28  C   UNL     1      35.149 -19.283 -20.706  0.00  0.00    +0.000 C 
ENDBRANCH  22  23
ENDBRANCH  21  22
ENDBRANCH   6  21
TORSDOF 4
ENDMDL
MODEL 6
REMARK VINA RESULT:     -10.3      2.685      5.747
REMARK  Name = 4565
REMARK  4 active torsions:
REMARK  status: ('A' for Active; 'I' for Inactive)
REMARK    1  A    between atoms: N_5  and  C_15
REMARK    2  A    between atoms: C_6  and  O_21
REMARK    3  A    between atoms: O_21  and  C_22
REMARK    4  A    between atoms: C_22  and  C_23
REMARK                            x       y       z     vdW  Elec       q    Type
REMARK                         _______ _______ _______ _____ _____    ______ ____
ROOT
ATOM      1  N   UNL     1      35.191 -22.769 -16.966  0.00  0.00    -0.293 NA
ATOM      2  N   UNL     1      33.690 -21.144 -19.904  0.00  0.00    -0.266 NA
ATOM      3  N   UNL     1      36.678 -21.212 -18.115  0.00  0.00    -0.316 NA
ATOM      4  N   UNL     1      35.676 -20.144 -20.054  0.00  0.00    -0.296 N 
ATOM      5  N   UNL     1      37.376 -22.385 -16.214  0.00  0.00    -0.238 N 
ATOM      6  C   UNL     1      34.193 -22.528 -17.844  0.00  0.00    +0.288 C 
ATOM      7  C   UNL     1      34.429 -21.629 -18.863  0.00  0.00    +0.215 C 
ATOM      8  C   UNL     1      35.658 -20.993 -18.977  0.00  0.00    +0.196 C 
ATOM      9  C   UNL     1      36.357 -22.105 -17.153  0.00  0.00    +0.207 C 
ATOM     10  C   UNL     1      34.479 -20.258 -20.589  0.00  0.00    +0.164 C 
ATOM     11  H   UNL     1      32.760 -21.386 -20.123  0.00  0.00    +0.126 HD
ATOM     12  H   UNL     1      36.420 -19.576 -20.360  0.00  0.00    +0.150 HD
ATOM     13  H   UNL     1      38.211 -21.889 -16.374  0.00  0.00    +0.166 HD
ENDROOT
BRANCH   5  15
ATOM     14 CL   UNL     1      39.900 -26.012 -13.606  0.00  0.00    -0.082 Cl
ATOM     15  C   UNL     1      37.430 -23.236 -15.095  0.00  0.00    +0.059 C 
ATOM     16  C   UNL     1      38.512 -24.103 -14.924  0.00  0.00    +0.027 C 
ATOM     17  C   UNL     1      36.401 -23.218 -14.150  0.00  0.00    +0.015 C 
ATOM     18  C   UNL     1      38.565 -24.946 -13.814  0.00  0.00    +0.059 C 
ATOM     19  C   UNL     1      36.455 -24.060 -13.040  0.00  0.00    +0.002 C 
ATOM     20  C   UNL     1      37.537 -24.925 -12.872  0.00  0.00    +0.011 C 
ENDBRANCH   5  15
BRANCH   6  21
ATOM     21  O   UNL     1      32.998 -23.185 -17.683  0.00  0.00    -0.453 OA
BRANCH  21  22
ATOM     22  C   UNL     1      32.137 -22.715 -16.662  0.00  0.00    +0.208 C 
BRANCH  22  23
ATOM     23  C   UNL     1      31.897 -23.851 -15.670  0.00  0.00    +0.044 C 
ATOM     24  C   UNL     1      32.723 -23.638 -14.393  0.00  0.00    +0.004 C 
ATOM     25  C   UNL     1      30.404 -23.975 -15.339  0.00  0.00    +0.004 C 
ATOM     26  C   UNL     1      32.459 -24.734 -13.363  0.00  0.00    +0.000 C 
ATOM     27  C   UNL     1      30.145 -25.070 -14.307  0.00  0.00    +0.000 C 
ATOM     28  C   UNL     1      30.974 -24.861 -13.043  0.00  0.00    +0.000 C 
ENDBRANCH  22  23
ENDBRANCH  21  22
ENDBRANCH   6  21
TORSDOF 4
ENDMDL
MODEL 7
REMARK VINA RESULT:     -10.3      2.901      5.557
REMARK  Name = 4565
REMARK  4 active torsions:
REMARK  status: ('A' for Active; 'I' for Inactive)
REMARK    1  A    between atoms: N_5  and  C_15
REMARK    2  A    between atoms: C_6  and  O_21
REMARK    3  A    between atoms: O_21  and  C_22
REMARK    4  A    between atoms: C_22  and  C_23
REMARK                            x       y       z     vdW  Elec       q    Type
REMARK                         _______ _______ _______ _____ _____    ______ ____
ROOT
ATOM      1  N   UNL     1      34.884 -23.738 -14.913  0.00  0.00    -0.293 NA
ATOM      2  N   UNL     1      38.547 -23.967 -15.147  0.00  0.00    -0.266 NA
ATOM      3  N   UNL     1      35.926 -24.965 -13.080  0.00  0.00    -0.316 NA
ATOM      4  N   UNL     1      38.346 -25.112 -13.245  0.00  0.00    -0.296 N 
ATOM      5  N   UNL     1      33.607 -24.666 -13.183  0.00  0.00    -0.238 N 
ATOM      6  C   UNL     1      36.081 -23.505 -15.493  0.00  0.00    +0.288 C 
ATOM      7  C   UNL     1      37.209 -24.000 -14.873  0.00  0.00    +0.215 C 
ATOM      8  C   UNL     1      37.110 -24.715 -13.687  0.00  0.00    +0.196 C 
ATOM      9  C   UNL     1      34.880 -24.444 -13.757  0.00  0.00    +0.207 C 
ATOM     10  C   UNL     1      39.187 -24.646 -14.144  0.00  0.00    +0.164 C 
ATOM     11  H   UNL     1      38.973 -23.536 -15.923  0.00  0.00    +0.126 HD
ATOM     12  H   UNL     1      38.558 -25.629 -12.434  0.00  0.00    +0.150 HD
ATOM     13  H   UNL     1      33.635 -25.181 -12.344  0.00  0.00    +0.166 HD
ENDROOT
BRANCH   5  15
ATOM     14 CL   UNL     1      28.737 -26.047 -14.016  0.00  0.00    -0.082 Cl
ATOM     15  C   UNL     1      32.309 -24.294 -13.576  0.00  0.00    +0.059 C 
ATOM     16  C   UNL     1      31.284 -25.244 -13.599  0.00  0.00    +0.027 C 
ATOM     17  C   UNL     1      32.038 -22.974 -13.944  0.00  0.00    +0.015 C 
ATOM     18  C   UNL     1      29.997 -24.875 -13.988  0.00  0.00    +0.059 C 
ATOM     19  C   UNL     1      30.750 -22.605 -14.333  0.00  0.00    +0.002 C 
ATOM     20  C   UNL     1      29.729 -23.556 -14.355  0.00  0.00    +0.011 C 
ENDBRANCH   5  15
BRANCH   6  21
ATOM     21  O   UNL     1      36.121 -22.791 -16.667  0.00  0.00    -0.453 OA
BRANCH  21  22
ATOM     22  C   UNL     1      34.885 -22.542 -17.310  0.00  0.00    +0.208 C 
BRANCH  22  23
ATOM     23  C   UNL     1      35.167 -21.945 -18.687  0.00  0.00    +0.044 C 
ATOM     24  C   UNL     1      33.936 -21.196 -19.216  0.00  0.00    +0.004 C 
ATOM     25  C   UNL     1      36.390 -21.019 -18.636  0.00  0.00    +0.004 C 
ATOM     26  C   UNL     1      34.211 -20.545 -20.570  0.00  0.00    +0.000 C 
ATOM     27  C   UNL     1      36.660 -20.368 -19.991  0.00  0.00    +0.000 C 
ATOM     28  C   UNL     1      35.431 -19.632 -20.517  0.00  0.00    +0.000 C 
ENDBRANCH  22  23
ENDBRANCH  21  22
ENDBRANCH   6  21
TORSDOF 4
ENDMDL
MODEL 8
REMARK VINA RESULT:     -10.1      7.597     10.666
REMARK  Name = 4565
REMARK  4 active torsions:
REMARK  status: ('A' for Active; 'I' for Inactive)
REMARK    1  A    between atoms: N_5  and  C_15
REMARK    2  A    between atoms: C_6  and  O_21
REMARK    3  A    between atoms: O_21  and  C_22
REMARK    4  A    between atoms: C_22  and  C_23
REMARK                            x       y       z     vdW  Elec       q    Type
REMARK                         _______ _______ _______ _____ _____    ______ ____
ROOT
ATOM      1  N   UNL     1      34.773 -16.246 -22.156  0.00  0.00    -0.293 NA
ATOM      2  N   UNL     1      33.539 -13.424 -24.165  0.00  0.00    -0.266 NA
ATOM      3  N   UNL     1      34.312 -16.806 -24.486  0.00  0.00    -0.316 NA
ATOM      4  N   UNL     1      33.496 -14.934 -25.804  0.00  0.00    -0.296 N 
ATOM      5  N   UNL     1      35.108 -18.412 -22.981  0.00  0.00    -0.238 N 
ATOM      6  C   UNL     1      34.399 -14.962 -22.346  0.00  0.00    +0.288 C 
ATOM      7  C   UNL     1      33.979 -14.590 -23.606  0.00  0.00    +0.215 C 
ATOM      8  C   UNL     1      33.943 -15.512 -24.643  0.00  0.00    +0.196 C 
ATOM      9  C   UNL     1      34.708 -17.078 -23.223  0.00  0.00    +0.207 C 
ATOM     10  C   UNL     1      33.263 -13.680 -25.482  0.00  0.00    +0.164 C 
ATOM     11  H   UNL     1      33.439 -12.558 -23.706  0.00  0.00    +0.126 HD
ATOM     12  H   UNL     1      33.377 -15.362 -26.682  0.00  0.00    +0.150 HD
ATOM     13  H   UNL     1      35.050 -18.993 -23.774  0.00  0.00    +0.166 HD
ENDROOT
BRANCH   5  15
ATOM     14 CL   UNL     1      34.163 -21.691 -19.150  0.00  0.00    -0.082 Cl
ATOM     15  C   UNL     1      35.572 -19.071 -21.829  0.00  0.00    +0.059 C 
ATOM     16  C   UNL     1      34.735 -19.952 -21.139  0.00  0.00    +0.027 C 
ATOM     17  C   UNL     1      36.873 -18.849 -21.369  0.00  0.00    +0.015 C 
ATOM     18  C   UNL     1      35.196 -20.606 -19.997  0.00  0.00    +0.059 C 
ATOM     19  C   UNL     1      37.334 -19.504 -20.228  0.00  0.00    +0.002 C 
ATOM     20  C   UNL     1      36.495 -20.383 -19.541  0.00  0.00    +0.011 C 
ENDBRANCH   5  15
BRANCH   6  21
ATOM     21  O   UNL     1      34.454 -14.092 -21.285  0.00  0.00    -0.453 OA
BRANCH  21  22
ATOM     22  C   UNL     1      33.300 -13.998 -20.471  0.00  0.00    +0.208 C 
BRANCH  22  23
ATOM     23  C   UNL     1      32.748 -12.577 -20.575  0.00  0.00    +0.044 C 
ATOM     24  C   UNL     1      31.581 -12.520 -21.571  0.00  0.00    +0.004 C 
ATOM     25  C   UNL     1      32.315 -12.062 -19.196  0.00  0.00    +0.004 C 
ATOM     26  C   UNL     1      30.978 -11.120 -21.652  0.00  0.00    +0.000 C 
ATOM     27  C   UNL     1      31.710 -10.662 -19.282  0.00  0.00    +0.000 C 
ATOM     28  C   UNL     1      30.557 -10.607 -20.280  0.00  0.00    +0.000 C 
ENDBRANCH  22  23
ENDBRANCH  21  22
ENDBRANCH   6  21
TORSDOF 4
ENDMDL
MODEL 9
REMARK VINA RESULT:     -10.1      2.814      5.665
REMARK  Name = 4565
REMARK  4 active torsions:
REMARK  status: ('A' for Active; 'I' for Inactive)
REMARK    1  A    between atoms: N_5  and  C_15
REMARK    2  A    between atoms: C_6  and  O_21
REMARK    3  A    between atoms: O_21  and  C_22
REMARK    4  A    between atoms: C_22  and  C_23
REMARK                            x       y       z     vdW  Elec       q    Type
REMARK                         _______ _______ _______ _____ _____    ______ ____
ROOT
ATOM      1  N   UNL     1      34.694 -24.018 -14.020  0.00  0.00    -0.293 NA
ATOM      2  N   UNL     1      38.163 -23.704 -12.839  0.00  0.00    -0.266 NA
ATOM      3  N   UNL     1      34.936 -24.122 -11.594  0.00  0.00    -0.316 NA
ATOM      4  N   UNL     1      37.232 -23.915 -10.825  0.00  0.00    -0.296 N 
ATOM      5  N   UNL     1      32.839 -24.295 -12.618  0.00  0.00    -0.238 N 
ATOM      6  C   UNL     1      36.025 -23.864 -14.188  0.00  0.00    +0.288 C 
ATOM      7  C   UNL     1      36.822 -23.838 -13.063  0.00  0.00    +0.215 C 
ATOM      8  C   UNL     1      36.266 -23.967 -11.797  0.00  0.00    +0.196 C 
ATOM      9  C   UNL     1      34.237 -24.136 -12.750  0.00  0.00    +0.207 C 
ATOM     10  C   UNL     1      38.360 -23.756 -11.484  0.00  0.00    +0.164 C 
ATOM     11  H   UNL     1      38.860 -23.591 -13.525  0.00  0.00    +0.126 HD
ATOM     12  H   UNL     1      37.109 -23.980  -9.850  0.00  0.00    +0.150 HD
ATOM     13  H   UNL     1      32.535 -24.378 -11.685  0.00  0.00    +0.166 HD
ENDROOT
BRANCH   5  15
ATOM     14 CL   UNL     1      30.627 -22.351 -16.819  0.00  0.00    -0.082 Cl
ATOM     15  C   UNL     1      31.796 -24.359 -13.560  0.00  0.00    +0.059 C 
ATOM     16  C   UNL     1      31.734 -23.431 -14.602  0.00  0.00    +0.027 C 
ATOM     17  C   UNL     1      30.817 -25.351 -13.456  0.00  0.00    +0.015 C 
ATOM     18  C   UNL     1      30.700 -23.496 -15.536  0.00  0.00    +0.059 C 
ATOM     19  C   UNL     1      29.784 -25.415 -14.390  0.00  0.00    +0.002 C 
ATOM     20  C   UNL     1      29.725 -24.487 -15.430  0.00  0.00    +0.011 C 
ENDBRANCH   5  15
BRANCH   6  21
ATOM     21  O   UNL     1      36.522 -23.742 -15.463  0.00  0.00    -0.453 OA
BRANCH  21  22
ATOM     22  C   UNL     1      36.643 -22.431 -15.983  0.00  0.00    +0.208 C 
BRANCH  22  23
ATOM     23  C   UNL     1      36.039 -22.408 -17.386  0.00  0.00    +0.044 C 
ATOM     24  C   UNL     1      34.508 -22.495 -17.318  0.00  0.00    +0.004 C 
ATOM     25  C   UNL     1      36.482 -21.152 -18.147  0.00  0.00    +0.004 C 
ATOM     26  C   UNL     1      33.878 -22.421 -18.707  0.00  0.00    +0.000 C 
ATOM     27  C   UNL     1      35.848 -21.080 -19.534  0.00  0.00    +0.000 C 
ATOM     28  C   UNL     1      34.327 -21.175 -19.463  0.00  0.00    +0.000 C 
ENDBRANCH  22  23
ENDBRANCH  21  22
ENDBRANCH   6  21
TORSDOF 4
ENDMDL
