MODEL 1
REMARK VINA RESULT:     -11.5      0.000      0.000
REMARK  Name = 46207586
REMARK  7 active torsions:
REMARK  status: ('A' for Active; 'I' for Inactive)
REMARK    1  A    between atoms: C_6  and  C_13
REMARK    2  A    between atoms: C_7  and  C_34
REMARK    3  A    between atoms: C_16  and  N_20
REMARK    4  A    between atoms: N_21  and  C_26
REMARK    5  A    between atoms: N_32  and  C_37
REMARK    6  A    between atoms: C_37  and  C_38
REMARK    7  A    between atoms: C_38  and  O_39
REMARK                            x       y       z     vdW  Elec       q    Type
REMARK                         _______ _______ _______ _____ _____    ______ ____
ROOT
ATOM      1  S   UNL     1      34.835 -15.568 -20.251  0.00  0.00    -0.086 S 
ATOM      2  N   UNL     1      34.475 -16.604 -24.594  0.00  0.00    -0.230 NA
ATOM      3  N   UNL     1      33.646 -14.427 -24.999  0.00  0.00    -0.343 N 
ATOM      4  C   UNL     1      34.260 -15.105 -22.729  0.00  0.00    +0.038 C 
ATOM      5  C   UNL     1      34.752 -16.106 -21.886  0.00  0.00    +0.034 C 
ATOM      6  C   UNL     1      33.963 -13.908 -21.994  0.00  0.00    +0.010 C 
ATOM      7  C   UNL     1      35.110 -17.365 -22.385  0.00  0.00    +0.028 C 
ATOM      8  C   UNL     1      34.133 -15.394 -24.096  0.00  0.00    +0.126 C 
ATOM      9  C   UNL     1      34.229 -14.026 -20.650  0.00  0.00    +0.036 C 
ATOM     10  C   UNL     1      34.944 -17.541 -23.747  0.00  0.00    +0.101 C 
ATOM     11  H   UNL     1      33.562 -14.645 -25.956  0.00  0.00    +0.144 HD
ATOM     12  H   UNL     1      33.389 -13.535 -24.672  0.00  0.00    +0.144 HD
ENDROOT
BRANCH   6  13
ATOM     13  C   UNL     1      33.443 -12.660 -22.494  0.00  0.00    +0.001 C 
ATOM     14  C   UNL     1      32.190 -12.209 -22.079  0.00  0.00    +0.001 C 
ATOM     15  C   UNL     1      34.194 -11.903 -23.393  0.00  0.00    +0.001 C 
ATOM     16  C   UNL     1      32.439 -10.244 -23.462  0.00  0.00    +0.052 C 
ATOM     17  C   UNL     1      31.688 -11.001 -22.564  0.00  0.00    +0.015 C 
ATOM     18  C   UNL     1      33.692 -10.694 -23.878  0.00  0.00    +0.015 C 
BRANCH  16  20
ATOM     19  O   UNL     1      32.692  -7.476 -22.368  0.00  0.00    -0.252 OA
ATOM     20  N   UNL     1      31.938  -9.035 -23.946  0.00  0.00    -0.268 N 
ATOM     21  N   UNL     1      31.414  -6.801 -24.205  0.00  0.00    -0.268 N 
ATOM     22  C   UNL     1      32.078  -7.737 -23.397  0.00  0.00    +0.308 C 
ATOM     23  H   UNL     1      31.416  -9.092 -24.779  0.00  0.00    +0.156 HD
ATOM     24  H   UNL     1      30.964  -7.161 -25.004  0.00  0.00    +0.156 HD
BRANCH  21  26
ATOM     25  F   UNL     1      30.445  -3.028 -21.397  0.00  0.00    -0.204 F 
ATOM     26  C   UNL     1      31.311  -5.402 -24.015  0.00  0.00    +0.054 C 
ATOM     27  C   UNL     1      30.921  -4.895 -22.775  0.00  0.00    +0.044 C 
ATOM     28  C   UNL     1      31.599  -4.531 -25.066  0.00  0.00    +0.015 C 
ATOM     29  C   UNL     1      30.819  -3.516 -22.587  0.00  0.00    +0.141 C 
ATOM     30  C   UNL     1      31.496  -3.153 -24.878  0.00  0.00    +0.004 C 
ATOM     31  C   UNL     1      31.106  -2.646 -23.638  0.00  0.00    +0.030 C 
ENDBRANCH  21  26
ENDBRANCH  16  20
ENDBRANCH   6  13
BRANCH   7  34
ATOM     32  N   UNL     1      35.695 -20.176 -20.267  0.00  0.00    -0.208 N 
ATOM     33  N   UNL     1      36.968 -19.744 -20.279  0.00  0.00    -0.176 NA
ATOM     34  C   UNL     1      35.615 -18.401 -21.538  0.00  0.00    +0.039 C 
ATOM     35  C   UNL     1      34.845 -19.406 -21.004  0.00  0.00    +0.086 C 
ATOM     36  C   UNL     1      36.913 -18.660 -21.057  0.00  0.00    +0.119 C 
BRANCH  32  37
ATOM     37  C   UNL     1      35.346 -21.356 -19.512  0.00  0.00    +0.148 C 
BRANCH  37  38
ATOM     38  C   UNL     1      36.329 -21.633 -18.380  0.00  0.00    +0.161 C 
BRANCH  38  39
ATOM     39  O   UNL     1      35.694 -22.411 -17.373  0.00  0.00    -0.380 OA
ATOM     40  H   UNL     1      35.628 -23.332 -17.670  0.00  0.00    +0.211 HD
ENDBRANCH  38  39
ENDBRANCH  37  38
ENDBRANCH  32  37
ENDBRANCH   7  34
TORSDOF 7
ENDMDL
MODEL 2
REMARK VINA RESULT:     -10.6      4.202     12.654
REMARK  Name = 46207586
REMARK  7 active torsions:
REMARK  status: ('A' for Active; 'I' for Inactive)
REMARK    1  A    between atoms: C_6  and  C_13
REMARK    2  A    between atoms: C_7  and  C_34
REMARK    3  A    between atoms: C_16  and  N_20
REMARK    4  A    between atoms: N_21  and  C_26
REMARK    5  A    between atoms: N_32  and  C_37
REMARK    6  A    between atoms: C_37  and  C_38
REMARK    7  A    between atoms: C_38  and  O_39
REMARK                            x       y       z     vdW  Elec       q    Type
REMARK                         _______ _______ _______ _____ _____    ______ ____
ROOT
ATOM      1  S   UNL     1      30.909  -8.197 -23.121  0.00  0.00    -0.086 S 
ATOM      2  N   UNL     1      35.260  -7.446 -23.881  0.00  0.00    -0.230 NA
ATOM      3  N   UNL     1      35.650  -9.769 -23.683  0.00  0.00    -0.343 N 
ATOM      4  C   UNL     1      33.385  -8.879 -23.429  0.00  0.00    +0.038 C 
ATOM      5  C   UNL     1      32.548  -7.758 -23.425  0.00  0.00    +0.034 C 
ATOM      6  C   UNL     1      32.642 -10.081 -23.179  0.00  0.00    +0.010 C 
ATOM      7  C   UNL     1      33.056  -6.472 -23.647  0.00  0.00    +0.028 C 
ATOM      8  C   UNL     1      34.754  -8.681 -23.664  0.00  0.00    +0.126 C 
ATOM      9  C   UNL     1      31.298  -9.851 -22.997  0.00  0.00    +0.036 C 
ATOM     10  C   UNL     1      34.419  -6.393 -23.868  0.00  0.00    +0.101 C 
ATOM     11  H   UNL     1      36.608  -9.616 -23.849  0.00  0.00    +0.144 HD
ATOM     12  H   UNL     1      35.317 -10.683 -23.530  0.00  0.00    +0.144 HD
ENDROOT
BRANCH   6  13
ATOM     13  C   UNL     1      33.133 -11.434 -23.105  0.00  0.00    +0.001 C 
ATOM     14  C   UNL     1      33.285 -12.055 -21.866  0.00  0.00    +0.001 C 
ATOM     15  C   UNL     1      33.456 -12.123 -24.275  0.00  0.00    +0.001 C 
ATOM     16  C   UNL     1      34.084 -14.053 -22.965  0.00  0.00    +0.052 C 
ATOM     17  C   UNL     1      33.761 -13.365 -21.795  0.00  0.00    +0.015 C 
ATOM     18  C   UNL     1      33.932 -13.433 -24.205  0.00  0.00    +0.015 C 
BRANCH  16  20
ATOM     19  O   UNL     1      34.564 -15.805 -20.593  0.00  0.00    -0.252 OA
ATOM     20  N   UNL     1      34.558 -15.364 -22.894  0.00  0.00    -0.268 N 
ATOM     21  N   UNL     1      35.261 -17.426 -22.128  0.00  0.00    -0.268 N 
ATOM     22  C   UNL     1      34.775 -16.165 -21.747  0.00  0.00    +0.308 C 
ATOM     23  H   UNL     1      34.772 -15.787 -23.757  0.00  0.00    +0.156 HD
ATOM     24  H   UNL     1      35.379 -17.570 -23.094  0.00  0.00    +0.156 HD
BRANCH  21  26
ATOM     25  F   UNL     1      34.002 -21.317 -19.611  0.00  0.00    -0.204 F 
ATOM     26  C   UNL     1      35.604 -18.516 -21.293  0.00  0.00    +0.054 C 
ATOM     27  C   UNL     1      34.614 -19.396 -20.856  0.00  0.00    +0.044 C 
ATOM     28  C   UNL     1      36.930 -18.710 -20.907  0.00  0.00    +0.015 C 
ATOM     29  C   UNL     1      34.951 -20.471 -20.032  0.00  0.00    +0.141 C 
ATOM     30  C   UNL     1      37.267 -19.784 -20.084  0.00  0.00    +0.004 C 
ATOM     31  C   UNL     1      36.277 -20.664 -19.646  0.00  0.00    +0.030 C 
ENDBRANCH  21  26
ENDBRANCH  16  20
ENDBRANCH   6  13
BRANCH   7  34
ATOM     32  N   UNL     1      31.420  -3.338 -23.163  0.00  0.00    -0.208 N 
ATOM     33  N   UNL     1      30.553  -3.807 -24.077  0.00  0.00    -0.176 NA
ATOM     34  C   UNL     1      32.215  -5.314 -23.648  0.00  0.00    +0.039 C 
ATOM     35  C   UNL     1      32.433  -4.203 -22.870  0.00  0.00    +0.086 C 
ATOM     36  C   UNL     1      31.045  -5.014 -24.369  0.00  0.00    +0.119 C 
BRANCH  32  37
ATOM     37  C   UNL     1      31.219  -2.028 -22.592  0.00  0.00    +0.148 C 
BRANCH  37  38
ATOM     38  C   UNL     1      29.921  -1.933 -21.798  0.00  0.00    +0.161 C 
BRANCH  38  39
ATOM     39  O   UNL     1      29.536  -3.227 -21.351  0.00  0.00    -0.380 OA
ATOM     40  H   UNL     1      30.077  -3.897 -21.798  0.00  0.00    +0.211 HD
ENDBRANCH  38  39
ENDBRANCH  37  38
ENDBRANCH  32  37
ENDBRANCH   7  34
TORSDOF 7
ENDMDL
MODEL 3
REMARK VINA RESULT:     -10.3      4.372     12.754
REMARK  Name = 46207586
REMARK  7 active torsions:
REMARK  status: ('A' for Active; 'I' for Inactive)
REMARK    1  A    between atoms: C_6  and  C_13
REMARK    2  A    between atoms: C_7  and  C_34
REMARK    3  A    between atoms: C_16  and  N_20
REMARK    4  A    between atoms: N_21  and  C_26
REMARK    5  A    between atoms: N_32  and  C_37
REMARK    6  A    between atoms: C_37  and  C_38
REMARK    7  A    between atoms: C_38  and  O_39
REMARK                            x       y       z     vdW  Elec       q    Type
REMARK                         _______ _______ _______ _____ _____    ______ ____
ROOT
ATOM      1  S   UNL     1      31.800  -7.652 -23.862  0.00  0.00    -0.086 S 
ATOM      2  N   UNL     1      31.935  -8.332 -19.437  0.00  0.00    -0.230 NA
ATOM      3  N   UNL     1      32.606 -10.562 -19.845  0.00  0.00    -0.343 N 
ATOM      4  C   UNL     1      32.182  -9.045 -21.718  0.00  0.00    +0.038 C 
ATOM      5  C   UNL     1      31.809  -7.767 -22.143  0.00  0.00    +0.034 C 
ATOM      6  C   UNL     1      32.454  -9.904 -22.836  0.00  0.00    +0.010 C 
ATOM      7  C   UNL     1      31.495  -6.758 -21.223  0.00  0.00    +0.028 C 
ATOM      8  C   UNL     1      32.235  -9.295 -20.338  0.00  0.00    +0.126 C 
ATOM      9  C   UNL     1      32.286  -9.275 -24.047  0.00  0.00    +0.036 C 
ATOM     10  C   UNL     1      31.580  -7.114 -19.888  0.00  0.00    +0.101 C 
ATOM     11  H   UNL     1      32.638 -10.723 -18.874  0.00  0.00    +0.144 HD
ATOM     12  H   UNL     1      32.832 -11.287 -20.472  0.00  0.00    +0.144 HD
ENDROOT
BRANCH   6  13
ATOM     13  C   UNL     1      32.865 -11.286 -22.820  0.00  0.00    +0.001 C 
ATOM     14  C   UNL     1      32.075 -12.242 -22.182  0.00  0.00    +0.001 C 
ATOM     15  C   UNL     1      34.054 -11.666 -23.443  0.00  0.00    +0.001 C 
ATOM     16  C   UNL     1      33.662 -13.959 -22.791  0.00  0.00    +0.052 C 
ATOM     17  C   UNL     1      32.474 -13.579 -22.167  0.00  0.00    +0.015 C 
ATOM     18  C   UNL     1      34.453 -13.003 -23.429  0.00  0.00    +0.015 C 
BRANCH  16  20
ATOM     19  O   UNL     1      34.740 -15.627 -20.560  0.00  0.00    -0.252 OA
ATOM     20  N   UNL     1      34.060 -15.296 -22.777  0.00  0.00    -0.268 N 
ATOM     21  N   UNL     1      34.844 -17.366 -22.119  0.00  0.00    -0.268 N 
ATOM     22  C   UNL     1      34.569 -16.057 -21.696  0.00  0.00    +0.308 C 
ATOM     23  H   UNL     1      33.977 -15.775 -23.634  0.00  0.00    +0.156 HD
ATOM     24  H   UNL     1      34.655 -17.565 -23.064  0.00  0.00    +0.156 HD
BRANCH  21  26
ATOM     25  F   UNL     1      34.183 -21.400 -19.599  0.00  0.00    -0.204 F 
ATOM     26  C   UNL     1      35.362 -18.439 -21.353  0.00  0.00    +0.054 C 
ATOM     27  C   UNL     1      34.500 -19.410 -20.844  0.00  0.00    +0.044 C 
ATOM     28  C   UNL     1      36.732 -18.523 -21.107  0.00  0.00    +0.015 C 
ATOM     29  C   UNL     1      35.009 -20.467 -20.088  0.00  0.00    +0.141 C 
ATOM     30  C   UNL     1      37.241 -19.579 -20.352  0.00  0.00    +0.004 C 
ATOM     31  C   UNL     1      36.380 -20.551 -19.842  0.00  0.00    +0.030 C 
ENDBRANCH  21  26
ENDBRANCH  16  20
ENDBRANCH   6  13
BRANCH   7  34
ATOM     32  N   UNL     1      31.185  -3.468 -22.567  0.00  0.00    -0.208 N 
ATOM     33  N   UNL     1      29.971  -3.496 -21.989  0.00  0.00    -0.176 NA
ATOM     34  C   UNL     1      31.112  -5.444 -21.639  0.00  0.00    +0.039 C 
ATOM     35  C   UNL     1      31.908  -4.610 -22.386  0.00  0.00    +0.086 C 
ATOM     36  C   UNL     1      29.933  -4.706 -21.425  0.00  0.00    +0.119 C 
BRANCH  32  37
ATOM     37  C   UNL     1      31.606  -2.293 -23.292  0.00  0.00    +0.148 C 
BRANCH  37  38
ATOM     38  C   UNL     1      30.551  -1.815 -24.284  0.00  0.00    +0.161 C 
BRANCH  38  39
ATOM     39  O   UNL     1      29.777  -2.921 -24.731  0.00  0.00    -0.380 OA
ATOM     40  H   UNL     1      30.366  -3.611 -25.074  0.00  0.00    +0.211 HD
ENDBRANCH  38  39
ENDBRANCH  37  38
ENDBRANCH  32  37
ENDBRANCH   7  34
TORSDOF 7
ENDMDL
MODEL 4
REMARK VINA RESULT:      -9.9      4.115     12.688
REMARK  Name = 46207586
REMARK  7 active torsions:
REMARK  status: ('A' for Active; 'I' for Inactive)
REMARK    1  A    between atoms: C_6  and  C_13
REMARK    2  A    between atoms: C_7  and  C_34
REMARK    3  A    between atoms: C_16  and  N_20
REMARK    4  A    between atoms: N_21  and  C_26
REMARK    5  A    between atoms: N_32  and  C_37
REMARK    6  A    between atoms: C_37  and  C_38
REMARK    7  A    between atoms: C_38  and  O_39
REMARK                            x       y       z     vdW  Elec       q    Type
REMARK                         _______ _______ _______ _____ _____    ______ ____
ROOT
ATOM      1  S   UNL     1      34.404  -8.743 -24.092  0.00  0.00    -0.086 S 
ATOM      2  N   UNL     1      30.445  -9.870 -22.324  0.00  0.00    -0.230 NA
ATOM      3  N   UNL     1      31.205 -12.102 -22.156  0.00  0.00    -0.343 N 
ATOM      4  C   UNL     1      32.668 -10.373 -23.082  0.00  0.00    +0.038 C 
ATOM      5  C   UNL     1      32.840  -9.029 -23.426  0.00  0.00    +0.034 C 
ATOM      6  C   UNL     1      33.845 -11.138 -23.381  0.00  0.00    +0.010 C 
ATOM      7  C   UNL     1      31.819  -8.091 -23.224  0.00  0.00    +0.028 C 
ATOM      8  C   UNL     1      31.440 -10.762 -22.526  0.00  0.00    +0.126 C 
ATOM      9  C   UNL     1      34.853 -10.379 -23.927  0.00  0.00    +0.036 C 
ATOM     10  C   UNL     1      30.651  -8.584 -22.670  0.00  0.00    +0.101 C 
ATOM     11  H   UNL     1      30.338 -12.361 -21.767  0.00  0.00    +0.144 HD
ATOM     12  H   UNL     1      31.907 -12.779 -22.287  0.00  0.00    +0.144 HD
ENDROOT
BRANCH   6  13
ATOM     13  C   UNL     1      34.068 -12.548 -23.175  0.00  0.00    +0.001 C 
ATOM     14  C   UNL     1      34.537 -13.009 -21.945  0.00  0.00    +0.001 C 
ATOM     15  C   UNL     1      33.815 -13.451 -24.207  0.00  0.00    +0.001 C 
ATOM     16  C   UNL     1      34.499 -15.276 -22.779  0.00  0.00    +0.052 C 
ATOM     17  C   UNL     1      34.752 -14.373 -21.747  0.00  0.00    +0.015 C 
ATOM     18  C   UNL     1      34.030 -14.816 -24.010  0.00  0.00    +0.015 C 
BRANCH  16  20
ATOM     19  O   UNL     1      34.885 -16.819 -20.251  0.00  0.00    -0.252 OA
ATOM     20  N   UNL     1      34.713 -16.640 -22.581  0.00  0.00    -0.268 N 
ATOM     21  N   UNL     1      35.080 -18.707 -21.617  0.00  0.00    -0.268 N 
ATOM     22  C   UNL     1      34.893 -17.339 -21.362  0.00  0.00    +0.308 C 
ATOM     23  H   UNL     1      34.744 -17.191 -23.397  0.00  0.00    +0.156 HD
ATOM     24  H   UNL     1      35.060 -18.977 -22.563  0.00  0.00    +0.156 HD
BRANCH  21  26
ATOM     25  F   UNL     1      33.384 -22.240 -18.842  0.00  0.00    -0.204 F 
ATOM     26  C   UNL     1      35.292 -19.746 -20.680  0.00  0.00    +0.054 C 
ATOM     27  C   UNL     1      34.212 -20.495 -20.214  0.00  0.00    +0.044 C 
ATOM     28  C   UNL     1      36.581 -20.021 -20.223  0.00  0.00    +0.015 C 
ATOM     29  C   UNL     1      34.420 -21.520 -19.290  0.00  0.00    +0.141 C 
ATOM     30  C   UNL     1      36.790 -21.045 -19.299  0.00  0.00    +0.004 C 
ATOM     31  C   UNL     1      35.709 -21.794 -18.833  0.00  0.00    +0.030 C 
ENDBRANCH  21  26
ENDBRANCH  16  20
ENDBRANCH   6  13
BRANCH   7  34
ATOM     32  N   UNL     1      31.917  -4.845 -24.703  0.00  0.00    -0.208 N 
ATOM     33  N   UNL     1      32.475  -4.483 -23.535  0.00  0.00    -0.176 NA
ATOM     34  C   UNL     1      31.977  -6.712 -23.569  0.00  0.00    +0.039 C 
ATOM     35  C   UNL     1      31.601  -6.170 -24.774  0.00  0.00    +0.086 C 
ATOM     36  C   UNL     1      32.508  -5.626 -22.847  0.00  0.00    +0.119 C 
BRANCH  32  37
ATOM     37  C   UNL     1      31.709  -3.858 -25.735  0.00  0.00    +0.148 C 
BRANCH  37  38
ATOM     38  C   UNL     1      30.912  -2.657 -25.237  0.00  0.00    +0.161 C 
BRANCH  38  39
ATOM     39  O   UNL     1      29.836  -3.101 -24.420  0.00  0.00    -0.380 OA
ATOM     40  H   UNL     1      29.109  -2.462 -24.467  0.00  0.00    +0.211 HD
ENDBRANCH  38  39
ENDBRANCH  37  38
ENDBRANCH  32  37
ENDBRANCH   7  34
TORSDOF 7
ENDMDL
MODEL 5
REMARK VINA RESULT:      -8.7      5.578      9.773
REMARK  Name = 46207586
REMARK  7 active torsions:
REMARK  status: ('A' for Active; 'I' for Inactive)
REMARK    1  A    between atoms: C_6  and  C_13
REMARK    2  A    between atoms: C_7  and  C_34
REMARK    3  A    between atoms: C_16  and  N_20
REMARK    4  A    between atoms: N_21  and  C_26
REMARK    5  A    between atoms: N_32  and  C_37
REMARK    6  A    between atoms: C_37  and  C_38
REMARK    7  A    between atoms: C_38  and  O_39
REMARK                            x       y       z     vdW  Elec       q    Type
REMARK                         _______ _______ _______ _____ _____    ______ ____
ROOT
ATOM      1  S   UNL     1      37.540 -22.758 -15.922  0.00  0.00    -0.086 S 
ATOM      2  N   UNL     1      33.206 -23.693 -16.567  0.00  0.00    -0.230 NA
ATOM      3  N   UNL     1      33.199 -22.190 -18.392  0.00  0.00    -0.343 N 
ATOM      4  C   UNL     1      35.251 -22.553 -17.108  0.00  0.00    +0.038 C 
ATOM      5  C   UNL     1      35.882 -23.214 -16.050  0.00  0.00    +0.034 C 
ATOM      6  C   UNL     1      36.162 -21.680 -17.791  0.00  0.00    +0.010 C 
ATOM      7  C   UNL     1      35.186 -24.119 -15.240  0.00  0.00    +0.028 C 
ATOM      8  C   UNL     1      33.893 -22.821 -17.340  0.00  0.00    +0.126 C 
ATOM      9  C   UNL     1      37.427 -21.698 -17.252  0.00  0.00    +0.036 C 
ATOM     10  C   UNL     1      33.852 -24.308 -15.558  0.00  0.00    +0.101 C 
ATOM     11  H   UNL     1      32.246 -22.388 -18.542  0.00  0.00    +0.144 HD
ATOM     12  H   UNL     1      33.667 -21.550 -18.976  0.00  0.00    +0.144 HD
ENDROOT
BRANCH   6  13
ATOM     13  C   UNL     1      35.902 -20.831 -18.927  0.00  0.00    +0.001 C 
ATOM     14  C   UNL     1      34.638 -20.821 -19.517  0.00  0.00    +0.001 C 
ATOM     15  C   UNL     1      36.915 -20.017 -19.436  0.00  0.00    +0.001 C 
ATOM     16  C   UNL     1      35.400 -19.186 -21.124  0.00  0.00    +0.052 C 
ATOM     17  C   UNL     1      34.387 -19.999 -20.616  0.00  0.00    +0.015 C 
ATOM     18  C   UNL     1      36.664 -19.195 -20.535  0.00  0.00    +0.015 C 
BRANCH  16  20
ATOM     19  O   UNL     1      34.444 -16.359 -21.236  0.00  0.00    -0.252 OA
ATOM     20  N   UNL     1      35.148 -18.363 -22.223  0.00  0.00    -0.268 N 
ATOM     21  N   UNL     1      34.574 -16.570 -23.560  0.00  0.00    -0.268 N 
ATOM     22  C   UNL     1      34.694 -17.022 -22.237  0.00  0.00    +0.308 C 
ATOM     23  H   UNL     1      35.308 -18.769 -23.106  0.00  0.00    +0.156 HD
ATOM     24  H   UNL     1      34.812 -17.219 -24.262  0.00  0.00    +0.156 HD
BRANCH  21  26
ATOM     25  F   UNL     1      34.267 -11.816 -22.957  0.00  0.00    -0.204 F 
ATOM     26  C   UNL     1      34.154 -15.296 -24.012  0.00  0.00    +0.054 C 
ATOM     27  C   UNL     1      34.423 -14.162 -23.247  0.00  0.00    +0.044 C 
ATOM     28  C   UNL     1      33.469 -15.176 -25.221  0.00  0.00    +0.015 C 
ATOM     29  C   UNL     1      34.008 -12.906 -23.691  0.00  0.00    +0.141 C 
ATOM     30  C   UNL     1      33.054 -13.921 -25.665  0.00  0.00    +0.004 C 
ATOM     31  C   UNL     1      33.324 -12.786 -24.900  0.00  0.00    +0.030 C 
ENDBRANCH  21  26
ENDBRANCH  16  20
ENDBRANCH   6  13
BRANCH   7  34
ATOM     32  N   UNL     1      36.519 -25.282 -12.141  0.00  0.00    -0.208 N 
ATOM     33  N   UNL     1      36.966 -26.312 -12.880  0.00  0.00    -0.176 NA
ATOM     34  C   UNL     1      35.816 -24.805 -14.154  0.00  0.00    +0.039 C 
ATOM     35  C   UNL     1      35.824 -24.352 -12.857  0.00  0.00    +0.086 C 
ATOM     36  C   UNL     1      36.533 -26.015 -14.107  0.00  0.00    +0.119 C 
BRANCH  32  37
ATOM     37  C   UNL     1      36.795 -25.242 -10.725  0.00  0.00    +0.148 C 
BRANCH  37  38
ATOM     38  C   UNL     1      35.973 -24.181 -10.002  0.00  0.00    +0.161 C 
BRANCH  38  39
ATOM     39  O   UNL     1      35.250 -24.780  -8.934  0.00  0.00    -0.380 OA
ATOM     40  H   UNL     1      34.869 -25.620  -9.232  0.00  0.00    +0.211 HD
ENDBRANCH  38  39
ENDBRANCH  37  38
ENDBRANCH  32  37
ENDBRANCH   7  34
TORSDOF 7
ENDMDL
MODEL 6
REMARK VINA RESULT:      -8.6      4.215     12.679
REMARK  Name = 46207586
REMARK  7 active torsions:
REMARK  status: ('A' for Active; 'I' for Inactive)
REMARK    1  A    between atoms: C_6  and  C_13
REMARK    2  A    between atoms: C_7  and  C_34
REMARK    3  A    between atoms: C_16  and  N_20
REMARK    4  A    between atoms: N_21  and  C_26
REMARK    5  A    between atoms: N_32  and  C_37
REMARK    6  A    between atoms: C_37  and  C_38
REMARK    7  A    between atoms: C_38  and  O_39
REMARK                            x       y       z     vdW  Elec       q    Type
REMARK                         _______ _______ _______ _____ _____    ______ ____
ROOT
ATOM      1  S   UNL     1      33.922  -9.578 -24.334  0.00  0.00    -0.086 S 
ATOM      2  N   UNL     1      30.537 -10.701 -21.622  0.00  0.00    -0.230 NA
ATOM      3  N   UNL     1      31.508 -12.842 -21.370  0.00  0.00    -0.343 N 
ATOM      4  C   UNL     1      32.586 -11.164 -22.787  0.00  0.00    +0.038 C 
ATOM      5  C   UNL     1      32.564  -9.869 -23.312  0.00  0.00    +0.034 C 
ATOM      6  C   UNL     1      33.737 -11.889 -23.247  0.00  0.00    +0.010 C 
ATOM      7  C   UNL     1      31.530  -8.976 -23.000  0.00  0.00    +0.028 C 
ATOM      8  C   UNL     1      31.542 -11.551 -21.934  0.00  0.00    +0.126 C 
ATOM      9  C   UNL     1      34.536 -11.149 -24.085  0.00  0.00    +0.036 C 
ATOM     10  C   UNL     1      30.553  -9.462 -22.150  0.00  0.00    +0.101 C 
ATOM     11  H   UNL     1      30.768 -13.099 -20.773  0.00  0.00    +0.144 HD
ATOM     12  H   UNL     1      32.223 -13.487 -21.574  0.00  0.00    +0.144 HD
ENDROOT
BRANCH   6  13
ATOM     13  C   UNL     1      34.120 -13.244 -22.935  0.00  0.00    +0.001 C 
ATOM     14  C   UNL     1      34.006 -14.242 -23.902  0.00  0.00    +0.001 C 
ATOM     15  C   UNL     1      34.607 -13.555 -21.666  0.00  0.00    +0.001 C 
ATOM     16  C   UNL     1      34.865 -15.863 -22.330  0.00  0.00    +0.052 C 
ATOM     17  C   UNL     1      34.378 -15.553 -23.600  0.00  0.00    +0.015 C 
ATOM     18  C   UNL     1      34.980 -14.865 -21.363  0.00  0.00    +0.015 C 
BRANCH  16  20
ATOM     19  O   UNL     1      34.013 -17.641 -20.087  0.00  0.00    -0.252 OA
ATOM     20  N   UNL     1      35.238 -17.173 -22.028  0.00  0.00    -0.268 N 
ATOM     21  N   UNL     1      35.436 -19.243 -21.022  0.00  0.00    -0.268 N 
ATOM     22  C   UNL     1      34.811 -17.988 -20.951  0.00  0.00    +0.308 C 
ATOM     23  H   UNL     1      35.884 -17.587 -22.646  0.00  0.00    +0.156 HD
ATOM     24  H   UNL     1      36.055 -19.375 -21.776  0.00  0.00    +0.156 HD
BRANCH  21  26
ATOM     25  F   UNL     1      37.238 -22.227 -17.720  0.00  0.00    -0.204 F 
ATOM     26  C   UNL     1      35.286 -20.343 -20.143  0.00  0.00    +0.054 C 
ATOM     27  C   UNL     1      36.357 -20.750 -19.349  0.00  0.00    +0.044 C 
ATOM     28  C   UNL     1      34.068 -21.018 -20.074  0.00  0.00    +0.015 C 
ATOM     29  C   UNL     1      36.211 -21.835 -18.484  0.00  0.00    +0.141 C 
ATOM     30  C   UNL     1      33.921 -22.103 -19.209  0.00  0.00    +0.004 C 
ATOM     31  C   UNL     1      34.993 -22.511 -18.414  0.00  0.00    +0.030 C 
ENDBRANCH  21  26
ENDBRANCH  16  20
ENDBRANCH   6  13
BRANCH   7  34
ATOM     32  N   UNL     1      31.548  -5.465 -23.638  0.00  0.00    -0.208 N 
ATOM     33  N   UNL     1      31.332  -5.837 -24.912  0.00  0.00    -0.176 NA
ATOM     34  C   UNL     1      31.491  -7.646 -23.527  0.00  0.00    +0.039 C 
ATOM     35  C   UNL     1      31.650  -6.512 -22.769  0.00  0.00    +0.086 C 
ATOM     36  C   UNL     1      31.299  -7.169 -24.837  0.00  0.00    +0.119 C 
BRANCH  32  37
ATOM     37  C   UNL     1      31.647  -4.064 -23.307  0.00  0.00    +0.148 C 
BRANCH  37  38
ATOM     38  C   UNL     1      30.770  -3.685 -22.118  0.00  0.00    +0.161 C 
BRANCH  38  39
ATOM     39  O   UNL     1      31.286  -2.514 -21.497  0.00  0.00    -0.380 OA
ATOM     40  H   UNL     1      32.254  -2.511 -21.566  0.00  0.00    +0.211 HD
ENDBRANCH  38  39
ENDBRANCH  37  38
ENDBRANCH  32  37
ENDBRANCH   7  34
TORSDOF 7
ENDMDL
