MODEL 1
REMARK VINA RESULT:     -11.3      0.000      0.000
REMARK  Name = 5288708
REMARK  4 active torsions:
REMARK  status: ('A' for Active; 'I' for Inactive)
REMARK    1  A    between atoms: N_1  and  C_9
REMARK    2  A    between atoms: N_1  and  C_16
REMARK    3  A    between atoms: C_15  and  S_21
REMARK    4  A    between atoms: S_21  and  N_24
REMARK                            x       y       z     vdW  Elec       q    Type
REMARK                         _______ _______ _______ _____ _____    ______ ____
ROOT
ATOM      1  N   UNL     1      36.055 -18.556 -21.558  0.00  0.00    -0.311 N 
ATOM      2  H   UNL     1      36.844 -18.813 -22.087  0.00  0.00    +0.152 HD
ENDROOT
BRANCH   1   9
ATOM      3  O   UNL     1      34.815 -18.672 -24.177  0.00  0.00    -0.270 OA
ATOM      4  N   UNL     1      33.964 -16.548 -24.765  0.00  0.00    -0.280 N 
ATOM      5  C   UNL     1      34.553 -15.344 -22.896  0.00  0.00    +0.019 C 
ATOM      6  C   UNL     1      34.999 -16.723 -22.730  0.00  0.00    +0.069 C 
ATOM      7  C   UNL     1      33.931 -15.294 -24.147  0.00  0.00    +0.051 C 
ATOM      8  C   UNL     1      34.607 -17.493 -23.959  0.00  0.00    +0.251 C 
ATOM      9  C   UNL     1      35.646 -17.269 -21.699  0.00  0.00    +0.066 C 
ATOM     10  C   UNL     1      34.638 -14.214 -22.105  0.00  0.00    +0.001 C 
ATOM     11  C   UNL     1      33.378 -14.132 -24.652  0.00  0.00    +0.015 C 
ATOM     12  C   UNL     1      34.084 -13.027 -22.596  0.00  0.00    +0.000 C 
ATOM     13  C   UNL     1      33.460 -12.987 -23.859  0.00  0.00    +0.001 C 
ATOM     14  H   UNL     1      33.584 -16.741 -25.652  0.00  0.00    +0.155 HD
ENDBRANCH   1   9
BRANCH   1  16
ATOM     15  C   UNL     1      34.403 -21.580 -19.157  0.00  0.00    +0.122 C 
ATOM     16  C   UNL     1      35.503 -19.567 -20.756  0.00  0.00    +0.048 C 
ATOM     17  C   UNL     1      33.572 -20.776 -19.937  0.00  0.00    +0.021 C 
ATOM     18  C   UNL     1      35.784 -21.380 -19.176  0.00  0.00    +0.021 C 
ATOM     19  C   UNL     1      34.120 -19.772 -20.735  0.00  0.00    +0.016 C 
ATOM     20  C   UNL     1      36.332 -20.375 -19.973  0.00  0.00    +0.016 C 
BRANCH  15  21
ATOM     21  S   UNL     1      33.717 -22.837 -18.159  0.00  0.00    +0.060 S 
ATOM     22  O   UNL     1      32.379 -22.431 -17.746  0.00  0.00    -0.153 OA
ATOM     23  O   UNL     1      33.895 -24.104 -18.855  0.00  0.00    -0.153 OA
BRANCH  21  24
ATOM     24  N   UNL     1      34.740 -22.819 -16.789  0.00  0.00    -0.178 NA
ATOM     25  C   UNL     1      34.314 -23.483 -15.549  0.00  0.00    +0.110 C 
ATOM     26  H   UNL     1      34.906 -21.840 -16.557  0.00  0.00    +0.149 HD
ENDBRANCH  21  24
ENDBRANCH  15  21
ENDBRANCH   1  16
TORSDOF 4
ENDMDL
MODEL 2
REMARK VINA RESULT:     -11.2      1.466      2.134
REMARK  Name = 5288708
REMARK  4 active torsions:
REMARK  status: ('A' for Active; 'I' for Inactive)
REMARK    1  A    between atoms: N_1  and  C_9
REMARK    2  A    between atoms: N_1  and  C_16
REMARK    3  A    between atoms: C_15  and  S_21
REMARK    4  A    between atoms: S_21  and  N_24
REMARK                            x       y       z     vdW  Elec       q    Type
REMARK                         _______ _______ _______ _____ _____    ______ ____
ROOT
ATOM      1  N   UNL     1      36.131 -18.414 -21.417  0.00  0.00    -0.311 N 
ATOM      2  H   UNL     1      37.055 -18.166 -21.188  0.00  0.00    +0.152 HD
ENDROOT
BRANCH   1   9
ATOM      3  O   UNL     1      35.227 -16.084 -19.947  0.00  0.00    -0.270 OA
ATOM      4  N   UNL     1      34.158 -14.568 -21.410  0.00  0.00    -0.280 N 
ATOM      5  C   UNL     1      34.350 -15.715 -23.393  0.00  0.00    +0.019 C 
ATOM      6  C   UNL     1      34.967 -16.502 -22.331  0.00  0.00    +0.069 C 
ATOM      7  C   UNL     1      33.876 -14.552 -22.780  0.00  0.00    +0.051 C 
ATOM      8  C   UNL     1      34.831 -15.739 -21.044  0.00  0.00    +0.251 C 
ATOM      9  C   UNL     1      35.560 -17.693 -22.416  0.00  0.00    +0.066 C 
ATOM     10  C   UNL     1      34.180 -15.916 -24.750  0.00  0.00    +0.001 C 
ATOM     11  C   UNL     1      33.224 -13.557 -23.483  0.00  0.00    +0.015 C 
ATOM     12  C   UNL     1      33.523 -14.921 -25.482  0.00  0.00    +0.000 C 
ATOM     13  C   UNL     1      33.049 -13.753 -24.854  0.00  0.00    +0.001 C 
ATOM     14  H   UNL     1      33.914 -13.848 -20.783  0.00  0.00    +0.155 HD
ENDBRANCH   1   9
BRANCH   1  16
ATOM     15  C   UNL     1      34.473 -21.556 -19.176  0.00  0.00    +0.122 C 
ATOM     16  C   UNL     1      35.576 -19.464 -20.668  0.00  0.00    +0.048 C 
ATOM     17  C   UNL     1      35.853 -21.352 -19.178  0.00  0.00    +0.021 C 
ATOM     18  C   UNL     1      33.643 -20.714 -19.918  0.00  0.00    +0.021 C 
ATOM     19  C   UNL     1      36.403 -20.309 -19.922  0.00  0.00    +0.016 C 
ATOM     20  C   UNL     1      34.194 -19.671 -20.663  0.00  0.00    +0.016 C 
BRANCH  15  21
ATOM     21  S   UNL     1      33.783 -22.861 -18.245  0.00  0.00    +0.060 S 
ATOM     22  O   UNL     1      32.453 -22.467 -17.798  0.00  0.00    -0.153 OA
ATOM     23  O   UNL     1      33.944 -24.088 -19.014  0.00  0.00    -0.153 OA
BRANCH  21  24
ATOM     24  N   UNL     1      34.818 -22.931 -16.885  0.00  0.00    -0.178 NA
ATOM     25  C   UNL     1      34.354 -23.568 -15.645  0.00  0.00    +0.110 C 
ATOM     26  H   UNL     1      35.061 -21.969 -16.650  0.00  0.00    +0.149 HD
ENDBRANCH  21  24
ENDBRANCH  15  21
ENDBRANCH   1  16
TORSDOF 4
ENDMDL
MODEL 3
REMARK VINA RESULT:     -10.4      3.988      6.724
REMARK  Name = 5288708
REMARK  4 active torsions:
REMARK  status: ('A' for Active; 'I' for Inactive)
REMARK    1  A    between atoms: N_1  and  C_9
REMARK    2  A    between atoms: N_1  and  C_16
REMARK    3  A    between atoms: C_15  and  S_21
REMARK    4  A    between atoms: S_21  and  N_24
REMARK                            x       y       z     vdW  Elec       q    Type
REMARK                         _______ _______ _______ _____ _____    ______ ____
ROOT
ATOM      1  N   UNL     1      35.027 -22.909 -16.809  0.00  0.00    -0.311 N 
ATOM      2  H   UNL     1      34.272 -23.444 -17.144  0.00  0.00    +0.152 HD
ENDROOT
BRANCH   1   9
ATOM      3  O   UNL     1      32.725 -22.313 -18.470  0.00  0.00    -0.270 OA
ATOM      4  N   UNL     1      33.330 -20.797 -20.178  0.00  0.00    -0.280 N 
ATOM      5  C   UNL     1      35.558 -20.504 -19.690  0.00  0.00    +0.019 C 
ATOM      6  C   UNL     1      34.980 -21.431 -18.723  0.00  0.00    +0.069 C 
ATOM      7  C   UNL     1      34.513 -20.150 -20.549  0.00  0.00    +0.051 C 
ATOM      8  C   UNL     1      33.527 -21.612 -19.058  0.00  0.00    +0.251 C 
ATOM      9  C   UNL     1      35.578 -22.048 -17.702  0.00  0.00    +0.066 C 
ATOM     10  C   UNL     1      36.826 -19.983 -19.869  0.00  0.00    +0.001 C 
ATOM     11  C   UNL     1      34.687 -19.276 -21.605  0.00  0.00    +0.015 C 
ATOM     12  C   UNL     1      37.024 -19.095 -20.931  0.00  0.00    +0.000 C 
ATOM     13  C   UNL     1      35.965 -18.745 -21.791  0.00  0.00    +0.001 C 
ATOM     14  H   UNL     1      32.470 -20.693 -20.645  0.00  0.00    +0.155 HD
ENDBRANCH   1   9
BRANCH   1  16
ATOM     15  C   UNL     1      36.121 -23.594 -12.812  0.00  0.00    +0.122 C 
ATOM     16  C   UNL     1      35.393 -23.138 -15.473  0.00  0.00    +0.048 C 
ATOM     17  C   UNL     1      34.818 -23.856 -13.234  0.00  0.00    +0.021 C 
ATOM     18  C   UNL     1      37.062 -23.105 -13.720  0.00  0.00    +0.021 C 
ATOM     19  C   UNL     1      34.454 -23.629 -14.562  0.00  0.00    +0.016 C 
ATOM     20  C   UNL     1      36.699 -22.877 -15.047  0.00  0.00    +0.016 C 
BRANCH  15  21
ATOM     21  S   UNL     1      36.576 -23.878 -11.151  0.00  0.00    +0.060 S 
ATOM     22  O   UNL     1      37.319 -22.722 -10.664  0.00  0.00    -0.153 OA
ATOM     23  O   UNL     1      35.387 -24.317 -10.434  0.00  0.00    -0.153 OA
BRANCH  21  24
ATOM     24  N   UNL     1      37.652 -25.201 -11.285  0.00  0.00    -0.178 NA
ATOM     25  C   UNL     1      37.322 -26.324 -12.173  0.00  0.00    +0.110 C 
ATOM     26  H   UNL     1      37.761 -25.588 -10.348  0.00  0.00    +0.149 HD
ENDBRANCH  21  24
ENDBRANCH  15  21
ENDBRANCH   1  16
TORSDOF 4
ENDMDL
MODEL 4
REMARK VINA RESULT:     -10.4      2.749      9.619
REMARK  Name = 5288708
REMARK  4 active torsions:
REMARK  status: ('A' for Active; 'I' for Inactive)
REMARK    1  A    between atoms: N_1  and  C_9
REMARK    2  A    between atoms: N_1  and  C_16
REMARK    3  A    between atoms: C_15  and  S_21
REMARK    4  A    between atoms: S_21  and  N_24
REMARK                            x       y       z     vdW  Elec       q    Type
REMARK                         _______ _______ _______ _____ _____    ______ ____
ROOT
ATOM      1  N   UNL     1      34.577 -22.776 -17.791  0.00  0.00    -0.311 N 
ATOM      2  H   UNL     1      35.310 -23.409 -17.619  0.00  0.00    +0.152 HD
ENDROOT
BRANCH   1   9
ATOM      3  O   UNL     1      35.623 -24.139 -15.455  0.00  0.00    -0.270 OA
ATOM      4  N   UNL     1      33.860 -24.693 -13.984  0.00  0.00    -0.280 N 
ATOM      5  C   UNL     1      32.072 -23.852 -15.159  0.00  0.00    +0.019 C 
ATOM      6  C   UNL     1      33.293 -23.604 -15.916  0.00  0.00    +0.069 C 
ATOM      7  C   UNL     1      32.473 -24.514 -13.995  0.00  0.00    +0.051 C 
ATOM      8  C   UNL     1      34.449 -24.161 -15.136  0.00  0.00    +0.251 C 
ATOM      9  C   UNL     1      33.431 -23.000 -17.098  0.00  0.00    +0.066 C 
ATOM     10  C   UNL     1      30.738 -23.568 -15.385  0.00  0.00    +0.001 C 
ATOM     11  C   UNL     1      31.575 -24.915 -13.025  0.00  0.00    +0.015 C 
ATOM     12  C   UNL     1      29.811 -23.963 -14.414  0.00  0.00    +0.000 C 
ATOM     13  C   UNL     1      30.226 -24.632 -13.246  0.00  0.00    +0.001 C 
ATOM     14  H   UNL     1      34.358 -25.137 -13.259  0.00  0.00    +0.155 HD
ENDBRANCH   1   9
BRANCH   1  16
ATOM     15  C   UNL     1      35.401 -19.743 -20.577  0.00  0.00    +0.122 C 
ATOM     16  C   UNL     1      34.852 -21.762 -18.723  0.00  0.00    +0.048 C 
ATOM     17  C   UNL     1      36.442 -20.335 -19.862  0.00  0.00    +0.021 C 
ATOM     18  C   UNL     1      34.086 -20.159 -20.368  0.00  0.00    +0.021 C 
ATOM     19  C   UNL     1      36.168 -21.342 -18.937  0.00  0.00    +0.016 C 
ATOM     20  C   UNL     1      33.812 -21.166 -19.442  0.00  0.00    +0.016 C 
BRANCH  15  21
ATOM     21  S   UNL     1      35.743 -18.482 -21.735  0.00  0.00    +0.060 S 
ATOM     22  O   UNL     1      37.181 -18.435 -21.967  0.00  0.00    -0.153 OA
ATOM     23  O   UNL     1      34.842 -18.662 -22.867  0.00  0.00    -0.153 OA
BRANCH  21  24
ATOM     24  N   UNL     1      35.279 -17.070 -20.889  0.00  0.00    -0.178 NA
ATOM     25  C   UNL     1      34.924 -15.854 -21.635  0.00  0.00    +0.110 C 
ATOM     26  H   UNL     1      36.057 -16.823 -20.278  0.00  0.00    +0.149 HD
ENDBRANCH  21  24
ENDBRANCH  15  21
ENDBRANCH   1  16
TORSDOF 4
ENDMDL
MODEL 5
REMARK VINA RESULT:      -9.9      3.845      6.331
REMARK  Name = 5288708
REMARK  4 active torsions:
REMARK  status: ('A' for Active; 'I' for Inactive)
REMARK    1  A    between atoms: N_1  and  C_9
REMARK    2  A    between atoms: N_1  and  C_16
REMARK    3  A    between atoms: C_15  and  S_21
REMARK    4  A    between atoms: S_21  and  N_24
REMARK                            x       y       z     vdW  Elec       q    Type
REMARK                         _______ _______ _______ _____ _____    ______ ____
ROOT
ATOM      1  N   UNL     1      33.425 -13.324 -24.083  0.00  0.00    -0.311 N 
ATOM      2  H   UNL     1      32.543 -13.373 -24.515  0.00  0.00    +0.152 HD
ENDROOT
BRANCH   1   9
ATOM      3  O   UNL     1      31.434 -11.995 -22.447  0.00  0.00    -0.270 OA
ATOM      4  N   UNL     1      32.065  -9.750 -22.068  0.00  0.00    -0.280 N 
ATOM      5  C   UNL     1      34.047  -9.684 -23.231  0.00  0.00    +0.019 C 
ATOM      6  C   UNL     1      33.479 -11.023 -23.341  0.00  0.00    +0.069 C 
ATOM      7  C   UNL     1      33.150  -8.952 -22.448  0.00  0.00    +0.051 C 
ATOM      8  C   UNL     1      32.186 -11.047 -22.577  0.00  0.00    +0.251 C 
ATOM      9  C   UNL     1      33.966 -12.082 -23.990  0.00  0.00    +0.066 C 
ATOM     10  C   UNL     1      35.198  -9.095 -23.721  0.00  0.00    +0.001 C 
ATOM     11  C   UNL     1      33.359  -7.625 -22.127  0.00  0.00    +0.015 C 
ATOM     12  C   UNL     1      35.430  -7.751 -23.408  0.00  0.00    +0.000 C 
ATOM     13  C   UNL     1      34.519  -7.023 -22.619  0.00  0.00    +0.001 C 
ATOM     14  H   UNL     1      31.313  -9.438 -21.514  0.00  0.00    +0.155 HD
ENDBRANCH   1   9
BRANCH   1  16
ATOM     15  C   UNL     1      35.024 -16.982 -22.778  0.00  0.00    +0.122 C 
ATOM     16  C   UNL     1      33.960 -14.547 -23.647  0.00  0.00    +0.048 C 
ATOM     17  C   UNL     1      34.569 -16.847 -24.090  0.00  0.00    +0.021 C 
ATOM     18  C   UNL     1      34.950 -15.900 -21.900  0.00  0.00    +0.021 C 
ATOM     19  C   UNL     1      34.038 -15.632 -24.523  0.00  0.00    +0.016 C 
ATOM     20  C   UNL     1      34.418 -14.685 -22.333  0.00  0.00    +0.016 C 
BRANCH  15  21
ATOM     21  S   UNL     1      35.688 -18.502 -22.235  0.00  0.00    +0.060 S 
ATOM     22  O   UNL     1      35.263 -19.554 -23.150  0.00  0.00    -0.153 OA
ATOM     23  O   UNL     1      37.111 -18.303 -21.988  0.00  0.00    -0.153 OA
BRANCH  21  24
ATOM     24  N   UNL     1      34.902 -18.733 -20.734  0.00  0.00    -0.178 NA
ATOM     25  C   UNL     1      34.195 -19.993 -20.465  0.00  0.00    +0.110 C 
ATOM     26  H   UNL     1      34.214 -17.985 -20.644  0.00  0.00    +0.149 HD
ENDBRANCH  21  24
ENDBRANCH  15  21
ENDBRANCH   1  16
TORSDOF 4
ENDMDL
MODEL 6
REMARK VINA RESULT:      -9.9      3.563      8.445
REMARK  Name = 5288708
REMARK  4 active torsions:
REMARK  status: ('A' for Active; 'I' for Inactive)
REMARK    1  A    between atoms: N_1  and  C_9
REMARK    2  A    between atoms: N_1  and  C_16
REMARK    3  A    between atoms: C_15  and  S_21
REMARK    4  A    between atoms: S_21  and  N_24
REMARK                            x       y       z     vdW  Elec       q    Type
REMARK                         _______ _______ _______ _____ _____    ______ ____
ROOT
ATOM      1  N   UNL     1      35.505 -18.617 -22.493  0.00  0.00    -0.311 N 
ATOM      2  H   UNL     1      36.315 -18.905 -22.973  0.00  0.00    +0.152 HD
ENDROOT
BRANCH   1   9
ATOM      3  O   UNL     1      37.678 -18.840 -20.585  0.00  0.00    -0.270 OA
ATOM      4  N   UNL     1      37.104 -20.371 -18.880  0.00  0.00    -0.280 N 
ATOM      5  C   UNL     1      35.001 -20.986 -19.578  0.00  0.00    +0.019 C 
ATOM      6  C   UNL     1      35.547 -20.016 -20.521  0.00  0.00    +0.069 C 
ATOM      7  C   UNL     1      35.986 -21.165 -18.603  0.00  0.00    +0.051 C 
ATOM      8  C   UNL     1      36.919 -19.627 -20.051  0.00  0.00    +0.251 C 
ATOM      9  C   UNL     1      34.984 -19.521 -21.625  0.00  0.00    +0.066 C 
ATOM     10  C   UNL     1      33.804 -21.674 -19.507  0.00  0.00    +0.001 C 
ATOM     11  C   UNL     1      35.821 -22.024 -17.533  0.00  0.00    +0.015 C 
ATOM     12  C   UNL     1      33.615 -22.549 -18.432  0.00  0.00    +0.000 C 
ATOM     13  C   UNL     1      34.615 -22.723 -17.455  0.00  0.00    +0.001 C 
ATOM     14  H   UNL     1      37.916 -20.341 -18.324  0.00  0.00    +0.155 HD
ENDBRANCH   1   9
BRANCH   1  16
ATOM     15  C   UNL     1      34.116 -14.759 -23.405  0.00  0.00    +0.122 C 
ATOM     16  C   UNL     1      35.041 -17.327 -22.798  0.00  0.00    +0.048 C 
ATOM     17  C   UNL     1      34.565 -15.053 -22.117  0.00  0.00    +0.021 C 
ATOM     18  C   UNL     1      34.130 -15.747 -24.390  0.00  0.00    +0.021 C 
ATOM     19  C   UNL     1      35.027 -16.335 -21.815  0.00  0.00    +0.016 C 
ATOM     20  C   UNL     1      34.590 -17.029 -24.087  0.00  0.00    +0.016 C 
BRANCH  15  21
ATOM     21  S   UNL     1      33.538 -13.157 -23.784  0.00  0.00    +0.060 S 
ATOM     22  O   UNL     1      34.552 -12.187 -23.389  0.00  0.00    -0.153 OA
ATOM     23  O   UNL     1      33.061 -13.171 -25.161  0.00  0.00    -0.153 OA
BRANCH  21  24
ATOM     24  N   UNL     1      32.192 -12.995 -22.742  0.00  0.00    -0.178 NA
ATOM     25  C   UNL     1      31.908 -11.699 -22.110  0.00  0.00    +0.110 C 
ATOM     26  H   UNL     1      32.319 -13.669 -21.988  0.00  0.00    +0.149 HD
ENDBRANCH  21  24
ENDBRANCH  15  21
ENDBRANCH   1  16
TORSDOF 4
ENDMDL
MODEL 7
REMARK VINA RESULT:      -9.8      3.911      8.759
REMARK  Name = 5288708
REMARK  4 active torsions:
REMARK  status: ('A' for Active; 'I' for Inactive)
REMARK    1  A    between atoms: N_1  and  C_9
REMARK    2  A    between atoms: N_1  and  C_16
REMARK    3  A    between atoms: C_15  and  S_21
REMARK    4  A    between atoms: S_21  and  N_24
REMARK                            x       y       z     vdW  Elec       q    Type
REMARK                         _______ _______ _______ _____ _____    ______ ____
ROOT
ATOM      1  N   UNL     1      35.309 -17.356 -22.723  0.00  0.00    -0.311 N 
ATOM      2  H   UNL     1      36.127 -17.601 -23.213  0.00  0.00    +0.152 HD
ENDROOT
BRANCH   1   9
ATOM      3  O   UNL     1      37.658 -18.301 -21.310  0.00  0.00    -0.270 OA
ATOM      4  N   UNL     1      37.070 -20.059 -19.846  0.00  0.00    -0.280 N 
ATOM      5  C   UNL     1      34.811 -20.192 -20.259  0.00  0.00    +0.019 C 
ATOM      6  C   UNL     1      35.382 -19.134 -21.086  0.00  0.00    +0.069 C 
ATOM      7  C   UNL     1      35.878 -20.719 -19.526  0.00  0.00    +0.051 C 
ATOM      8  C   UNL     1      36.855 -19.063 -20.805  0.00  0.00    +0.251 C 
ATOM      9  C   UNL     1      34.764 -18.337 -21.960  0.00  0.00    +0.066 C 
ATOM     10  C   UNL     1      33.533 -20.694 -20.105  0.00  0.00    +0.001 C 
ATOM     11  C   UNL     1      35.717 -21.753 -18.624  0.00  0.00    +0.015 C 
ATOM     12  C   UNL     1      33.346 -21.741 -19.196  0.00  0.00    +0.000 C 
ATOM     13  C   UNL     1      34.428 -22.266 -18.463  0.00  0.00    +0.001 C 
ATOM     14  H   UNL     1      37.945 -20.269 -19.448  0.00  0.00    +0.155 HD
ENDBRANCH   1   9
BRANCH   1  16
ATOM     15  C   UNL     1      33.964 -13.415 -23.276  0.00  0.00    +0.122 C 
ATOM     16  C   UNL     1      34.859 -16.038 -22.908  0.00  0.00    +0.048 C 
ATOM     17  C   UNL     1      33.913 -14.325 -24.332  0.00  0.00    +0.021 C 
ATOM     18  C   UNL     1      34.461 -13.815 -22.035  0.00  0.00    +0.021 C 
ATOM     19  C   UNL     1      34.360 -15.634 -24.149  0.00  0.00    +0.016 C 
ATOM     20  C   UNL     1      34.908 -15.124 -21.851  0.00  0.00    +0.016 C 
BRANCH  15  21
ATOM     21  S   UNL     1      33.406 -11.777 -23.505  0.00  0.00    +0.060 S 
ATOM     22  O   UNL     1      32.721 -11.690 -24.789  0.00  0.00    -0.153 OA
ATOM     23  O   UNL     1      32.706 -11.373 -22.293  0.00  0.00    -0.153 OA
BRANCH  21  24
ATOM     24  N   UNL     1      34.871 -10.900 -23.607  0.00  0.00    -0.178 NA
ATOM     25  C   UNL     1      34.844  -9.430 -23.605  0.00  0.00    +0.110 C 
ATOM     26  H   UNL     1      35.326 -11.185 -24.474  0.00  0.00    +0.149 HD
ENDBRANCH  21  24
ENDBRANCH  15  21
ENDBRANCH   1  16
TORSDOF 4
ENDMDL
MODEL 8
REMARK VINA RESULT:      -9.6      2.491      9.794
REMARK  Name = 5288708
REMARK  4 active torsions:
REMARK  status: ('A' for Active; 'I' for Inactive)
REMARK    1  A    between atoms: N_1  and  C_9
REMARK    2  A    between atoms: N_1  and  C_16
REMARK    3  A    between atoms: C_15  and  S_21
REMARK    4  A    between atoms: S_21  and  N_24
REMARK                            x       y       z     vdW  Elec       q    Type
REMARK                         _______ _______ _______ _____ _____    ______ ____
ROOT
ATOM      1  N   UNL     1      34.133 -22.725 -17.782  0.00  0.00    -0.311 N 
ATOM      2  H   UNL     1      33.242 -23.128 -17.894  0.00  0.00    +0.152 HD
ENDROOT
BRANCH   1   9
ATOM      3  O   UNL     1      32.129 -22.716 -15.686  0.00  0.00    -0.270 OA
ATOM      4  N   UNL     1      33.070 -23.495 -13.664  0.00  0.00    -0.280 N 
ATOM      5  C   UNL     1      35.226 -23.905 -14.351  0.00  0.00    +0.019 C 
ATOM      6  C   UNL     1      34.456 -23.404 -15.484  0.00  0.00    +0.069 C 
ATOM      7  C   UNL     1      34.337 -23.941 -13.273  0.00  0.00    +0.051 C 
ATOM      8  C   UNL     1      33.053 -23.141 -15.017  0.00  0.00    +0.251 C 
ATOM      9  C   UNL     1      34.862 -23.192 -16.737  0.00  0.00    +0.066 C 
ATOM     10  C   UNL     1      36.540 -24.303 -14.195  0.00  0.00    +0.001 C 
ATOM     11  C   UNL     1      34.717 -24.368 -12.015  0.00  0.00    +0.015 C 
ATOM     12  C   UNL     1      36.947 -24.740 -12.930  0.00  0.00    +0.000 C 
ATOM     13  C   UNL     1      36.043 -24.771 -11.850  0.00  0.00    +0.001 C 
ATOM     14  H   UNL     1      32.292 -23.437 -13.064  0.00  0.00    +0.155 HD
ENDBRANCH   1   9
BRANCH   1  16
ATOM     15  C   UNL     1      35.173 -19.786 -20.597  0.00  0.00    +0.122 C 
ATOM     16  C   UNL     1      34.480 -21.743 -18.724  0.00  0.00    +0.048 C 
ATOM     17  C   UNL     1      36.169 -20.448 -19.879  0.00  0.00    +0.021 C 
ATOM     18  C   UNL     1      33.831 -20.102 -20.382  0.00  0.00    +0.021 C 
ATOM     19  C   UNL     1      35.823 -21.424 -18.944  0.00  0.00    +0.016 C 
ATOM     20  C   UNL     1      33.485 -21.077 -19.446  0.00  0.00    +0.016 C 
BRANCH  15  21
ATOM     21  S   UNL     1      35.605 -18.564 -21.767  0.00  0.00    +0.060 S 
ATOM     22  O   UNL     1      37.039 -18.639 -22.016  0.00  0.00    -0.153 OA
ATOM     23  O   UNL     1      34.678 -18.674 -22.886  0.00  0.00    -0.153 OA
BRANCH  21  24
ATOM     24  N   UNL     1      35.272 -17.114 -20.924  0.00  0.00    -0.178 NA
ATOM     25  C   UNL     1      34.942 -15.893 -21.672  0.00  0.00    +0.110 C 
ATOM     26  H   UNL     1      36.097 -16.902 -20.364  0.00  0.00    +0.149 HD
ENDBRANCH  21  24
ENDBRANCH  15  21
ENDBRANCH   1  16
TORSDOF 4
ENDMDL
MODEL 9
REMARK VINA RESULT:      -9.5      5.551      9.778
REMARK  Name = 5288708
REMARK  4 active torsions:
REMARK  status: ('A' for Active; 'I' for Inactive)
REMARK    1  A    between atoms: N_1  and  C_9
REMARK    2  A    between atoms: N_1  and  C_16
REMARK    3  A    between atoms: C_15  and  S_21
REMARK    4  A    between atoms: S_21  and  N_24
REMARK                            x       y       z     vdW  Elec       q    Type
REMARK                         _______ _______ _______ _____ _____    ______ ____
ROOT
ATOM      1  N   UNL     1      34.138 -13.466 -23.806  0.00  0.00    -0.311 N 
ATOM      2  H   UNL     1      34.216 -13.558 -24.782  0.00  0.00    +0.152 HD
ENDROOT
BRANCH   1   9
ATOM      3  O   UNL     1      33.508 -15.626 -25.635  0.00  0.00    -0.270 OA
ATOM      4  N   UNL     1      34.109 -17.700 -24.676  0.00  0.00    -0.280 N 
ATOM      5  C   UNL     1      34.943 -16.986 -22.655  0.00  0.00    +0.019 C 
ATOM      6  C   UNL     1      34.506 -15.825 -23.423  0.00  0.00    +0.069 C 
ATOM      7  C   UNL     1      34.680 -18.097 -23.462  0.00  0.00    +0.051 C 
ATOM      8  C   UNL     1      33.964 -16.310 -24.737  0.00  0.00    +0.251 C 
ATOM      9  C   UNL     1      34.548 -14.537 -23.079  0.00  0.00    +0.066 C 
ATOM     10  C   UNL     1      35.509 -17.141 -21.404  0.00  0.00    +0.001 C 
ATOM     11  C   UNL     1      34.966 -19.388 -23.060  0.00  0.00    +0.015 C 
ATOM     12  C   UNL     1      35.808 -18.439 -20.977  0.00  0.00    +0.000 C 
ATOM     13  C   UNL     1      35.538 -19.552 -21.797  0.00  0.00    +0.001 C 
ATOM     14  H   UNL     1      33.843 -18.319 -25.394  0.00  0.00    +0.155 HD
ENDBRANCH   1   9
BRANCH   1  16
ATOM     15  C   UNL     1      32.573  -9.816 -22.437  0.00  0.00    +0.122 C 
ATOM     16  C   UNL     1      33.615 -12.246 -23.348  0.00  0.00    +0.048 C 
ATOM     17  C   UNL     1      32.052 -11.021 -21.964  0.00  0.00    +0.021 C 
ATOM     18  C   UNL     1      33.616  -9.825 -23.364  0.00  0.00    +0.021 C 
ATOM     19  C   UNL     1      32.572 -12.233 -22.418  0.00  0.00    +0.016 C 
ATOM     20  C   UNL     1      34.135 -11.037 -23.819  0.00  0.00    +0.016 C 
BRANCH  15  21
ATOM     21  S   UNL     1      31.922  -8.299 -21.869  0.00  0.00    +0.060 S 
ATOM     22  O   UNL     1      30.860  -7.876 -22.773  0.00  0.00    -0.153 OA
ATOM     23  O   UNL     1      31.635  -8.444 -20.448  0.00  0.00    -0.153 OA
BRANCH  21  24
ATOM     24  N   UNL     1      33.250  -7.238 -22.052  0.00  0.00    -0.178 NA
ATOM     25  C   UNL     1      33.156  -6.102 -22.980  0.00  0.00    +0.110 C 
ATOM     26  H   UNL     1      34.041  -7.804 -22.359  0.00  0.00    +0.149 HD
ENDBRANCH  21  24
ENDBRANCH  15  21
ENDBRANCH   1  16
TORSDOF 4
ENDMDL
