MODEL 1
REMARK VINA RESULT:     -11.8      0.000      0.000
REMARK  Name = 90311989
REMARK  4 active torsions:
REMARK  status: ('A' for Active; 'I' for Inactive)
REMARK    1  A    between atoms: C_16  and  O_33
REMARK    2  A    between atoms: C_17  and  C_21
REMARK    3  A    between atoms: N_20  and  C_23
REMARK    4  A    between atoms: C_23  and  C_27
REMARK                            x       y       z     vdW  Elec       q    Type
REMARK                         _______ _______ _______ _____ _____    ______ ____
ROOT
ATOM      1  O   UNL     1      32.992  -8.733 -24.001  0.00  0.00    -0.339 OA
ATOM      2  O   UNL     1      31.335 -10.988 -20.182  0.00  0.00    -0.268 OA
ATOM      3  O   UNL     1      33.657 -15.501 -20.608  0.00  0.00    -0.283 OA
ATOM      4  N   UNL     1      32.230  -9.836 -21.975  0.00  0.00    -0.253 N 
ATOM      5  N   UNL     1      33.215 -12.257 -22.999  0.00  0.00    -0.275 N 
ATOM      6  C   UNL     1      31.710  -8.535 -21.529  0.00  0.00    +0.080 C 
ATOM      7  C   UNL     1      32.545  -7.504 -23.421  0.00  0.00    +0.119 C 
ATOM      8  C   UNL     1      31.212  -7.764 -22.742  0.00  0.00    +0.049 C 
ATOM      9  C   UNL     1      32.861  -7.659 -21.018  0.00  0.00    +0.022 C 
ATOM     10  C   UNL     1      33.463  -7.032 -22.286  0.00  0.00    +0.031 C 
ATOM     11  C   UNL     1      33.181  -9.831 -23.092  0.00  0.00    +0.215 C 
ATOM     12  C   UNL     1      33.038 -11.114 -23.890  0.00  0.00    +0.147 C 
ATOM     13  C   UNL     1      32.031 -10.977 -21.197  0.00  0.00    +0.267 C 
ATOM     14  C   UNL     1      32.722 -12.231 -21.688  0.00  0.00    +0.143 C 
ATOM     15  C   UNL     1      33.816 -13.418 -23.465  0.00  0.00    +0.074 C 
ATOM     16  C   UNL     1      32.839 -13.281 -20.846  0.00  0.00    +0.191 C 
ATOM     17  C   UNL     1      33.997 -14.530 -22.744  0.00  0.00    +0.110 C 
ATOM     18  C   UNL     1      33.514 -14.526 -21.338  0.00  0.00    +0.236 C 
ENDROOT
BRANCH  17  21
ATOM     19  O   UNL     1      34.856 -15.703 -24.588  0.00  0.00    -0.270 OA
ATOM     20  N   UNL     1      34.990 -16.672 -22.471  0.00  0.00    -0.297 N 
ATOM     21  C   UNL     1      34.651 -15.677 -23.374  0.00  0.00    +0.251 C 
ATOM     22  H   UNL     1      34.773 -16.533 -21.521  0.00  0.00    +0.150 HD
BRANCH  20  23
ATOM     23  C   UNL     1      35.645 -17.903 -22.852  0.00  0.00    +0.121 C 
BRANCH  23  27
ATOM     24  F   UNL     1      33.490 -19.492 -21.938  0.00  0.00    -0.204 F 
ATOM     25  F   UNL     1      38.045 -18.266 -21.402  0.00  0.00    -0.204 F 
ATOM     26  F   UNL     1      36.095 -21.471 -18.520  0.00  0.00    -0.204 F 
ATOM     27  C   UNL     1      35.765 -18.855 -21.698  0.00  0.00    +0.053 C 
ATOM     28  C   UNL     1      34.662 -19.609 -21.297  0.00  0.00    +0.142 C 
ATOM     29  C   UNL     1      36.980 -18.986 -21.025  0.00  0.00    +0.142 C 
ATOM     30  C   UNL     1      34.773 -20.493 -20.224  0.00  0.00    +0.059 C 
ATOM     31  C   UNL     1      37.091 -19.870 -19.952  0.00  0.00    +0.059 C 
ATOM     32  C   UNL     1      35.988 -20.623 -19.551  0.00  0.00    +0.145 C 
ENDBRANCH  23  27
ENDBRANCH  20  23
ENDBRANCH  17  21
BRANCH  16  33
ATOM     33  O   UNL     1      32.388 -13.285 -19.545  0.00  0.00    -0.502 OA
ATOM     34  H   UNL     1      32.564 -14.019 -18.990  0.00  0.00    +0.292 HD
ENDBRANCH  16  33
TORSDOF 4
ENDMDL
MODEL 2
REMARK VINA RESULT:     -11.8      5.191     11.343
REMARK  Name = 90311989
REMARK  4 active torsions:
REMARK  status: ('A' for Active; 'I' for Inactive)
REMARK    1  A    between atoms: C_16  and  O_33
REMARK    2  A    between atoms: C_17  and  C_21
REMARK    3  A    between atoms: N_20  and  C_23
REMARK    4  A    between atoms: C_23  and  C_27
REMARK                            x       y       z     vdW  Elec       q    Type
REMARK                         _______ _______ _______ _____ _____    ______ ____
ROOT
ATOM      1  O   UNL     1      37.893 -23.016 -14.676  0.00  0.00    -0.339 OA
ATOM      2  O   UNL     1      33.495 -23.171 -16.422  0.00  0.00    -0.268 OA
ATOM      3  O   UNL     1      34.097 -20.721 -20.846  0.00  0.00    -0.283 OA
ATOM      4  N   UNL     1      35.661 -23.208 -15.615  0.00  0.00    -0.253 N 
ATOM      5  N   UNL     1      36.380 -21.303 -17.547  0.00  0.00    -0.275 N 
ATOM      6  C   UNL     1      35.355 -24.172 -14.547  0.00  0.00    +0.080 C 
ATOM      7  C   UNL     1      37.520 -24.041 -13.749  0.00  0.00    +0.119 C 
ATOM      8  C   UNL     1      36.101 -23.760 -13.286  0.00  0.00    +0.049 C 
ATOM      9  C   UNL     1      35.975 -25.535 -14.880  0.00  0.00    +0.022 C 
ATOM     10  C   UNL     1      37.435 -25.421 -14.416  0.00  0.00    +0.031 C 
ATOM     11  C   UNL     1      37.075 -22.896 -15.851  0.00  0.00    +0.215 C 
ATOM     12  C   UNL     1      37.205 -21.470 -16.355  0.00  0.00    +0.147 C 
ATOM     13  C   UNL     1      34.672 -22.826 -16.523  0.00  0.00    +0.267 C 
ATOM     14  C   UNL     1      35.134 -21.935 -17.655  0.00  0.00    +0.143 C 
ATOM     15  C   UNL     1      36.791 -20.455 -18.566  0.00  0.00    +0.074 C 
ATOM     16  C   UNL     1      34.330 -21.778 -18.729  0.00  0.00    +0.191 C 
ATOM     17  C   UNL     1      36.097 -20.206 -19.682  0.00  0.00    +0.110 C 
ATOM     18  C   UNL     1      34.784 -20.885 -19.844  0.00  0.00    +0.236 C 
ENDROOT
BRANCH  17  21
ATOM     19  O   UNL     1      37.879 -19.110 -20.750  0.00  0.00    -0.270 OA
ATOM     20  N   UNL     1      35.700 -18.679 -21.460  0.00  0.00    -0.297 N 
ATOM     21  C   UNL     1      36.663 -19.288 -20.671  0.00  0.00    +0.251 C 
ATOM     22  H   UNL     1      34.756 -18.904 -21.299  0.00  0.00    +0.150 HD
BRANCH  20  23
ATOM     23  C   UNL     1      36.011 -17.732 -22.507  0.00  0.00    +0.121 C 
BRANCH  23  27
ATOM     24  F   UNL     1      34.864 -16.476 -24.767  0.00  0.00    -0.204 F 
ATOM     25  F   UNL     1      35.428 -16.452 -20.054  0.00  0.00    -0.204 F 
ATOM     26  F   UNL     1      32.849 -13.087 -22.152  0.00  0.00    -0.204 F 
ATOM     27  C   UNL     1      35.167 -16.495 -22.412  0.00  0.00    +0.053 C 
ATOM     28  C   UNL     1      34.632 -15.925 -23.568  0.00  0.00    +0.142 C 
ATOM     29  C   UNL     1      34.918 -15.912 -21.169  0.00  0.00    +0.142 C 
ATOM     30  C   UNL     1      33.849 -14.773 -23.480  0.00  0.00    +0.059 C 
ATOM     31  C   UNL     1      34.135 -14.762 -21.081  0.00  0.00    +0.059 C 
ATOM     32  C   UNL     1      33.601 -14.193 -22.236  0.00  0.00    +0.145 C 
ENDBRANCH  23  27
ENDBRANCH  20  23
ENDBRANCH  17  21
BRANCH  16  33
ATOM     33  O   UNL     1      33.110 -22.399 -18.880  0.00  0.00    -0.502 OA
ATOM     34  H   UNL     1      32.855 -23.079 -18.288  0.00  0.00    +0.292 HD
ENDBRANCH  16  33
TORSDOF 4
ENDMDL
MODEL 3
REMARK VINA RESULT:     -11.7      1.600      2.246
REMARK  Name = 90311989
REMARK  4 active torsions:
REMARK  status: ('A' for Active; 'I' for Inactive)
REMARK    1  A    between atoms: C_16  and  O_33
REMARK    2  A    between atoms: C_17  and  C_21
REMARK    3  A    between atoms: N_20  and  C_23
REMARK    4  A    between atoms: C_23  and  C_27
REMARK                            x       y       z     vdW  Elec       q    Type
REMARK                         _______ _______ _______ _____ _____    ______ ____
ROOT
ATOM      1  O   UNL     1      32.270  -7.174 -23.761  0.00  0.00    -0.339 OA
ATOM      2  O   UNL     1      31.125  -9.702 -19.926  0.00  0.00    -0.268 OA
ATOM      3  O   UNL     1      32.994 -14.277 -21.158  0.00  0.00    -0.283 OA
ATOM      4  N   UNL     1      31.785  -8.429 -21.740  0.00  0.00    -0.253 N 
ATOM      5  N   UNL     1      32.395 -10.787 -23.134  0.00  0.00    -0.275 N 
ATOM      6  C   UNL     1      31.448  -7.151 -21.094  0.00  0.00    +0.080 C 
ATOM      7  C   UNL     1      32.023  -5.985 -23.004  0.00  0.00    +0.119 C 
ATOM      8  C   UNL     1      30.809  -6.233 -22.126  0.00  0.00    +0.049 C 
ATOM      9  C   UNL     1      32.733  -6.400 -20.719  0.00  0.00    +0.022 C 
ATOM     10  C   UNL     1      33.154  -5.684 -22.012  0.00  0.00    +0.031 C 
ATOM     11  C   UNL     1      32.528  -8.367 -23.002  0.00  0.00    +0.215 C 
ATOM     12  C   UNL     1      32.155  -9.552 -23.873  0.00  0.00    +0.147 C 
ATOM     13  C   UNL     1      31.636  -9.629 -21.043  0.00  0.00    +0.267 C 
ATOM     14  C   UNL     1      32.137 -10.865 -21.759  0.00  0.00    +0.143 C 
ATOM     15  C   UNL     1      32.818 -11.928 -23.801  0.00  0.00    +0.074 C 
ATOM     16  C   UNL     1      32.317 -12.000 -21.048  0.00  0.00    +0.191 C 
ATOM     17  C   UNL     1      33.035 -13.117 -23.225  0.00  0.00    +0.110 C 
ATOM     18  C   UNL     1      32.802 -13.226 -21.761  0.00  0.00    +0.236 C 
ENDROOT
BRANCH  17  21
ATOM     19  O   UNL     1      33.076 -14.362 -25.216  0.00  0.00    -0.270 OA
ATOM     20  N   UNL     1      34.378 -15.069 -23.415  0.00  0.00    -0.297 N 
ATOM     21  C   UNL     1      33.484 -14.230 -24.061  0.00  0.00    +0.251 C 
ATOM     22  H   UNL     1      34.627 -14.857 -22.486  0.00  0.00    +0.150 HD
BRANCH  20  23
ATOM     23  C   UNL     1      34.962 -16.238 -24.032  0.00  0.00    +0.121 C 
BRANCH  23  27
ATOM     24  F   UNL     1      35.714 -16.049 -21.311  0.00  0.00    -0.204 F 
ATOM     25  F   UNL     1      34.227 -18.844 -24.849  0.00  0.00    -0.204 F 
ATOM     26  F   UNL     1      35.000 -20.664 -20.551  0.00  0.00    -0.204 F 
ATOM     27  C   UNL     1      34.971 -17.417 -23.104  0.00  0.00    +0.053 C 
ATOM     28  C   UNL     1      35.354 -17.255 -21.772  0.00  0.00    +0.142 C 
ATOM     29  C   UNL     1      34.597 -18.677 -23.572  0.00  0.00    +0.142 C 
ATOM     30  C   UNL     1      35.364 -18.352 -20.910  0.00  0.00    +0.059 C 
ATOM     31  C   UNL     1      34.606 -19.773 -22.710  0.00  0.00    +0.059 C 
ATOM     32  C   UNL     1      34.990 -19.611 -21.380  0.00  0.00    +0.145 C 
ENDBRANCH  23  27
ENDBRANCH  20  23
ENDBRANCH  17  21
BRANCH  16  33
ATOM     33  O   UNL     1      32.095 -12.109 -19.693  0.00  0.00    -0.502 OA
ATOM     34  H   UNL     1      32.599 -11.594 -19.094  0.00  0.00    +0.292 HD
ENDBRANCH  16  33
TORSDOF 4
ENDMDL
MODEL 4
REMARK VINA RESULT:     -11.5      2.050      3.720
REMARK  Name = 90311989
REMARK  4 active torsions:
REMARK  status: ('A' for Active; 'I' for Inactive)
REMARK    1  A    between atoms: C_16  and  O_33
REMARK    2  A    between atoms: C_17  and  C_21
REMARK    3  A    between atoms: N_20  and  C_23
REMARK    4  A    between atoms: C_23  and  C_27
REMARK                            x       y       z     vdW  Elec       q    Type
REMARK                         _______ _______ _______ _____ _____    ______ ____
ROOT
ATOM      1  O   UNL     1      32.619 -12.274 -19.645  0.00  0.00    -0.339 OA
ATOM      2  O   UNL     1      33.195 -12.370 -24.343  0.00  0.00    -0.268 OA
ATOM      3  O   UNL     1      34.803 -17.151 -25.048  0.00  0.00    -0.283 OA
ATOM      4  N   UNL     1      32.794 -12.348 -22.066  0.00  0.00    -0.253 N 
ATOM      5  N   UNL     1      34.202 -14.765 -21.826  0.00  0.00    -0.275 N 
ATOM      6  C   UNL     1      32.083 -11.061 -22.102  0.00  0.00    +0.080 C 
ATOM      7  C   UNL     1      31.843 -11.082 -19.803  0.00  0.00    +0.119 C 
ATOM      8  C   UNL     1      32.492 -10.241 -20.888  0.00  0.00    +0.049 C 
ATOM      9  C   UNL     1      30.583 -11.287 -21.869  0.00  0.00    +0.022 C 
ATOM     10  C   UNL     1      30.437 -11.375 -20.342  0.00  0.00    +0.031 C 
ATOM     11  C   UNL     1      32.750 -13.104 -20.810  0.00  0.00    +0.215 C 
ATOM     12  C   UNL     1      34.027 -13.911 -20.655  0.00  0.00    +0.147 C 
ATOM     13  C   UNL     1      33.254 -12.930 -23.249  0.00  0.00    +0.267 C 
ATOM     14  C   UNL     1      33.853 -14.313 -23.106  0.00  0.00    +0.143 C 
ATOM     15  C   UNL     1      34.786 -16.017 -21.695  0.00  0.00    +0.074 C 
ATOM     16  C   UNL     1      34.030 -15.063 -24.215  0.00  0.00    +0.191 C 
ATOM     17  C   UNL     1      35.022 -16.862 -22.705  0.00  0.00    +0.110 C 
ATOM     18  C   UNL     1      34.634 -16.427 -24.073  0.00  0.00    +0.236 C 
ENDROOT
BRANCH  17  21
ATOM     19  O   UNL     1      35.979 -18.919 -23.315  0.00  0.00    -0.270 OA
ATOM     20  N   UNL     1      35.797 -18.384 -21.052  0.00  0.00    -0.297 N 
ATOM     21  C   UNL     1      35.644 -18.153 -22.410  0.00  0.00    +0.251 C 
ATOM     22  H   UNL     1      35.489 -17.692 -20.424  0.00  0.00    +0.150 HD
BRANCH  20  23
ATOM     23  C   UNL     1      36.385 -19.589 -20.511  0.00  0.00    +0.121 C 
BRANCH  23  27
ATOM     24  F   UNL     1      33.630 -19.546 -21.152  0.00  0.00    -0.204 F 
ATOM     25  F   UNL     1      37.060 -21.380 -18.430  0.00  0.00    -0.204 F 
ATOM     26  F   UNL     1      32.578 -22.787 -17.870  0.00  0.00    -0.204 F 
ATOM     27  C   UNL     1      35.371 -20.442 -19.808  0.00  0.00    +0.053 C 
ATOM     28  C   UNL     1      34.026 -20.372 -20.173  0.00  0.00    +0.142 C 
ATOM     29  C   UNL     1      35.771 -21.305 -18.788  0.00  0.00    +0.142 C 
ATOM     30  C   UNL     1      33.083 -21.164 -19.518  0.00  0.00    +0.059 C 
ATOM     31  C   UNL     1      34.828 -22.098 -18.134  0.00  0.00    +0.059 C 
ATOM     32  C   UNL     1      33.485 -22.027 -18.499  0.00  0.00    +0.145 C 
ENDBRANCH  23  27
ENDBRANCH  20  23
ENDBRANCH  17  21
BRANCH  16  33
ATOM     33  O   UNL     1      33.679 -14.662 -25.485  0.00  0.00    -0.502 OA
ATOM     34  H   UNL     1      32.915 -15.019 -25.894  0.00  0.00    +0.292 HD
ENDBRANCH  16  33
TORSDOF 4
ENDMDL
MODEL 5
REMARK VINA RESULT:     -11.2      7.945     12.809
REMARK  Name = 90311989
REMARK  4 active torsions:
REMARK  status: ('A' for Active; 'I' for Inactive)
REMARK    1  A    between atoms: C_16  and  O_33
REMARK    2  A    between atoms: C_17  and  C_21
REMARK    3  A    between atoms: N_20  and  C_23
REMARK    4  A    between atoms: C_23  and  C_27
REMARK                            x       y       z     vdW  Elec       q    Type
REMARK                         _______ _______ _______ _____ _____    ______ ____
ROOT
ATOM      1  O   UNL     1      38.392 -24.107 -13.618  0.00  0.00    -0.339 OA
ATOM      2  O   UNL     1      33.839 -23.905 -12.336  0.00  0.00    -0.268 OA
ATOM      3  O   UNL     1      31.562 -23.307 -16.852  0.00  0.00    -0.283 OA
ATOM      4  N   UNL     1      36.054 -24.126 -12.961  0.00  0.00    -0.253 N 
ATOM      5  N   UNL     1      35.391 -23.198 -15.526  0.00  0.00    -0.275 N 
ATOM      6  C   UNL     1      36.489 -24.576 -11.630  0.00  0.00    +0.080 C 
ATOM      7  C   UNL     1      38.691 -24.648 -12.327  0.00  0.00    +0.119 C 
ATOM      8  C   UNL     1      37.827 -23.928 -11.306  0.00  0.00    +0.049 C 
ATOM      9  C   UNL     1      36.836 -26.071 -11.671  0.00  0.00    +0.022 C 
ATOM     10  C   UNL     1      38.276 -26.119 -12.206  0.00  0.00    +0.031 C 
ATOM     11  C   UNL     1      37.027 -24.224 -14.053  0.00  0.00    +0.215 C 
ATOM     12  C   UNL     1      36.773 -23.120 -15.063  0.00  0.00    +0.147 C 
ATOM     13  C   UNL     1      34.704 -23.876 -13.211  0.00  0.00    +0.267 C 
ATOM     14  C   UNL     1      34.356 -23.547 -14.647  0.00  0.00    +0.143 C 
ATOM     15  C   UNL     1      35.073 -22.859 -16.833  0.00  0.00    +0.074 C 
ATOM     16  C   UNL     1      33.062 -23.599 -15.032  0.00  0.00    +0.191 C 
ATOM     17  C   UNL     1      33.838 -22.866 -17.348  0.00  0.00    +0.110 C 
ATOM     18  C   UNL     1      32.720 -23.261 -16.451  0.00  0.00    +0.236 C 
ENDROOT
BRANCH  17  21
ATOM     19  O   UNL     1      33.488 -23.337 -19.622  0.00  0.00    -0.270 OA
ATOM     20  N   UNL     1      33.704 -21.115 -18.949  0.00  0.00    -0.297 N 
ATOM     21  C   UNL     1      33.659 -22.485 -18.749  0.00  0.00    +0.251 C 
ATOM     22  H   UNL     1      33.847 -20.534 -18.168  0.00  0.00    +0.150 HD
BRANCH  20  23
ATOM     23  C   UNL     1      33.553 -20.494 -20.246  0.00  0.00    +0.121 C 
BRANCH  23  27
ATOM     24  F   UNL     1      35.967 -20.624 -18.776  0.00  0.00    -0.204 F 
ATOM     25  F   UNL     1      33.782 -19.160 -22.728  0.00  0.00    -0.204 F 
ATOM     26  F   UNL     1      38.388 -18.283 -22.098  0.00  0.00    -0.204 F 
ATOM     27  C   UNL     1      34.842 -19.906 -20.740  0.00  0.00    +0.053 C 
ATOM     28  C   UNL     1      35.997 -20.004 -19.964  0.00  0.00    +0.142 C 
ATOM     29  C   UNL     1      34.886 -19.259 -21.976  0.00  0.00    +0.142 C 
ATOM     30  C   UNL     1      37.195 -19.456 -20.423  0.00  0.00    +0.059 C 
ATOM     31  C   UNL     1      36.084 -18.712 -22.435  0.00  0.00    +0.059 C 
ATOM     32  C   UNL     1      37.238 -18.809 -21.658  0.00  0.00    +0.145 C 
ENDBRANCH  23  27
ENDBRANCH  20  23
ENDBRANCH  17  21
BRANCH  16  33
ATOM     33  O   UNL     1      32.022 -23.958 -14.203  0.00  0.00    -0.502 OA
ATOM     34  H   UNL     1      31.171 -23.588 -14.334  0.00  0.00    +0.292 HD
ENDBRANCH  16  33
TORSDOF 4
ENDMDL
MODEL 6
REMARK VINA RESULT:     -11.1      2.159      4.145
REMARK  Name = 90311989
REMARK  4 active torsions:
REMARK  status: ('A' for Active; 'I' for Inactive)
REMARK    1  A    between atoms: C_16  and  O_33
REMARK    2  A    between atoms: C_17  and  C_21
REMARK    3  A    between atoms: N_20  and  C_23
REMARK    4  A    between atoms: C_23  and  C_27
REMARK                            x       y       z     vdW  Elec       q    Type
REMARK                         _______ _______ _______ _____ _____    ______ ____
ROOT
ATOM      1  O   UNL     1      32.755 -12.202 -19.744  0.00  0.00    -0.339 OA
ATOM      2  O   UNL     1      33.066 -12.915 -24.414  0.00  0.00    -0.268 OA
ATOM      3  O   UNL     1      34.977 -17.634 -24.572  0.00  0.00    -0.283 OA
ATOM      4  N   UNL     1      32.796 -12.602 -22.140  0.00  0.00    -0.253 N 
ATOM      5  N   UNL     1      34.389 -14.865 -21.670  0.00  0.00    -0.275 N 
ATOM      6  C   UNL     1      31.991 -11.381 -22.301  0.00  0.00    +0.080 C 
ATOM      7  C   UNL     1      31.885 -11.097 -20.010  0.00  0.00    +0.119 C 
ATOM      8  C   UNL     1      32.409 -10.374 -21.240  0.00  0.00    +0.049 C 
ATOM      9  C   UNL     1      30.528 -11.669 -21.941  0.00  0.00    +0.022 C 
ATOM     10  C   UNL     1      30.476 -11.552 -20.410  0.00  0.00    +0.031 C 
ATOM     11  C   UNL     1      32.880 -13.177 -20.793  0.00  0.00    +0.215 C 
ATOM     12  C   UNL     1      34.218 -13.870 -20.616  0.00  0.00    +0.147 C 
ATOM     13  C   UNL     1      33.228 -13.312 -23.261  0.00  0.00    +0.267 C 
ATOM     14  C   UNL     1      33.934 -14.619 -22.972  0.00  0.00    +0.143 C 
ATOM     15  C   UNL     1      35.069 -16.046 -21.410  0.00  0.00    +0.074 C 
ATOM     16  C   UNL     1      34.102 -15.504 -23.980  0.00  0.00    +0.191 C 
ATOM     17  C   UNL     1      35.308 -17.007 -22.310  0.00  0.00    +0.110 C 
ATOM     18  C   UNL     1      34.812 -16.793 -23.695  0.00  0.00    +0.236 C 
ENDROOT
BRANCH  17  21
ATOM     19  O   UNL     1      37.218 -18.370 -22.201  0.00  0.00    -0.270 OA
ATOM     20  N   UNL     1      35.270 -19.066 -21.123  0.00  0.00    -0.297 N 
ATOM     21  C   UNL     1      36.039 -18.201 -21.885  0.00  0.00    +0.251 C 
ATOM     22  H   UNL     1      34.336 -18.818 -20.938  0.00  0.00    +0.150 HD
BRANCH  20  23
ATOM     23  C   UNL     1      35.768 -20.313 -20.588  0.00  0.00    +0.121 C 
BRANCH  23  27
ATOM     24  F   UNL     1      36.538 -21.993 -18.446  0.00  0.00    -0.204 F 
ATOM     25  F   UNL     1      32.973 -19.962 -20.834  0.00  0.00    -0.204 F 
ATOM     26  F   UNL     1      32.060 -22.750 -17.124  0.00  0.00    -0.204 F 
ATOM     27  C   UNL     1      34.780 -20.962 -19.664  0.00  0.00    +0.053 C 
ATOM     28  C   UNL     1      35.227 -21.781 -18.627  0.00  0.00    +0.142 C 
ATOM     29  C   UNL     1      33.413 -20.747 -19.841  0.00  0.00    +0.142 C 
ATOM     30  C   UNL     1      34.308 -22.385 -17.769  0.00  0.00    +0.059 C 
ATOM     31  C   UNL     1      32.494 -21.350 -18.983  0.00  0.00    +0.059 C 
ATOM     32  C   UNL     1      32.942 -22.170 -17.947  0.00  0.00    +0.145 C 
ENDBRANCH  23  27
ENDBRANCH  20  23
ENDBRANCH  17  21
BRANCH  16  33
ATOM     33  O   UNL     1      33.651 -15.307 -25.266  0.00  0.00    -0.502 OA
ATOM     34  H   UNL     1      33.329 -14.466 -25.525  0.00  0.00    +0.292 HD
ENDBRANCH  16  33
TORSDOF 4
ENDMDL
MODEL 7
REMARK VINA RESULT:     -10.6      4.889     10.610
REMARK  Name = 90311989
REMARK  4 active torsions:
REMARK  status: ('A' for Active; 'I' for Inactive)
REMARK    1  A    between atoms: C_16  and  O_33
REMARK    2  A    between atoms: C_17  and  C_21
REMARK    3  A    between atoms: N_20  and  C_23
REMARK    4  A    between atoms: C_23  and  C_27
REMARK                            x       y       z     vdW  Elec       q    Type
REMARK                         _______ _______ _______ _____ _____    ______ ____
ROOT
ATOM      1  O   UNL     1      30.876 -22.677 -16.748  0.00  0.00    -0.339 OA
ATOM      2  O   UNL     1      35.547 -23.381 -16.431  0.00  0.00    -0.268 OA
ATOM      3  O   UNL     1      37.285 -20.084 -19.902  0.00  0.00    -0.283 OA
ATOM      4  N   UNL     1      33.274 -22.960 -16.490  0.00  0.00    -0.253 N 
ATOM      5  N   UNL     1      33.635 -21.516 -18.871  0.00  0.00    -0.275 N 
ATOM      6  C   UNL     1      32.996 -23.737 -15.273  0.00  0.00    +0.080 C 
ATOM      7  C   UNL     1      30.728 -23.353 -15.495  0.00  0.00    +0.119 C 
ATOM      8  C   UNL     1      31.704 -24.516 -15.473  0.00  0.00    +0.049 C 
ATOM      9  C   UNL     1      32.647 -22.789 -14.117  0.00  0.00    +0.022 C 
ATOM     10  C   UNL     1      31.154 -22.477 -14.310  0.00  0.00    +0.031 C 
ATOM     11  C   UNL     1      32.181 -22.146 -17.031  0.00  0.00    +0.215 C 
ATOM     12  C   UNL     1      32.316 -22.046 -18.539  0.00  0.00    +0.147 C 
ATOM     13  C   UNL     1      34.586 -22.805 -16.941  0.00  0.00    +0.267 C 
ATOM     14  C   UNL     1      34.765 -21.879 -18.124  0.00  0.00    +0.143 C 
ATOM     15  C   UNL     1      33.800 -20.698 -19.979  0.00  0.00    +0.074 C 
ATOM     16  C   UNL     1      36.006 -21.434 -18.421  0.00  0.00    +0.191 C 
ATOM     17  C   UNL     1      34.967 -20.187 -20.388  0.00  0.00    +0.110 C 
ATOM     18  C   UNL     1      36.181 -20.526 -19.600  0.00  0.00    +0.236 C 
ENDROOT
BRANCH  17  21
ATOM     19  O   UNL     1      34.421 -19.686 -22.617  0.00  0.00    -0.270 OA
ATOM     20  N   UNL     1      35.674 -18.150 -21.387  0.00  0.00    -0.297 N 
ATOM     21  C   UNL     1      34.983 -19.335 -21.578  0.00  0.00    +0.251 C 
ATOM     22  H   UNL     1      36.081 -17.984 -20.506  0.00  0.00    +0.150 HD
BRANCH  20  23
ATOM     23  C   UNL     1      35.829 -17.145 -22.415  0.00  0.00    +0.121 C 
BRANCH  23  27
ATOM     24  F   UNL     1      34.552 -15.754 -24.521  0.00  0.00    -0.204 F 
ATOM     25  F   UNL     1      35.264 -16.117 -19.842  0.00  0.00    -0.204 F 
ATOM     26  F   UNL     1      32.462 -12.715 -21.559  0.00  0.00    -0.204 F 
ATOM     27  C   UNL     1      34.931 -15.965 -22.187  0.00  0.00    +0.053 C 
ATOM     28  C   UNL     1      34.332 -15.323 -23.271  0.00  0.00    +0.142 C 
ATOM     29  C   UNL     1      34.694 -15.508 -20.890  0.00  0.00    +0.142 C 
ATOM     30  C   UNL     1      33.498 -14.225 -23.059  0.00  0.00    +0.059 C 
ATOM     31  C   UNL     1      33.860 -14.411 -20.678  0.00  0.00    +0.059 C 
ATOM     32  C   UNL     1      33.263 -13.769 -21.762  0.00  0.00    +0.145 C 
ENDBRANCH  23  27
ENDBRANCH  20  23
ENDBRANCH  17  21
BRANCH  16  33
ATOM     33  O   UNL     1      37.134 -21.750 -17.698  0.00  0.00    -0.502 OA
ATOM     34  H   UNL     1      37.154 -21.603 -16.773  0.00  0.00    +0.292 HD
ENDBRANCH  16  33
TORSDOF 4
ENDMDL
MODEL 8
REMARK VINA RESULT:     -10.4      6.126     11.704
REMARK  Name = 90311989
REMARK  4 active torsions:
REMARK  status: ('A' for Active; 'I' for Inactive)
REMARK    1  A    between atoms: C_16  and  O_33
REMARK    2  A    between atoms: C_17  and  C_21
REMARK    3  A    between atoms: N_20  and  C_23
REMARK    4  A    between atoms: C_23  and  C_27
REMARK                            x       y       z     vdW  Elec       q    Type
REMARK                         _______ _______ _______ _____ _____    ______ ____
ROOT
ATOM      1  O   UNL     1      37.837 -23.589 -14.193  0.00  0.00    -0.339 OA
ATOM      2  O   UNL     1      33.482 -23.619 -16.051  0.00  0.00    -0.268 OA
ATOM      3  O   UNL     1      34.223 -21.006 -20.359  0.00  0.00    -0.283 OA
ATOM      4  N   UNL     1      35.627 -23.715 -15.194  0.00  0.00    -0.253 N 
ATOM      5  N   UNL     1      36.417 -21.746 -17.031  0.00  0.00    -0.275 N 
ATOM      6  C   UNL     1      35.283 -24.716 -14.172  0.00  0.00    +0.080 C 
ATOM      7  C   UNL     1      37.429 -24.645 -13.317  0.00  0.00    +0.119 C 
ATOM      8  C   UNL     1      36.002 -24.364 -12.878  0.00  0.00    +0.049 C 
ATOM      9  C   UNL     1      35.894 -26.074 -14.543  0.00  0.00    +0.022 C 
ATOM     10  C   UNL     1      37.344 -25.996 -14.039  0.00  0.00    +0.031 C 
ATOM     11  C   UNL     1      37.050 -23.412 -15.382  0.00  0.00    +0.215 C 
ATOM     12  C   UNL     1      37.210 -21.970 -15.826  0.00  0.00    +0.147 C 
ATOM     13  C   UNL     1      34.665 -23.286 -16.109  0.00  0.00    +0.267 C 
ATOM     14  C   UNL     1      35.166 -22.357 -17.194  0.00  0.00    +0.143 C 
ATOM     15  C   UNL     1      36.862 -20.864 -18.005  0.00  0.00    +0.074 C 
ATOM     16  C   UNL     1      34.391 -22.148 -18.281  0.00  0.00    +0.191 C 
ATOM     17  C   UNL     1      36.200 -20.563 -19.128  0.00  0.00    +0.110 C 
ATOM     18  C   UNL     1      34.884 -21.218 -19.348  0.00  0.00    +0.236 C 
ENDROOT
BRANCH  17  21
ATOM     19  O   UNL     1      38.003 -19.658 -20.331  0.00  0.00    -0.270 OA
ATOM     20  N   UNL     1      35.888 -18.711 -20.584  0.00  0.00    -0.297 N 
ATOM     21  C   UNL     1      36.801 -19.614 -20.065  0.00  0.00    +0.251 C 
ATOM     22  H   UNL     1      34.949 -18.778 -20.293  0.00  0.00    +0.150 HD
BRANCH  20  23
ATOM     23  C   UNL     1      36.240 -17.676 -21.530  0.00  0.00    +0.121 C 
BRANCH  23  27
ATOM     24  F   UNL     1      35.166 -19.985 -22.761  0.00  0.00    -0.204 F 
ATOM     25  F   UNL     1      35.343 -15.242 -22.656  0.00  0.00    -0.204 F 
ATOM     26  F   UNL     1      32.636 -17.446 -25.849  0.00  0.00    -0.204 F 
ATOM     27  C   UNL     1      35.278 -17.615 -22.680  0.00  0.00    +0.053 C 
ATOM     28  C   UNL     1      34.787 -18.793 -23.243  0.00  0.00    +0.142 C 
ATOM     29  C   UNL     1      34.876 -16.380 -23.189  0.00  0.00    +0.142 C 
ATOM     30  C   UNL     1      33.894 -18.736 -24.313  0.00  0.00    +0.059 C 
ATOM     31  C   UNL     1      33.983 -16.322 -24.258  0.00  0.00    +0.059 C 
ATOM     32  C   UNL     1      33.493 -17.500 -24.821  0.00  0.00    +0.145 C 
ENDBRANCH  23  27
ENDBRANCH  20  23
ENDBRANCH  17  21
BRANCH  16  33
ATOM     33  O   UNL     1      33.168 -22.747 -18.486  0.00  0.00    -0.502 OA
ATOM     34  H   UNL     1      33.013 -23.615 -18.168  0.00  0.00    +0.292 HD
ENDBRANCH  16  33
TORSDOF 4
ENDMDL
MODEL 9
REMARK VINA RESULT:      -9.9      6.994     10.548
REMARK  Name = 90311989
REMARK  4 active torsions:
REMARK  status: ('A' for Active; 'I' for Inactive)
REMARK    1  A    between atoms: C_16  and  O_33
REMARK    2  A    between atoms: C_17  and  C_21
REMARK    3  A    between atoms: N_20  and  C_23
REMARK    4  A    between atoms: C_23  and  C_27
REMARK                            x       y       z     vdW  Elec       q    Type
REMARK                         _______ _______ _______ _____ _____    ______ ____
ROOT
ATOM      1  O   UNL     1      36.990 -19.577 -20.761  0.00  0.00    -0.339 OA
ATOM      2  O   UNL     1      32.469 -20.921 -20.353  0.00  0.00    -0.268 OA
ATOM      3  O   UNL     1      32.539 -23.282 -15.841  0.00  0.00    -0.283 OA
ATOM      4  N   UNL     1      34.645 -20.155 -20.507  0.00  0.00    -0.253 N 
ATOM      5  N   UNL     1      35.355 -21.831 -18.371  0.00  0.00    -0.275 N 
ATOM      6  C   UNL     1      34.364 -19.284 -21.659  0.00  0.00    +0.080 C 
ATOM      7  C   UNL     1      36.589 -18.676 -21.798  0.00  0.00    +0.119 C 
ATOM      8  C   UNL     1      35.528 -19.369 -22.635  0.00  0.00    +0.049 C 
ATOM      9  C   UNL     1      34.393 -17.813 -21.222  0.00  0.00    +0.022 C 
ATOM     10  C   UNL     1      35.882 -17.433 -21.244  0.00  0.00    +0.031 C 
ATOM     11  C   UNL     1      35.955 -20.013 -19.864  0.00  0.00    +0.215 C 
ATOM     12  C   UNL     1      36.386 -21.348 -19.284  0.00  0.00    +0.147 C 
ATOM     13  C   UNL     1      33.615 -20.879 -19.905  0.00  0.00    +0.267 C 
ATOM     14  C   UNL     1      33.995 -21.635 -18.651  0.00  0.00    +0.143 C 
ATOM     15  C   UNL     1      35.707 -22.557 -17.242  0.00  0.00    +0.074 C 
ATOM     16  C   UNL     1      33.013 -22.096 -17.846  0.00  0.00    +0.191 C 
ATOM     17  C   UNL     1      34.842 -23.072 -16.361  0.00  0.00    +0.110 C 
ATOM     18  C   UNL     1      33.393 -22.855 -16.611  0.00  0.00    +0.236 C 
ENDROOT
BRANCH  17  21
ATOM     19  O   UNL     1      35.184 -25.027 -15.105  0.00  0.00    -0.270 OA
ATOM     20  N   UNL     1      36.055 -23.012 -14.318  0.00  0.00    -0.297 N 
ATOM     21  C   UNL     1      35.366 -23.813 -15.213  0.00  0.00    +0.251 C 
ATOM     22  H   UNL     1      36.133 -22.051 -14.517  0.00  0.00    +0.150 HD
BRANCH  20  23
ATOM     23  C   UNL     1      36.664 -23.513 -13.106  0.00  0.00    +0.121 C 
BRANCH  23  27
ATOM     24  F   UNL     1      38.410 -23.066 -15.287  0.00  0.00    -0.204 F 
ATOM     25  F   UNL     1      37.352 -25.746 -11.514  0.00  0.00    -0.204 F 
ATOM     26  F   UNL     1      41.114 -26.788 -14.186  0.00  0.00    -0.204 F 
ATOM     27  C   UNL     1      37.851 -24.385 -13.393  0.00  0.00    +0.053 C 
ATOM     28  C   UNL     1      38.672 -24.109 -14.487  0.00  0.00    +0.142 C 
ATOM     29  C   UNL     1      38.134 -25.473 -12.568  0.00  0.00    +0.142 C 
ATOM     30  C   UNL     1      39.774 -24.921 -14.755  0.00  0.00    +0.059 C 
ATOM     31  C   UNL     1      39.237 -26.284 -12.835  0.00  0.00    +0.059 C 
ATOM     32  C   UNL     1      40.056 -26.009 -13.929  0.00  0.00    +0.145 C 
ENDBRANCH  23  27
ENDBRANCH  20  23
ENDBRANCH  17  21
BRANCH  16  33
ATOM     33  O   UNL     1      31.669 -21.904 -18.077  0.00  0.00    -0.502 OA
ATOM     34  H   UNL     1      31.312 -21.038 -18.069  0.00  0.00    +0.292 HD
ENDBRANCH  16  33
TORSDOF 4
ENDMDL
