MODEL 1
REMARK VINA RESULT:     -10.0      0.000      0.000
REMARK  Name = 24776445
REMARK  4 active torsions:
REMARK  status: ('A' for Active; 'I' for Inactive)
REMARK    1  A    between atoms: N_2  and  C_17
REMARK    2  A    between atoms: C_3  and  C_7
REMARK    3  A    between atoms: C_6  and  S_12
REMARK    4  A    between atoms: C_18  and  C_24
REMARK                            x       y       z     vdW  Elec       q    Type
REMARK                         _______ _______ _______ _____ _____    ______ ____
ROOT
ATOM      1  O   UNL     1      33.809 -23.681 -18.859  0.00  0.00    -0.270 OA
ATOM      2  N   UNL     1      33.594 -22.134 -17.102  0.00  0.00    -0.280 N 
ATOM      3  C   UNL     1      33.872 -22.540 -18.413  0.00  0.00    +0.250 C 
ATOM      4  H   UNL     1      33.698 -21.173 -16.917  0.00  0.00    +0.155 HD
ENDROOT
BRANCH   3   7
ATOM      5 CL   UNL     1      36.860 -21.756 -18.407  0.00  0.00    -0.082 Cl
ATOM      6  C   UNL     1      35.049 -19.424 -21.094  0.00  0.00    +0.107 C 
ATOM      7  C   UNL     1      34.312 -21.461 -19.335  0.00  0.00    +0.064 C 
ATOM      8  C   UNL     1      36.009 -20.024 -20.280  0.00  0.00    +0.030 C 
ATOM      9  C   UNL     1      33.719 -19.843 -21.029  0.00  0.00    +0.019 C 
ATOM     10  C   UNL     1      35.641 -21.041 -19.401  0.00  0.00    +0.063 C 
ATOM     11  C   UNL     1      33.351 -20.861 -20.150  0.00  0.00    +0.007 C 
BRANCH   6  12
ATOM     12  S   UNL     1      35.508 -18.151 -22.198  0.00  0.00    +0.010 S 
ATOM     13  O   UNL     1      36.955 -18.193 -22.352  0.00  0.00    -0.169 OA
ATOM     14  O   UNL     1      34.653 -18.216 -23.375  0.00  0.00    -0.169 OA
ATOM     15  C   UNL     1      35.093 -16.651 -21.338  0.00  0.00    +0.182 C 
ENDBRANCH   6  12
ENDBRANCH   3   7
BRANCH   2  17
ATOM     16 CL   UNL     1      31.820 -25.480 -12.559  0.00  0.00    -0.082 Cl
ATOM     17  C   UNL     1      33.190 -22.924 -16.025  0.00  0.00    +0.051 C 
ATOM     18  C   UNL     1      33.706 -24.087 -13.971  0.00  0.00    +0.029 C 
ATOM     19  C   UNL     1      34.112 -23.298 -15.048  0.00  0.00    +0.017 C 
ATOM     20  C   UNL     1      31.862 -23.339 -15.926  0.00  0.00    +0.016 C 
ATOM     21  C   UNL     1      32.378 -24.501 -13.872  0.00  0.00    +0.059 C 
ATOM     22  C   UNL     1      31.456 -24.129 -14.850  0.00  0.00    +0.013 C 
BRANCH  18  24
ATOM     23  N   UNL     1      34.457 -23.981 -11.732  0.00  0.00    -0.244 NA
ATOM     24  C   UNL     1      34.697 -24.452 -12.976  0.00  0.00    +0.082 C 
ATOM     25  C   UNL     1      35.796 -25.226 -13.315  0.00  0.00    +0.019 C 
ATOM     26  C   UNL     1      36.705 -25.538 -12.310  0.00  0.00    +0.003 C 
ATOM     27  C   UNL     1      35.364 -24.304 -10.782  0.00  0.00    +0.099 C 
ATOM     28  C   UNL     1      36.493 -25.072 -11.018  0.00  0.00    +0.021 C 
ENDBRANCH  18  24
ENDBRANCH   2  17
TORSDOF 4
ENDMDL
MODEL 2
REMARK VINA RESULT:      -9.8     11.374     15.082
REMARK  Name = 24776445
REMARK  4 active torsions:
REMARK  status: ('A' for Active; 'I' for Inactive)
REMARK    1  A    between atoms: N_2  and  C_17
REMARK    2  A    between atoms: C_3  and  C_7
REMARK    3  A    between atoms: C_6  and  S_12
REMARK    4  A    between atoms: C_18  and  C_24
REMARK                            x       y       z     vdW  Elec       q    Type
REMARK                         _______ _______ _______ _____ _____    ______ ____
ROOT
ATOM      1  O   UNL     1      33.300  -7.770 -21.406  0.00  0.00    -0.270 OA
ATOM      2  N   UNL     1      32.144  -9.183 -22.887  0.00  0.00    -0.280 N 
ATOM      3  C   UNL     1      32.692  -7.969 -22.453  0.00  0.00    +0.250 C 
ATOM      4  H   UNL     1      31.685  -9.162 -23.758  0.00  0.00    +0.155 HD
ENDROOT
BRANCH   3   7
ATOM      5 CL   UNL     1      35.183  -6.582 -23.641  0.00  0.00    -0.082 Cl
ATOM      6  C   UNL     1      31.988  -4.648 -25.052  0.00  0.00    +0.107 C 
ATOM      7  C   UNL     1      32.480  -6.812 -23.360  0.00  0.00    +0.064 C 
ATOM      8  C   UNL     1      33.299  -5.044 -24.789  0.00  0.00    +0.030 C 
ATOM      9  C   UNL     1      30.921  -5.335 -24.469  0.00  0.00    +0.019 C 
ATOM     10  C   UNL     1      33.545  -6.125 -23.943  0.00  0.00    +0.063 C 
ATOM     11  C   UNL     1      31.167  -6.416 -23.624  0.00  0.00    +0.007 C 
BRANCH   6  12
ATOM     12  S   UNL     1      31.678  -3.295 -26.112  0.00  0.00    +0.010 S 
ATOM     13  O   UNL     1      31.804  -3.764 -27.484  0.00  0.00    -0.169 OA
ATOM     14  O   UNL     1      30.454  -2.632 -25.684  0.00  0.00    -0.169 OA
ATOM     15  C   UNL     1      33.017  -2.169 -25.793  0.00  0.00    +0.182 C 
ENDBRANCH   6  12
ENDBRANCH   3   7
BRANCH   2  17
ATOM     16 CL   UNL     1      32.206 -14.389 -20.081  0.00  0.00    -0.082 Cl
ATOM     17  C   UNL     1      32.165 -10.417 -22.237  0.00  0.00    +0.051 C 
ATOM     18  C   UNL     1      32.803 -12.747 -22.188  0.00  0.00    +0.029 C 
ATOM     19  C   UNL     1      32.782 -11.514 -22.840  0.00  0.00    +0.017 C 
ATOM     20  C   UNL     1      31.570 -10.554 -20.983  0.00  0.00    +0.016 C 
ATOM     21  C   UNL     1      32.208 -12.883 -20.934  0.00  0.00    +0.059 C 
ATOM     22  C   UNL     1      31.591 -11.788 -20.332  0.00  0.00    +0.013 C 
BRANCH  18  24
ATOM     23  N   UNL     1      32.984 -14.149 -24.084  0.00  0.00    -0.244 NA
ATOM     24  C   UNL     1      33.456 -13.861 -22.850  0.00  0.00    +0.082 C 
ATOM     25  C   UNL     1      34.484 -14.554 -22.232  0.00  0.00    +0.019 C 
ATOM     26  C   UNL     1      35.065 -15.610 -22.925  0.00  0.00    +0.003 C 
ATOM     27  C   UNL     1      33.573 -15.183 -24.726  0.00  0.00    +0.099 C 
ATOM     28  C   UNL     1      34.606 -15.937 -24.195  0.00  0.00    +0.021 C 
ENDBRANCH  18  24
ENDBRANCH   2  17
TORSDOF 4
ENDMDL
MODEL 3
REMARK VINA RESULT:      -9.7      4.073      9.818
REMARK  Name = 24776445
REMARK  4 active torsions:
REMARK  status: ('A' for Active; 'I' for Inactive)
REMARK    1  A    between atoms: N_2  and  C_17
REMARK    2  A    between atoms: C_3  and  C_7
REMARK    3  A    between atoms: C_6  and  S_12
REMARK    4  A    between atoms: C_18  and  C_24
REMARK                            x       y       z     vdW  Elec       q    Type
REMARK                         _______ _______ _______ _____ _____    ______ ____
ROOT
ATOM      1  O   UNL     1      33.612 -21.467 -19.498  0.00  0.00    -0.270 OA
ATOM      2  N   UNL     1      35.625 -20.297 -19.820  0.00  0.00    -0.280 N 
ATOM      3  C   UNL     1      34.762 -21.191 -19.174  0.00  0.00    +0.250 C 
ATOM      4  H   UNL     1      36.519 -20.195 -19.421  0.00  0.00    +0.155 HD
ENDROOT
BRANCH   3   7
ATOM      5 CL   UNL     1      32.838 -22.859 -17.425  0.00  0.00    -0.082 Cl
ATOM      6  C   UNL     1      36.430 -23.021 -15.688  0.00  0.00    +0.107 C 
ATOM      7  C   UNL     1      35.312 -21.840 -17.956  0.00  0.00    +0.064 C 
ATOM      8  C   UNL     1      35.076 -23.203 -15.975  0.00  0.00    +0.030 C 
ATOM      9  C   UNL     1      37.225 -22.249 -16.536  0.00  0.00    +0.019 C 
ATOM     10  C   UNL     1      34.518 -22.613 -17.108  0.00  0.00    +0.063 C 
ATOM     11  C   UNL     1      36.666 -21.659 -17.669  0.00  0.00    +0.007 C 
BRANCH   6  12
ATOM     12  S   UNL     1      37.131 -23.762 -14.271  0.00  0.00    +0.010 S 
ATOM     13  O   UNL     1      38.571 -23.832 -14.469  0.00  0.00    -0.169 OA
ATOM     14  O   UNL     1      36.596 -23.110 -13.084  0.00  0.00    -0.169 OA
ATOM     15  C   UNL     1      36.496 -25.423 -14.281  0.00  0.00    +0.182 C 
ENDBRANCH   6  12
ENDBRANCH   3   7
BRANCH   2  17
ATOM     16 CL   UNL     1      34.568 -17.106 -24.687  0.00  0.00    -0.082 Cl
ATOM     17  C   UNL     1      35.374 -19.532 -20.960  0.00  0.00    +0.051 C 
ATOM     18  C   UNL     1      34.939 -17.390 -21.990  0.00  0.00    +0.029 C 
ATOM     19  C   UNL     1      35.189 -18.153 -20.849  0.00  0.00    +0.017 C 
ATOM     20  C   UNL     1      35.309 -20.146 -22.210  0.00  0.00    +0.016 C 
ATOM     21  C   UNL     1      34.874 -18.005 -23.240  0.00  0.00    +0.059 C 
ATOM     22  C   UNL     1      35.058 -19.382 -23.351  0.00  0.00    +0.013 C 
BRANCH  18  24
ATOM     23  N   UNL     1      34.676 -15.261 -22.985  0.00  0.00    -0.244 NA
ATOM     24  C   UNL     1      34.754 -15.959 -21.830  0.00  0.00    +0.082 C 
ATOM     25  C   UNL     1      34.670 -15.388 -20.570  0.00  0.00    +0.019 C 
ATOM     26  C   UNL     1      34.493 -14.011 -20.492  0.00  0.00    +0.003 C 
ATOM     27  C   UNL     1      34.505 -13.925 -22.868  0.00  0.00    +0.099 C 
ATOM     28  C   UNL     1      34.408 -13.259 -21.657  0.00  0.00    +0.021 C 
ENDBRANCH  18  24
ENDBRANCH   2  17
TORSDOF 4
ENDMDL
MODEL 4
REMARK VINA RESULT:      -9.6      8.990     14.468
REMARK  Name = 24776445
REMARK  4 active torsions:
REMARK  status: ('A' for Active; 'I' for Inactive)
REMARK    1  A    between atoms: N_2  and  C_17
REMARK    2  A    between atoms: C_3  and  C_7
REMARK    3  A    between atoms: C_6  and  S_12
REMARK    4  A    between atoms: C_18  and  C_24
REMARK                            x       y       z     vdW  Elec       q    Type
REMARK                         _______ _______ _______ _____ _____    ______ ____
ROOT
ATOM      1  O   UNL     1      33.976 -12.551 -24.444  0.00  0.00    -0.270 OA
ATOM      2  N   UNL     1      33.129 -12.234 -22.274  0.00  0.00    -0.280 N 
ATOM      3  C   UNL     1      33.771 -12.940 -23.299  0.00  0.00    +0.250 C 
ATOM      4  H   UNL     1      33.050 -12.703 -21.411  0.00  0.00    +0.155 HD
ENDROOT
BRANCH   3   7
ATOM      5 CL   UNL     1      33.671 -15.112 -25.494  0.00  0.00    -0.082 Cl
ATOM      6  C   UNL     1      35.078 -16.857 -22.190  0.00  0.00    +0.107 C 
ATOM      7  C   UNL     1      34.220 -14.312 -22.944  0.00  0.00    +0.064 C 
ATOM      8  C   UNL     1      34.639 -16.627 -23.494  0.00  0.00    +0.030 C 
ATOM      9  C   UNL     1      35.088 -15.814 -21.263  0.00  0.00    +0.019 C 
ATOM     10  C   UNL     1      34.210 -15.355 -23.871  0.00  0.00    +0.063 C 
ATOM     11  C   UNL     1      34.659 -14.542 -21.640  0.00  0.00    +0.007 C 
BRANCH   6  12
ATOM     12  S   UNL     1      35.618 -18.449 -21.717  0.00  0.00    +0.010 S 
ATOM     13  O   UNL     1      37.072 -18.462 -21.769  0.00  0.00    -0.169 OA
ATOM     14  O   UNL     1      34.935 -18.834 -20.490  0.00  0.00    -0.169 OA
ATOM     15  C   UNL     1      35.015 -19.520 -23.003  0.00  0.00    +0.182 C 
ENDBRANCH   6  12
ENDBRANCH   3   7
BRANCH   2  17
ATOM     16 CL   UNL     1      30.774  -6.812 -22.456  0.00  0.00    -0.082 Cl
ATOM     17  C   UNL     1      32.585 -10.950 -22.324  0.00  0.00    +0.051 C 
ATOM     18  C   UNL     1      32.713  -8.650 -23.052  0.00  0.00    +0.029 C 
ATOM     19  C   UNL     1      33.258  -9.933 -23.002  0.00  0.00    +0.017 C 
ATOM     20  C   UNL     1      31.368 -10.684 -21.698  0.00  0.00    +0.016 C 
ATOM     21  C   UNL     1      31.496  -8.384 -22.425  0.00  0.00    +0.059 C 
ATOM     22  C   UNL     1      30.824  -9.400 -21.748  0.00  0.00    +0.013 C 
BRANCH  18  24
ATOM     23  N   UNL     1      32.810  -7.116 -24.849  0.00  0.00    -0.244 NA
ATOM     24  C   UNL     1      33.445  -7.622 -23.768  0.00  0.00    +0.082 C 
ATOM     25  C   UNL     1      34.701  -7.215 -23.346  0.00  0.00    +0.019 C 
ATOM     26  C   UNL     1      35.345  -6.225 -24.080  0.00  0.00    +0.003 C 
ATOM     27  C   UNL     1      33.467  -6.156 -25.538  0.00  0.00    +0.099 C 
ATOM     28  C   UNL     1      34.724  -5.681 -25.198  0.00  0.00    +0.021 C 
ENDBRANCH  18  24
ENDBRANCH   2  17
TORSDOF 4
ENDMDL
MODEL 5
REMARK VINA RESULT:      -9.3      6.992     10.572
REMARK  Name = 24776445
REMARK  4 active torsions:
REMARK  status: ('A' for Active; 'I' for Inactive)
REMARK    1  A    between atoms: N_2  and  C_17
REMARK    2  A    between atoms: C_3  and  C_7
REMARK    3  A    between atoms: C_6  and  S_12
REMARK    4  A    between atoms: C_18  and  C_24
REMARK                            x       y       z     vdW  Elec       q    Type
REMARK                         _______ _______ _______ _____ _____    ______ ____
ROOT
ATOM      1  O   UNL     1      32.688 -13.822 -24.751  0.00  0.00    -0.270 OA
ATOM      2  N   UNL     1      33.995 -14.491 -22.915  0.00  0.00    -0.280 N 
ATOM      3  C   UNL     1      33.237 -13.594 -23.678  0.00  0.00    +0.250 C 
ATOM      4  H   UNL     1      34.365 -14.136 -22.074  0.00  0.00    +0.155 HD
ENDROOT
BRANCH   3   7
ATOM      5 CL   UNL     1      31.802 -13.246 -20.965  0.00  0.00    -0.082 Cl
ATOM      6  C   UNL     1      32.949  -9.610 -22.151  0.00  0.00    +0.107 C 
ATOM      7  C   UNL     1      33.122 -12.221 -23.121  0.00  0.00    +0.064 C 
ATOM      8  C   UNL     1      32.405 -10.665 -21.417  0.00  0.00    +0.030 C 
ATOM      9  C   UNL     1      33.580  -9.861 -23.370  0.00  0.00    +0.019 C 
ATOM     10  C   UNL     1      32.491 -11.969 -21.902  0.00  0.00    +0.063 C 
ATOM     11  C   UNL     1      33.666 -11.166 -23.854  0.00  0.00    +0.007 C 
BRANCH   6  12
ATOM     12  S   UNL     1      32.844  -7.976 -21.544  0.00  0.00    +0.010 S 
ATOM     13  O   UNL     1      31.615  -7.387 -22.054  0.00  0.00    -0.169 OA
ATOM     14  O   UNL     1      33.099  -7.989 -20.110  0.00  0.00    -0.169 OA
ATOM     15  C   UNL     1      34.213  -7.134 -22.306  0.00  0.00    +0.182 C 
ENDBRANCH   6  12
ENDBRANCH   3   7
BRANCH   2  17
ATOM     16 CL   UNL     1      35.232 -20.134 -24.182  0.00  0.00    -0.082 Cl
ATOM     17  C   UNL     1      34.291 -15.824 -23.200  0.00  0.00    +0.051 C 
ATOM     18  C   UNL     1      35.023 -18.008 -22.470  0.00  0.00    +0.029 C 
ATOM     19  C   UNL     1      34.728 -16.675 -22.184  0.00  0.00    +0.017 C 
ATOM     20  C   UNL     1      34.149 -16.306 -24.501  0.00  0.00    +0.016 C 
ATOM     21  C   UNL     1      34.881 -18.490 -23.771  0.00  0.00    +0.059 C 
ATOM     22  C   UNL     1      34.445 -17.640 -24.786  0.00  0.00    +0.013 C 
BRANCH  18  24
ATOM     23  N   UNL     1      36.731 -18.617 -20.953  0.00  0.00    -0.244 NA
ATOM     24  C   UNL     1      35.472 -18.859 -21.384  0.00  0.00    +0.082 C 
ATOM     25  C   UNL     1      34.645 -19.837 -20.855  0.00  0.00    +0.019 C 
ATOM     26  C   UNL     1      35.141 -20.615 -19.815  0.00  0.00    +0.003 C 
ATOM     27  C   UNL     1      37.178 -19.395 -19.941  0.00  0.00    +0.099 C 
ATOM     28  C   UNL     1      36.430 -20.397 -19.345  0.00  0.00    +0.021 C 
ENDBRANCH  18  24
ENDBRANCH   2  17
TORSDOF 4
ENDMDL
MODEL 6
REMARK VINA RESULT:      -9.0      3.894      9.726
REMARK  Name = 24776445
REMARK  4 active torsions:
REMARK  status: ('A' for Active; 'I' for Inactive)
REMARK    1  A    between atoms: N_2  and  C_17
REMARK    2  A    between atoms: C_3  and  C_7
REMARK    3  A    between atoms: C_6  and  S_12
REMARK    4  A    between atoms: C_18  and  C_24
REMARK                            x       y       z     vdW  Elec       q    Type
REMARK                         _______ _______ _______ _____ _____    ______ ____
ROOT
ATOM      1  O   UNL     1      32.727 -21.127 -19.957  0.00  0.00    -0.270 OA
ATOM      2  N   UNL     1      34.941 -20.344 -20.062  0.00  0.00    -0.280 N 
ATOM      3  C   UNL     1      33.879 -21.091 -19.537  0.00  0.00    +0.250 C 
ATOM      4  H   UNL     1      35.804 -20.434 -19.596  0.00  0.00    +0.155 HD
ENDROOT
BRANCH   3   7
ATOM      5 CL   UNL     1      36.761 -20.963 -18.434  0.00  0.00    -0.082 Cl
ATOM      6  C   UNL     1      34.716 -23.441 -16.065  0.00  0.00    +0.107 C 
ATOM      7  C   UNL     1      34.200 -21.896 -18.330  0.00  0.00    +0.064 C 
ATOM      8  C   UNL     1      35.732 -22.671 -16.630  0.00  0.00    +0.030 C 
ATOM      9  C   UNL     1      33.440 -23.438 -16.632  0.00  0.00    +0.019 C 
ATOM     10  C   UNL     1      35.474 -21.899 -17.763  0.00  0.00    +0.063 C 
ATOM     11  C   UNL     1      33.183 -22.666 -17.764  0.00  0.00    +0.007 C 
BRANCH   6  12
ATOM     12  S   UNL     1      35.036 -24.406 -14.645  0.00  0.00    +0.010 S 
ATOM     13  O   UNL     1      33.779 -24.585 -13.933  0.00  0.00    -0.169 OA
ATOM     14  O   UNL     1      35.818 -25.571 -15.034  0.00  0.00    -0.169 OA
ATOM     15  C   UNL     1      36.091 -23.383 -13.645  0.00  0.00    +0.182 C 
ENDBRANCH   6  12
ENDBRANCH   3   7
BRANCH   2  17
ATOM     16 CL   UNL     1      34.894 -16.759 -24.765  0.00  0.00    -0.082 Cl
ATOM     17  C   UNL     1      34.927 -19.486 -21.162  0.00  0.00    +0.051 C 
ATOM     18  C   UNL     1      34.797 -17.253 -22.075  0.00  0.00    +0.029 C 
ATOM     19  C   UNL     1      34.809 -18.109 -20.974  0.00  0.00    +0.017 C 
ATOM     20  C   UNL     1      35.034 -20.007 -22.452  0.00  0.00    +0.016 C 
ATOM     21  C   UNL     1      34.903 -17.774 -23.364  0.00  0.00    +0.059 C 
ATOM     22  C   UNL     1      35.021 -19.150 -23.553  0.00  0.00    +0.013 C 
BRANCH  18  24
ATOM     23  N   UNL     1      34.736 -15.460 -20.534  0.00  0.00    -0.244 NA
ATOM     24  C   UNL     1      34.674 -15.827 -21.834  0.00  0.00    +0.082 C 
ATOM     25  C   UNL     1      34.505 -14.938 -22.884  0.00  0.00    +0.019 C 
ATOM     26  C   UNL     1      34.395 -13.586 -22.579  0.00  0.00    +0.003 C 
ATOM     27  C   UNL     1      34.623 -14.138 -20.277  0.00  0.00    +0.099 C 
ATOM     28  C   UNL     1      34.453 -13.170 -21.255  0.00  0.00    +0.021 C 
ENDBRANCH  18  24
ENDBRANCH   2  17
TORSDOF 4
ENDMDL
MODEL 7
REMARK VINA RESULT:      -8.9     11.458     15.319
REMARK  Name = 24776445
REMARK  4 active torsions:
REMARK  status: ('A' for Active; 'I' for Inactive)
REMARK    1  A    between atoms: N_2  and  C_17
REMARK    2  A    between atoms: C_3  and  C_7
REMARK    3  A    between atoms: C_6  and  S_12
REMARK    4  A    between atoms: C_18  and  C_24
REMARK                            x       y       z     vdW  Elec       q    Type
REMARK                         _______ _______ _______ _____ _____    ______ ____
ROOT
ATOM      1  O   UNL     1      31.813  -7.344 -22.285  0.00  0.00    -0.270 OA
ATOM      2  N   UNL     1      33.045  -8.932 -23.504  0.00  0.00    -0.280 N 
ATOM      3  C   UNL     1      32.557  -7.652 -23.210  0.00  0.00    +0.250 C 
ATOM      4  H   UNL     1      33.635  -8.998 -24.290  0.00  0.00    +0.155 HD
ENDROOT
BRANCH   3   7
ATOM      5 CL   UNL     1      35.555  -6.913 -23.310  0.00  0.00    -0.082 Cl
ATOM      6  C   UNL     1      33.683  -4.548 -25.926  0.00  0.00    +0.107 C 
ATOM      7  C   UNL     1      32.980  -6.578 -24.145  0.00  0.00    +0.064 C 
ATOM      8  C   UNL     1      34.663  -5.164 -25.148  0.00  0.00    +0.030 C 
ATOM      9  C   UNL     1      32.350  -4.947 -25.814  0.00  0.00    +0.019 C 
ATOM     10  C   UNL     1      34.311  -6.178 -24.258  0.00  0.00    +0.063 C 
ATOM     11  C   UNL     1      31.999  -5.962 -24.924  0.00  0.00    +0.007 C 
BRANCH   6  12
ATOM     12  S   UNL     1      34.122  -3.280 -27.043  0.00  0.00    +0.010 S 
ATOM     13  O   UNL     1      34.020  -2.009 -26.340  0.00  0.00    -0.169 OA
ATOM     14  O   UNL     1      35.368  -3.643 -27.703  0.00  0.00    -0.169 OA
ATOM     15  C   UNL     1      32.847  -3.323 -28.283  0.00  0.00    +0.182 C 
ENDBRANCH   6  12
ENDBRANCH   3   7
BRANCH   2  17
ATOM     16 CL   UNL     1      31.967 -13.952 -20.571  0.00  0.00    -0.082 Cl
ATOM     17  C   UNL     1      32.797 -10.124 -22.823  0.00  0.00    +0.051 C 
ATOM     18  C   UNL     1      33.038 -12.521 -22.644  0.00  0.00    +0.029 C 
ATOM     19  C   UNL     1      33.285 -11.330 -23.327  0.00  0.00    +0.017 C 
ATOM     20  C   UNL     1      32.063 -10.109 -21.638  0.00  0.00    +0.016 C 
ATOM     21  C   UNL     1      32.303 -12.506 -21.458  0.00  0.00    +0.059 C 
ATOM     22  C   UNL     1      31.815 -11.301 -20.956  0.00  0.00    +0.013 C 
BRANCH  18  24
ATOM     23  N   UNL     1      34.529 -14.347 -22.463  0.00  0.00    -0.244 NA
ATOM     24  C   UNL     1      33.565 -13.753 -23.201  0.00  0.00    +0.082 C 
ATOM     25  C   UNL     1      33.090 -14.252 -24.404  0.00  0.00    +0.019 C 
ATOM     26  C   UNL     1      33.640 -15.437 -24.878  0.00  0.00    +0.003 C 
ATOM     27  C   UNL     1      35.040 -15.497 -22.957  0.00  0.00    +0.099 C 
ATOM     28  C   UNL     1      34.634 -16.077 -24.148  0.00  0.00    +0.021 C 
ENDBRANCH  18  24
ENDBRANCH   2  17
TORSDOF 4
ENDMDL
MODEL 8
REMARK VINA RESULT:      -8.9      1.090      1.417
REMARK  Name = 24776445
REMARK  4 active torsions:
REMARK  status: ('A' for Active; 'I' for Inactive)
REMARK    1  A    between atoms: N_2  and  C_17
REMARK    2  A    between atoms: C_3  and  C_7
REMARK    3  A    between atoms: C_6  and  S_12
REMARK    4  A    between atoms: C_18  and  C_24
REMARK                            x       y       z     vdW  Elec       q    Type
REMARK                         _______ _______ _______ _____ _____    ______ ____
ROOT
ATOM      1  O   UNL     1      33.928 -23.716 -18.824  0.00  0.00    -0.270 OA
ATOM      2  N   UNL     1      33.902 -22.199 -17.029  0.00  0.00    -0.280 N 
ATOM      3  C   UNL     1      34.105 -22.596 -18.356  0.00  0.00    +0.250 C 
ATOM      4  H   UNL     1      34.096 -21.255 -16.826  0.00  0.00    +0.155 HD
ENDROOT
BRANCH   3   7
ATOM      5 CL   UNL     1      32.056 -20.653 -19.608  0.00  0.00    -0.082 Cl
ATOM      6  C   UNL     1      35.655 -19.587 -20.968  0.00  0.00    +0.107 C 
ATOM      7  C   UNL     1      34.614 -21.539 -19.268  0.00  0.00    +0.064 C 
ATOM      8  C   UNL     1      34.282 -19.642 -20.727  0.00  0.00    +0.030 C 
ATOM      9  C   UNL     1      36.508 -20.508 -20.358  0.00  0.00    +0.019 C 
ATOM     10  C   UNL     1      33.762 -20.617 -19.878  0.00  0.00    +0.063 C 
ATOM     11  C   UNL     1      35.987 -21.483 -19.508  0.00  0.00    +0.007 C 
BRANCH   6  12
ATOM     12  S   UNL     1      36.309 -18.364 -22.030  0.00  0.00    +0.010 S 
ATOM     13  O   UNL     1      37.746 -18.302 -21.809  0.00  0.00    -0.169 OA
ATOM     14  O   UNL     1      35.794 -18.583 -23.374  0.00  0.00    -0.169 OA
ATOM     15  C   UNL     1      35.598 -16.844 -21.443  0.00  0.00    +0.182 C 
ENDBRANCH   6  12
ENDBRANCH   3   7
BRANCH   2  17
ATOM     16 CL   UNL     1      31.965 -25.487 -12.510  0.00  0.00    -0.082 Cl
ATOM     17  C   UNL     1      33.459 -22.975 -15.957  0.00  0.00    +0.051 C 
ATOM     18  C   UNL     1      33.901 -24.110 -13.871  0.00  0.00    +0.029 C 
ATOM     19  C   UNL     1      34.345 -23.335 -14.942  0.00  0.00    +0.017 C 
ATOM     20  C   UNL     1      32.128 -23.390 -15.901  0.00  0.00    +0.016 C 
ATOM     21  C   UNL     1      32.570 -24.525 -13.815  0.00  0.00    +0.059 C 
ATOM     22  C   UNL     1      31.685 -24.167 -14.830  0.00  0.00    +0.013 C 
BRANCH  18  24
ATOM     23  N   UNL     1      34.594 -23.937 -11.616  0.00  0.00    -0.244 NA
ATOM     24  C   UNL     1      34.855 -24.460 -12.835  0.00  0.00    +0.082 C 
ATOM     25  C   UNL     1      35.943 -25.273 -13.113  0.00  0.00    +0.019 C 
ATOM     26  C   UNL     1      36.816 -25.568 -12.073  0.00  0.00    +0.003 C 
ATOM     27  C   UNL     1      35.466 -24.245 -10.631  0.00  0.00    +0.099 C 
ATOM     28  C   UNL     1      36.581 -25.048 -10.806  0.00  0.00    +0.021 C 
ENDBRANCH  18  24
ENDBRANCH   2  17
TORSDOF 4
ENDMDL
MODEL 9
REMARK VINA RESULT:      -8.7     11.628     15.516
REMARK  Name = 24776445
REMARK  4 active torsions:
REMARK  status: ('A' for Active; 'I' for Inactive)
REMARK    1  A    between atoms: N_2  and  C_17
REMARK    2  A    between atoms: C_3  and  C_7
REMARK    3  A    between atoms: C_6  and  S_12
REMARK    4  A    between atoms: C_18  and  C_24
REMARK                            x       y       z     vdW  Elec       q    Type
REMARK                         _______ _______ _______ _____ _____    ______ ____
ROOT
ATOM      1  O   UNL     1      31.944  -7.233 -22.601  0.00  0.00    -0.270 OA
ATOM      2  N   UNL     1      33.306  -8.853 -23.623  0.00  0.00    -0.280 N 
ATOM      3  C   UNL     1      32.790  -7.566 -23.424  0.00  0.00    +0.250 C 
ATOM      4  H   UNL     1      33.983  -8.941 -24.333  0.00  0.00    +0.155 HD
ENDROOT
BRANCH   3   7
ATOM      5 CL   UNL     1      30.797  -5.519 -24.599  0.00  0.00    -0.082 Cl
ATOM      6  C   UNL     1      34.405  -4.589 -26.033  0.00  0.00    +0.107 C 
ATOM      7  C   UNL     1      33.321  -6.518 -24.334  0.00  0.00    +0.064 C 
ATOM      8  C   UNL     1      33.037  -4.588 -25.759  0.00  0.00    +0.030 C 
ATOM      9  C   UNL     1      35.232  -5.555 -25.457  0.00  0.00    +0.019 C 
ATOM     10  C   UNL     1      32.496  -5.553 -24.910  0.00  0.00    +0.063 C 
ATOM     11  C   UNL     1      34.690  -6.518 -24.608  0.00  0.00    +0.007 C 
BRANCH   6  12
ATOM     12  S   UNL     1      35.085  -3.380 -27.094  0.00  0.00    +0.010 S 
ATOM     13  O   UNL     1      34.540  -3.596 -28.427  0.00  0.00    -0.169 OA
ATOM     14  O   UNL     1      34.957  -2.073 -26.464  0.00  0.00    -0.169 OA
ATOM     15  C   UNL     1      36.821  -3.764 -27.144  0.00  0.00    +0.182 C 
ENDBRANCH   6  12
ENDBRANCH   3   7
BRANCH   2  17
ATOM     16 CL   UNL     1      31.886 -13.789 -20.691  0.00  0.00    -0.082 Cl
ATOM     17  C   UNL     1      32.978 -10.026 -22.942  0.00  0.00    +0.051 C 
ATOM     18  C   UNL     1      33.109 -12.429 -22.727  0.00  0.00    +0.029 C 
ATOM     19  C   UNL     1      33.437 -11.257 -23.410  0.00  0.00    +0.017 C 
ATOM     20  C   UNL     1      32.191  -9.966 -21.792  0.00  0.00    +0.016 C 
ATOM     21  C   UNL     1      32.322 -12.368 -21.577  0.00  0.00    +0.059 C 
ATOM     22  C   UNL     1      31.863 -11.138 -21.110  0.00  0.00    +0.013 C 
BRANCH  18  24
ATOM     23  N   UNL     1      33.060 -14.079 -24.419  0.00  0.00    -0.244 NA
ATOM     24  C   UNL     1      33.608 -13.688 -23.247  0.00  0.00    +0.082 C 
ATOM     25  C   UNL     1      34.575 -14.408 -22.564  0.00  0.00    +0.019 C 
ATOM     26  C   UNL     1      35.008 -15.606 -23.121  0.00  0.00    +0.003 C 
ATOM     27  C   UNL     1      33.506 -15.250 -24.929  0.00  0.00    +0.099 C 
ATOM     28  C   UNL     1      34.468 -16.042 -24.324  0.00  0.00    +0.021 C 
ENDBRANCH  18  24
ENDBRANCH   2  17
TORSDOF 4
ENDMDL
