MODEL 1
REMARK VINA RESULT:     -11.3      0.000      0.000
REMARK  Name = 11979006
REMARK  7 active torsions:
REMARK  status: ('A' for Active; 'I' for Inactive)
REMARK    1  A    between atoms: C_1  and  N_2
REMARK    2  A    between atoms: C_1  and  C_22
REMARK    3  A    between atoms: C_3  and  N_9
REMARK    4  A    between atoms: C_4  and  O_18
REMARK    5  A    between atoms: C_10  and  C_14
REMARK    6  A    between atoms: N_21  and  C_25
REMARK    7  A    between atoms: C_28  and  N_32
REMARK                            x       y       z     vdW  Elec       q    Type
REMARK                         _______ _______ _______ _____ _____    ______ ____
ROOT
ATOM      1  C   UNL     1      36.168 -20.432 -20.231  0.00  0.00    +0.010 C 
ENDROOT
BRANCH   1   2
ATOM      2  N   UNL     1      35.644 -20.914 -18.962  0.00  0.00    +0.396 N 
ATOM      3  C   UNL     1      35.917 -21.998 -16.938  0.00  0.00    +0.076 C 
ATOM      4  C   UNL     1      34.835 -22.751 -17.715  0.00  0.00    +0.106 C 
ATOM      5  C   UNL     1      36.704 -21.267 -18.017  0.00  0.00    -0.054 C 
ATOM      6  C   UNL     1      34.834 -22.129 -19.113  0.00  0.00    -0.045 C 
ATOM      7  H   UNL     1      35.084 -20.136 -18.615  0.00  0.00    -0.079 HD
BRANCH   3   9
ATOM      8  O   UNL     1      35.300 -22.986 -14.371  0.00  0.00    -0.270 OA
ATOM      9  N   UNL     1      36.743 -22.875 -16.156  0.00  0.00    -0.302 N 
ATOM     10  C   UNL     1      36.367 -23.323 -14.886  0.00  0.00    +0.252 C 
ATOM     11  H   UNL     1      37.606 -23.170 -16.526  0.00  0.00    +0.150 HD
BRANCH  10  14
ATOM     12 CL   UNL     1      40.806 -26.298 -13.689  0.00  0.00    -0.075 Cl
ATOM     13  S   UNL     1      38.824 -24.470 -14.932  0.00  0.00    -0.071 S 
ATOM     14  C   UNL     1      37.305 -24.241 -14.223  0.00  0.00    +0.084 C 
ATOM     15  C   UNL     1      37.099 -24.945 -13.088  0.00  0.00    +0.012 C 
ATOM     16  C   UNL     1      38.247 -25.725 -12.766  0.00  0.00    +0.019 C 
ATOM     17  C   UNL     1      39.259 -25.560 -13.686  0.00  0.00    +0.087 C 
ENDBRANCH  10  14
ENDBRANCH   3   9
BRANCH   4  18
ATOM     18  O   UNL     1      33.579 -22.560 -17.077  0.00  0.00    -0.385 OA
ATOM     19  H   UNL     1      33.485 -21.629 -16.820  0.00  0.00    +0.210 HD
ENDBRANCH   4  18
ENDBRANCH   1   2
BRANCH   1  22
ATOM     20  O   UNL     1      34.113 -19.663 -21.234  0.00  0.00    -0.277 OA
ATOM     21  N   UNL     1      35.814 -18.123 -20.739  0.00  0.00    -0.284 N 
ATOM     22  C   UNL     1      35.226 -19.385 -20.800  0.00  0.00    +0.205 C 
ATOM     23  H   UNL     1      36.719 -18.084 -20.353  0.00  0.00    +0.155 HD
BRANCH  21  25
ATOM     24  F   UNL     1      35.548 -17.525 -23.437  0.00  0.00    -0.203 F 
ATOM     25  C   UNL     1      35.263 -16.891 -21.166  0.00  0.00    +0.078 C 
ATOM     26  C   UNL     1      35.147 -16.631 -22.521  0.00  0.00    +0.155 C 
ATOM     27  C   UNL     1      34.851 -15.971 -20.216  0.00  0.00    +0.018 C 
ATOM     28  C   UNL     1      34.185 -14.478 -21.995  0.00  0.00    +0.061 C 
ATOM     29  C   UNL     1      34.604 -15.416 -22.939  0.00  0.00    +0.046 C 
ATOM     30  C   UNL     1      34.309 -14.756 -20.633  0.00  0.00    +0.017 C 
BRANCH  28  32
ATOM     31  O   UNL     1      31.783 -13.266 -20.934  0.00  0.00    -0.269 OA
ATOM     32  N   UNL     1      33.622 -13.215 -22.429  0.00  0.00    -0.233 N 
ATOM     33  C   UNL     1      32.455 -12.707 -21.799  0.00  0.00    +0.257 C 
ATOM     34  C   UNL     1      34.205 -12.503 -23.480  0.00  0.00    +0.072 C 
ATOM     35  C   UNL     1      31.968 -11.376 -22.277  0.00  0.00    +0.059 C 
ATOM     36  C   UNL     1      33.730 -11.330 -23.910  0.00  0.00    +0.017 C 
ATOM     37  C   UNL     1      32.581 -10.747 -23.282  0.00  0.00    +0.006 C 
ENDBRANCH  28  32
ENDBRANCH  21  25
ENDBRANCH   1  22
TORSDOF 7
ENDMDL
MODEL 2
REMARK VINA RESULT:     -11.1      7.315     13.888
REMARK  Name = 11979006
REMARK  7 active torsions:
REMARK  status: ('A' for Active; 'I' for Inactive)
REMARK    1  A    between atoms: C_1  and  N_2
REMARK    2  A    between atoms: C_1  and  C_22
REMARK    3  A    between atoms: C_3  and  N_9
REMARK    4  A    between atoms: C_4  and  O_18
REMARK    5  A    between atoms: C_10  and  C_14
REMARK    6  A    between atoms: N_21  and  C_25
REMARK    7  A    between atoms: C_28  and  N_32
REMARK                            x       y       z     vdW  Elec       q    Type
REMARK                         _______ _______ _______ _____ _____    ______ ____
ROOT
ATOM      1  C   UNL     1      33.820 -11.889 -24.175  0.00  0.00    +0.010 C 
ENDROOT
BRANCH   1   2
ATOM      2  N   UNL     1      32.608 -11.302 -23.626  0.00  0.00    +0.396 N 
ATOM      3  C   UNL     1      31.381  -9.473 -22.923  0.00  0.00    +0.076 C 
ATOM      4  C   UNL     1      31.509 -10.420 -21.728  0.00  0.00    +0.106 C 
ATOM      5  C   UNL     1      32.549  -9.853 -23.823  0.00  0.00    -0.054 C 
ATOM      6  C   UNL     1      32.491 -11.505 -22.177  0.00  0.00    -0.045 C 
ATOM      7  H   UNL     1      31.856 -11.773 -24.127  0.00  0.00    -0.079 HD
BRANCH   3   9
ATOM      8  O   UNL     1      30.380  -7.312 -24.433  0.00  0.00    -0.270 OA
ATOM      9  N   UNL     1      31.416  -8.089 -22.535  0.00  0.00    -0.302 N 
ATOM     10  C   UNL     1      30.897  -7.073 -23.340  0.00  0.00    +0.252 C 
ATOM     11  H   UNL     1      31.821  -7.849 -21.670  0.00  0.00    +0.150 HD
BRANCH  10  14
ATOM     12 CL   UNL     1      32.209  -1.810 -22.586  0.00  0.00    -0.075 Cl
ATOM     13  S   UNL     1      31.962  -4.591 -23.594  0.00  0.00    -0.071 S 
ATOM     14  C   UNL     1      30.979  -5.711 -22.792  0.00  0.00    +0.084 C 
ATOM     15  C   UNL     1      30.350  -5.229 -21.697  0.00  0.00    +0.012 C 
ATOM     16  C   UNL     1      30.684  -3.859 -21.489  0.00  0.00    +0.019 C 
ATOM     17  C   UNL     1      31.552  -3.387 -22.449  0.00  0.00    +0.087 C 
ENDBRANCH  10  14
ENDBRANCH   3   9
BRANCH   4  18
ATOM     18  O   UNL     1      30.236 -10.981 -21.434  0.00  0.00    -0.385 OA
ATOM     19  H   UNL     1      30.291 -11.948 -21.478  0.00  0.00    +0.210 HD
ENDBRANCH   4  18
ENDBRANCH   1   2
BRANCH   1  22
ATOM     20  O   UNL     1      33.175 -14.151 -24.715  0.00  0.00    -0.277 OA
ATOM     21  N   UNL     1      34.546 -13.744 -22.853  0.00  0.00    -0.284 N 
ATOM     22  C   UNL     1      33.789 -13.394 -23.970  0.00  0.00    +0.205 C 
ATOM     23  H   UNL     1      34.977 -13.001 -22.371  0.00  0.00    +0.155 HD
BRANCH  21  25
ATOM     24  F   UNL     1      34.446 -14.230 -20.121  0.00  0.00    -0.203 F 
ATOM     25  C   UNL     1      34.767 -15.040 -22.330  0.00  0.00    +0.078 C 
ATOM     26  C   UNL     1      34.708 -15.241 -20.961  0.00  0.00    +0.155 C 
ATOM     27  C   UNL     1      35.038 -16.082 -23.203  0.00  0.00    +0.018 C 
ATOM     28  C   UNL     1      35.202 -17.580 -21.314  0.00  0.00    +0.061 C 
ATOM     29  C   UNL     1      34.927 -16.521 -20.450  0.00  0.00    +0.046 C 
ATOM     30  C   UNL     1      35.257 -17.360 -22.691  0.00  0.00    +0.017 C 
BRANCH  28  32
ATOM     31  O   UNL     1      37.793 -18.725 -20.730  0.00  0.00    -0.269 OA
ATOM     32  N   UNL     1      35.430 -18.909 -20.782  0.00  0.00    -0.233 N 
ATOM     33  C   UNL     1      36.752 -19.341 -20.500  0.00  0.00    +0.257 C 
ATOM     34  C   UNL     1      34.359 -19.778 -20.564  0.00  0.00    +0.072 C 
ATOM     35  C   UNL     1      36.894 -20.707 -19.909  0.00  0.00    +0.059 C 
ATOM     36  C   UNL     1      34.516 -21.009 -20.065  0.00  0.00    +0.017 C 
ATOM     37  C   UNL     1      35.824 -21.482 -19.721  0.00  0.00    +0.006 C 
ENDBRANCH  28  32
ENDBRANCH  21  25
ENDBRANCH   1  22
TORSDOF 7
ENDMDL
MODEL 3
REMARK VINA RESULT:     -10.5      7.440     14.389
REMARK  Name = 11979006
REMARK  7 active torsions:
REMARK  status: ('A' for Active; 'I' for Inactive)
REMARK    1  A    between atoms: C_1  and  N_2
REMARK    2  A    between atoms: C_1  and  C_22
REMARK    3  A    between atoms: C_3  and  N_9
REMARK    4  A    between atoms: C_4  and  O_18
REMARK    5  A    between atoms: C_10  and  C_14
REMARK    6  A    between atoms: N_21  and  C_25
REMARK    7  A    between atoms: C_28  and  N_32
REMARK                            x       y       z     vdW  Elec       q    Type
REMARK                         _______ _______ _______ _____ _____    ______ ____
ROOT
ATOM      1  C   UNL     1      33.481 -11.749 -23.984  0.00  0.00    +0.010 C 
ENDROOT
BRANCH   1   2
ATOM      2  N   UNL     1      32.630 -10.732 -23.384  0.00  0.00    +0.396 N 
ATOM      3  C   UNL     1      31.853  -8.559 -23.255  0.00  0.00    +0.076 C 
ATOM      4  C   UNL     1      32.465  -8.904 -21.896  0.00  0.00    +0.106 C 
ATOM      5  C   UNL     1      32.516  -9.534 -24.217  0.00  0.00    -0.054 C 
ATOM      6  C   UNL     1      33.142 -10.262 -22.091  0.00  0.00    -0.045 C 
ATOM      7  H   UNL     1      31.728 -11.196 -23.279  0.00  0.00    -0.079 HD
BRANCH   3   9
ATOM      8  O   UNL     1      30.485  -6.328 -22.206  0.00  0.00    -0.270 OA
ATOM      9  N   UNL     1      32.073  -7.188 -23.626  0.00  0.00    -0.302 N 
ATOM     10  C   UNL     1      31.352  -6.134 -23.059  0.00  0.00    +0.252 C 
ATOM     11  H   UNL     1      32.756  -6.984 -24.305  0.00  0.00    +0.150 HD
BRANCH  10  14
ATOM     12 CL   UNL     1      33.133  -1.954 -26.116  0.00  0.00    -0.075 Cl
ATOM     13  S   UNL     1      32.363  -4.625 -25.072  0.00  0.00    -0.071 S 
ATOM     14  C   UNL     1      31.715  -4.785 -23.518  0.00  0.00    +0.084 C 
ATOM     15  C   UNL     1      31.592  -3.626 -22.834  0.00  0.00    +0.012 C 
ATOM     16  C   UNL     1      32.054  -2.529 -23.619  0.00  0.00    +0.019 C 
ATOM     17  C   UNL     1      32.499  -2.932 -24.858  0.00  0.00    +0.087 C 
ENDBRANCH  10  14
ENDBRANCH   3   9
BRANCH   4  18
ATOM     18  O   UNL     1      31.431  -8.990 -20.923  0.00  0.00    -0.385 OA
ATOM     19  H   UNL     1      31.264  -9.921 -20.711  0.00  0.00    +0.210 HD
ENDBRANCH   4  18
ENDBRANCH   1   2
BRANCH   1  22
ATOM     20  O   UNL     1      32.180 -13.424 -22.835  0.00  0.00    -0.277 OA
ATOM     21  N   UNL     1      34.475 -13.771 -23.187  0.00  0.00    -0.284 N 
ATOM     22  C   UNL     1      33.274 -13.070 -23.263  0.00  0.00    +0.205 C 
ATOM     23  H   UNL     1      35.260 -13.334 -23.592  0.00  0.00    +0.155 HD
BRANCH  21  25
ATOM     24  F   UNL     1      34.916 -16.028 -24.743  0.00  0.00    -0.203 F 
ATOM     25  C   UNL     1      34.701 -15.037 -22.596  0.00  0.00    +0.078 C 
ATOM     26  C   UNL     1      34.917 -16.138 -23.407  0.00  0.00    +0.155 C 
ATOM     27  C   UNL     1      34.701 -15.146 -21.215  0.00  0.00    +0.018 C 
ATOM     28  C   UNL     1      35.141 -17.512 -21.432  0.00  0.00    +0.061 C 
ATOM     29  C   UNL     1      35.139 -17.385 -22.821  0.00  0.00    +0.046 C 
ATOM     30  C   UNL     1      34.922 -16.392 -20.629  0.00  0.00    +0.017 C 
BRANCH  28  32
ATOM     31  O   UNL     1      37.737 -18.659 -20.873  0.00  0.00    -0.269 OA
ATOM     32  N   UNL     1      35.371 -18.808 -20.823  0.00  0.00    -0.233 N 
ATOM     33  C   UNL     1      36.698 -19.242 -20.564  0.00  0.00    +0.257 C 
ATOM     34  C   UNL     1      34.297 -19.643 -20.510  0.00  0.00    +0.072 C 
ATOM     35  C   UNL     1      36.843 -20.570 -19.892  0.00  0.00    +0.059 C 
ATOM     36  C   UNL     1      34.456 -20.841 -19.938  0.00  0.00    +0.017 C 
ATOM     37  C   UNL     1      35.770 -21.313 -19.614  0.00  0.00    +0.006 C 
ENDBRANCH  28  32
ENDBRANCH  21  25
ENDBRANCH   1  22
TORSDOF 7
ENDMDL
MODEL 4
REMARK VINA RESULT:     -10.2      3.387      5.218
REMARK  Name = 11979006
REMARK  7 active torsions:
REMARK  status: ('A' for Active; 'I' for Inactive)
REMARK    1  A    between atoms: C_1  and  N_2
REMARK    2  A    between atoms: C_1  and  C_22
REMARK    3  A    between atoms: C_3  and  N_9
REMARK    4  A    between atoms: C_4  and  O_18
REMARK    5  A    between atoms: C_10  and  C_14
REMARK    6  A    between atoms: N_21  and  C_25
REMARK    7  A    between atoms: C_28  and  N_32
REMARK                            x       y       z     vdW  Elec       q    Type
REMARK                         _______ _______ _______ _____ _____    ______ ____
ROOT
ATOM      1  C   UNL     1      34.343 -17.277 -23.819  0.00  0.00    +0.010 C 
ENDROOT
BRANCH   1   2
ATOM      2  N   UNL     1      35.191 -18.115 -22.985  0.00  0.00    +0.396 N 
ATOM      3  C   UNL     1      35.467 -19.756 -21.380  0.00  0.00    +0.076 C 
ATOM      4  C   UNL     1      36.139 -18.486 -20.853  0.00  0.00    +0.106 C 
ATOM      5  C   UNL     1      34.464 -19.245 -22.404  0.00  0.00    -0.054 C 
ATOM      6  C   UNL     1      35.756 -17.385 -21.844  0.00  0.00    -0.045 C 
ATOM      7  H   UNL     1      35.923 -18.434 -23.620  0.00  0.00    -0.079 HD
BRANCH   3   9
ATOM      8  O   UNL     1      36.811 -21.324 -19.460  0.00  0.00    -0.270 OA
ATOM      9  N   UNL     1      34.844 -20.523 -20.337  0.00  0.00    -0.302 N 
ATOM     10  C   UNL     1      35.580 -21.277 -19.420  0.00  0.00    +0.252 C 
ATOM     11  H   UNL     1      33.862 -20.517 -20.266  0.00  0.00    +0.150 HD
BRANCH  10  14
ATOM     12 CL   UNL     1      34.114 -23.808 -14.791  0.00  0.00    -0.075 Cl
ATOM     13  S   UNL     1      35.580 -22.385 -16.945  0.00  0.00    -0.071 S 
ATOM     14  C   UNL     1      34.801 -21.982 -18.392  0.00  0.00    +0.084 C 
ATOM     15  C   UNL     1      33.505 -22.359 -18.461  0.00  0.00    +0.012 C 
ATOM     16  C   UNL     1      33.111 -23.021 -17.261  0.00  0.00    +0.019 C 
ATOM     17  C   UNL     1      34.143 -23.102 -16.353  0.00  0.00    +0.087 C 
ENDBRANCH  10  14
ENDBRANCH   3   9
BRANCH   4  18
ATOM     18  O   UNL     1      37.547 -18.675 -20.826  0.00  0.00    -0.385 OA
ATOM     19  H   UNL     1      37.773 -19.489 -21.303  0.00  0.00    +0.210 HD
ENDBRANCH   4  18
ENDBRANCH   1   2
BRANCH   1  22
ATOM     20  O   UNL     1      35.756 -15.400 -23.267  0.00  0.00    -0.277 OA
ATOM     21  N   UNL     1      33.453 -15.070 -23.586  0.00  0.00    -0.284 N 
ATOM     22  C   UNL     1      34.629 -15.815 -23.519  0.00  0.00    +0.205 C 
ATOM     23  H   UNL     1      32.634 -15.571 -23.808  0.00  0.00    +0.155 HD
BRANCH  21  25
ATOM     24  F   UNL     1      32.357 -14.090 -21.231  0.00  0.00    -0.203 F 
ATOM     25  C   UNL     1      33.297 -13.680 -23.373  0.00  0.00    +0.078 C 
ATOM     26  C   UNL     1      32.746 -13.231 -22.184  0.00  0.00    +0.155 C 
ATOM     27  C   UNL     1      33.701 -12.797 -24.361  0.00  0.00    +0.018 C 
ATOM     28  C   UNL     1      32.994 -10.957 -22.963  0.00  0.00    +0.061 C 
ATOM     29  C   UNL     1      32.594 -11.860 -21.978  0.00  0.00    +0.046 C 
ATOM     30  C   UNL     1      33.548 -11.426 -24.155  0.00  0.00    +0.017 C 
BRANCH  28  32
ATOM     31  O   UNL     1      35.083  -8.979 -23.257  0.00  0.00    -0.269 OA
ATOM     32  N   UNL     1      32.835  -9.532 -22.748  0.00  0.00    -0.233 N 
ATOM     33  C   UNL     1      33.932  -8.658 -22.965  0.00  0.00    +0.257 C 
ATOM     34  C   UNL     1      31.616  -9.015 -22.306  0.00  0.00    +0.072 C 
ATOM     35  C   UNL     1      33.668  -7.199 -22.765  0.00  0.00    +0.059 C 
ATOM     36  C   UNL     1      31.415  -7.709 -22.104  0.00  0.00    +0.017 C 
ATOM     37  C   UNL     1      32.474  -6.774 -22.349  0.00  0.00    +0.006 C 
ENDBRANCH  28  32
ENDBRANCH  21  25
ENDBRANCH   1  22
TORSDOF 7
ENDMDL
MODEL 5
REMARK VINA RESULT:     -10.2      5.108     11.954
REMARK  Name = 11979006
REMARK  7 active torsions:
REMARK  status: ('A' for Active; 'I' for Inactive)
REMARK    1  A    between atoms: C_1  and  N_2
REMARK    2  A    between atoms: C_1  and  C_22
REMARK    3  A    between atoms: C_3  and  N_9
REMARK    4  A    between atoms: C_4  and  O_18
REMARK    5  A    between atoms: C_10  and  C_14
REMARK    6  A    between atoms: N_21  and  C_25
REMARK    7  A    between atoms: C_28  and  N_32
REMARK                            x       y       z     vdW  Elec       q    Type
REMARK                         _______ _______ _______ _____ _____    ______ ____
ROOT
ATOM      1  C   UNL     1      34.927 -20.268 -21.128  0.00  0.00    +0.010 C 
ENDROOT
BRANCH   1   2
ATOM      2  N   UNL     1      35.279 -18.958 -21.654  0.00  0.00    +0.396 N 
ATOM      3  C   UNL     1      35.041 -16.659 -21.693  0.00  0.00    +0.076 C 
ATOM      4  C   UNL     1      34.705 -17.175 -23.094  0.00  0.00    +0.106 C 
ATOM      5  C   UNL     1      34.822 -17.867 -20.793  0.00  0.00    -0.054 C 
ATOM      6  C   UNL     1      34.676 -18.699 -22.967  0.00  0.00    -0.045 C 
ATOM      7  H   UNL     1      36.297 -18.981 -21.712  0.00  0.00    -0.079 HD
BRANCH   3   9
ATOM      8  O   UNL     1      34.919 -14.181 -23.033  0.00  0.00    -0.270 OA
ATOM      9  N   UNL     1      34.230 -15.536 -21.310  0.00  0.00    -0.302 N 
ATOM     10  C   UNL     1      34.224 -14.337 -22.028  0.00  0.00    +0.252 C 
ATOM     11  H   UNL     1      33.658 -15.614 -20.513  0.00  0.00    +0.150 HD
BRANCH  10  14
ATOM     12 CL   UNL     1      31.052  -9.885 -21.710  0.00  0.00    -0.075 Cl
ATOM     13  S   UNL     1      32.877 -12.053 -22.595  0.00  0.00    -0.071 S 
ATOM     14  C   UNL     1      33.317 -13.292 -21.530  0.00  0.00    +0.084 C 
ATOM     15  C   UNL     1      32.778 -13.195 -20.295  0.00  0.00    +0.012 C 
ATOM     16  C   UNL     1      31.951 -12.038 -20.199  0.00  0.00    +0.019 C 
ATOM     17  C   UNL     1      31.915 -11.329 -21.379  0.00  0.00    +0.087 C 
ENDBRANCH  10  14
ENDBRANCH   3   9
BRANCH   4  18
ATOM     18  O   UNL     1      35.718 -16.762 -24.002  0.00  0.00    -0.385 OA
ATOM     19  H   UNL     1      36.491 -17.339 -23.907  0.00  0.00    +0.210 HD
ENDBRANCH   4  18
ENDBRANCH   1   2
BRANCH   1  22
ATOM     20  O   UNL     1      36.739 -19.915 -19.573  0.00  0.00    -0.277 OA
ATOM     21  N   UNL     1      35.093 -21.521 -19.098  0.00  0.00    -0.284 N 
ATOM     22  C   UNL     1      35.713 -20.527 -19.854  0.00  0.00    +0.205 C 
ATOM     23  H   UNL     1      34.267 -21.903 -19.477  0.00  0.00    +0.155 HD
BRANCH  21  25
ATOM     24  F   UNL     1      33.337 -22.926 -17.470  0.00  0.00    -0.203 F 
ATOM     25  C   UNL     1      35.510 -22.046 -17.852  0.00  0.00    +0.078 C 
ATOM     26  C   UNL     1      34.603 -22.741 -17.069  0.00  0.00    +0.155 C 
ATOM     27  C   UNL     1      36.819 -21.853 -17.443  0.00  0.00    +0.018 C 
ATOM     28  C   UNL     1      36.332 -23.071 -15.414  0.00  0.00    +0.061 C 
ATOM     29  C   UNL     1      35.017 -23.257 -15.841  0.00  0.00    +0.046 C 
ATOM     30  C   UNL     1      37.233 -22.368 -16.215  0.00  0.00    +0.017 C 
BRANCH  28  32
ATOM     31  O   UNL     1      37.189 -25.793 -14.947  0.00  0.00    -0.269 OA
ATOM     32  N   UNL     1      36.762 -23.607 -14.137  0.00  0.00    -0.233 N 
ATOM     33  C   UNL     1      37.198 -24.954 -14.047  0.00  0.00    +0.257 C 
ATOM     34  C   UNL     1      36.729 -22.813 -12.989  0.00  0.00    +0.072 C 
ATOM     35  C   UNL     1      37.669 -25.412 -12.703  0.00  0.00    +0.059 C 
ATOM     36  C   UNL     1      37.125 -23.257 -11.791  0.00  0.00    +0.017 C 
ATOM     37  C   UNL     1      37.616 -24.595 -11.649  0.00  0.00    +0.006 C 
ENDBRANCH  28  32
ENDBRANCH  21  25
ENDBRANCH   1  22
TORSDOF 7
ENDMDL
MODEL 6
REMARK VINA RESULT:     -10.1      5.353     11.372
REMARK  Name = 11979006
REMARK  7 active torsions:
REMARK  status: ('A' for Active; 'I' for Inactive)
REMARK    1  A    between atoms: C_1  and  N_2
REMARK    2  A    between atoms: C_1  and  C_22
REMARK    3  A    between atoms: C_3  and  N_9
REMARK    4  A    between atoms: C_4  and  O_18
REMARK    5  A    between atoms: C_10  and  C_14
REMARK    6  A    between atoms: N_21  and  C_25
REMARK    7  A    between atoms: C_28  and  N_32
REMARK                            x       y       z     vdW  Elec       q    Type
REMARK                         _______ _______ _______ _____ _____    ______ ____
ROOT
ATOM      1  C   UNL     1      36.677 -19.503 -21.649  0.00  0.00    +0.010 C 
ENDROOT
BRANCH   1   2
ATOM      2  N   UNL     1      36.236 -18.403 -22.492  0.00  0.00    +0.396 N 
ATOM      3  C   UNL     1      35.266 -16.323 -22.766  0.00  0.00    +0.076 C 
ATOM      4  C   UNL     1      34.431 -17.323 -23.569  0.00  0.00    +0.106 C 
ATOM      5  C   UNL     1      35.975 -17.182 -21.729  0.00  0.00    -0.054 C 
ATOM      6  C   UNL     1      34.983 -18.700 -23.196  0.00  0.00    -0.045 C 
ATOM      7  H   UNL     1      37.006 -18.271 -23.147  0.00  0.00    -0.079 HD
BRANCH   3   9
ATOM      8  O   UNL     1      33.910 -14.277 -24.154  0.00  0.00    -0.270 OA
ATOM      9  N   UNL     1      34.464 -15.291 -22.168  0.00  0.00    -0.302 N 
ATOM     10  C   UNL     1      33.821 -14.309 -22.926  0.00  0.00    +0.252 C 
ATOM     11  H   UNL     1      34.363 -15.276 -21.189  0.00  0.00    +0.150 HD
BRANCH  10  14
ATOM     12 CL   UNL     1      31.255  -9.730 -21.366  0.00  0.00    -0.075 Cl
ATOM     13  S   UNL     1      32.865 -11.775 -22.794  0.00  0.00    -0.071 S 
ATOM     14  C   UNL     1      33.010 -13.341 -22.172  0.00  0.00    +0.084 C 
ATOM     15  C   UNL     1      32.350 -13.552 -21.011  0.00  0.00    +0.012 C 
ATOM     16  C   UNL     1      31.678 -12.366 -20.594  0.00  0.00    +0.019 C 
ATOM     17  C   UNL     1      31.874 -11.325 -21.473  0.00  0.00    +0.087 C 
ENDBRANCH  10  14
ENDBRANCH   3   9
BRANCH   4  18
ATOM     18  O   UNL     1      34.601 -17.070 -24.958  0.00  0.00    -0.385 OA
ATOM     19  H   UNL     1      33.752 -16.803 -25.344  0.00  0.00    +0.210 HD
ENDBRANCH   4  18
ENDBRANCH   1   2
BRANCH   1  22
ATOM     20  O   UNL     1      34.647 -19.060 -20.422  0.00  0.00    -0.277 OA
ATOM     21  N   UNL     1      35.913 -20.973 -19.925  0.00  0.00    -0.284 N 
ATOM     22  C   UNL     1      35.615 -19.792 -20.601  0.00  0.00    +0.205 C 
ATOM     23  H   UNL     1      36.735 -21.438 -20.205  0.00  0.00    +0.155 HD
BRANCH  21  25
ATOM     24  F   UNL     1      37.133 -21.727 -17.547  0.00  0.00    -0.203 F 
ATOM     25  C   UNL     1      35.175 -21.583 -18.883  0.00  0.00    +0.078 C 
ATOM     26  C   UNL     1      35.820 -21.944 -17.712  0.00  0.00    +0.155 C 
ATOM     27  C   UNL     1      33.819 -21.805 -19.058  0.00  0.00    +0.018 C 
ATOM     28  C   UNL     1      33.723 -22.777 -16.848  0.00  0.00    +0.061 C 
ATOM     29  C   UNL     1      35.089 -22.545 -16.687  0.00  0.00    +0.046 C 
ATOM     30  C   UNL     1      33.088 -22.407 -18.034  0.00  0.00    +0.017 C 
BRANCH  28  32
ATOM     31  O   UNL     1      30.843 -22.721 -16.593  0.00  0.00    -0.269 OA
ATOM     32  N   UNL     1      32.964 -23.402 -15.783  0.00  0.00    -0.233 N 
ATOM     33  C   UNL     1      31.546 -23.336 -15.792  0.00  0.00    +0.257 C 
ATOM     34  C   UNL     1      33.618 -24.051 -14.734  0.00  0.00    +0.072 C 
ATOM     35  C   UNL     1      30.840 -24.048 -14.682  0.00  0.00    +0.059 C 
ATOM     36  C   UNL     1      32.964 -24.652 -13.735  0.00  0.00    +0.017 C 
ATOM     37  C   UNL     1      31.531 -24.655 -13.715  0.00  0.00    +0.006 C 
ENDBRANCH  28  32
ENDBRANCH  21  25
ENDBRANCH   1  22
TORSDOF 7
ENDMDL
MODEL 7
REMARK VINA RESULT:     -10.1      4.844      7.070
REMARK  Name = 11979006
REMARK  7 active torsions:
REMARK  status: ('A' for Active; 'I' for Inactive)
REMARK    1  A    between atoms: C_1  and  N_2
REMARK    2  A    between atoms: C_1  and  C_22
REMARK    3  A    between atoms: C_3  and  N_9
REMARK    4  A    between atoms: C_4  and  O_18
REMARK    5  A    between atoms: C_10  and  C_14
REMARK    6  A    between atoms: N_21  and  C_25
REMARK    7  A    between atoms: C_28  and  N_32
REMARK                            x       y       z     vdW  Elec       q    Type
REMARK                         _______ _______ _______ _____ _____    ______ ____
ROOT
ATOM      1  C   UNL     1      36.503 -23.427 -15.445  0.00  0.00    +0.010 C 
ENDROOT
BRANCH   1   2
ATOM      2  N   UNL     1      35.289 -24.060 -14.952  0.00  0.00    +0.396 N 
ATOM      3  C   UNL     1      32.986 -24.255 -14.893  0.00  0.00    +0.076 C 
ATOM      4  C   UNL     1      33.453 -23.952 -13.468  0.00  0.00    +0.106 C 
ATOM      5  C   UNL     1      34.119 -23.739 -15.770  0.00  0.00    -0.054 C 
ATOM      6  C   UNL     1      34.944 -23.631 -13.591  0.00  0.00    -0.045 C 
ATOM      7  H   UNL     1      35.499 -25.057 -14.984  0.00  0.00    -0.079 HD
BRANCH   3   9
ATOM      8  O   UNL     1      30.440 -25.313 -14.305  0.00  0.00    -0.270 OA
ATOM      9  N   UNL     1      31.727 -23.635 -15.204  0.00  0.00    -0.302 N 
ATOM     10  C   UNL     1      30.503 -24.225 -14.878  0.00  0.00    +0.252 C 
ATOM     11  H   UNL     1      31.727 -22.765 -15.662  0.00  0.00    +0.150 HD
BRANCH  10  14
ATOM     12 CL   UNL     1      26.325 -22.041 -17.665  0.00  0.00    -0.075 Cl
ATOM     13  S   UNL     1      28.741 -23.550 -16.826  0.00  0.00    -0.071 S 
ATOM     14  C   UNL     1      29.302 -23.453 -15.232  0.00  0.00    +0.084 C 
ATOM     15  C   UNL     1      28.572 -22.655 -14.423  0.00  0.00    +0.012 C 
ATOM     16  C   UNL     1      27.481 -22.079 -15.138  0.00  0.00    +0.019 C 
ATOM     17  C   UNL     1      27.455 -22.483 -16.454  0.00  0.00    +0.087 C 
ENDBRANCH  10  14
ENDBRANCH   3   9
BRANCH   4  18
ATOM     18  O   UNL     1      33.249 -25.098 -12.652  0.00  0.00    -0.385 OA
ATOM     19  H   UNL     1      33.685 -24.967 -11.796  0.00  0.00    +0.210 HD
ENDBRANCH   4  18
ENDBRANCH   1   2
BRANCH   1  22
ATOM     20  O   UNL     1      35.857 -21.113 -15.669  0.00  0.00    -0.277 OA
ATOM     21  N   UNL     1      36.186 -22.421 -17.591  0.00  0.00    -0.284 N 
ATOM     22  C   UNL     1      36.139 -22.172 -16.220  0.00  0.00    +0.205 C 
ATOM     23  H   UNL     1      36.437 -23.336 -17.857  0.00  0.00    +0.155 HD
BRANCH  21  25
ATOM     24  F   UNL     1      33.635 -22.177 -18.659  0.00  0.00    -0.203 F 
ATOM     25  C   UNL     1      35.916 -21.515 -18.644  0.00  0.00    +0.078 C 
ATOM     26  C   UNL     1      34.630 -21.423 -19.149  0.00  0.00    +0.155 C 
ATOM     27  C   UNL     1      36.947 -20.739 -19.146  0.00  0.00    +0.018 C 
ATOM     28  C   UNL     1      35.394 -19.740 -20.705  0.00  0.00    +0.061 C 
ATOM     29  C   UNL     1      34.367 -20.529 -20.187  0.00  0.00    +0.046 C 
ATOM     30  C   UNL     1      36.685 -19.846 -20.185  0.00  0.00    +0.017 C 
BRANCH  28  32
ATOM     31  O   UNL     1      35.454 -16.857 -20.486  0.00  0.00    -0.269 OA
ATOM     32  N   UNL     1      35.121 -18.812 -21.785  0.00  0.00    -0.233 N 
ATOM     33  C   UNL     1      35.222 -17.414 -21.558  0.00  0.00    +0.257 C 
ATOM     34  C   UNL     1      34.736 -19.282 -23.042  0.00  0.00    +0.072 C 
ATOM     35  C   UNL     1      34.969 -16.530 -22.737  0.00  0.00    +0.059 C 
ATOM     36  C   UNL     1      34.483 -18.468 -24.072  0.00  0.00    +0.017 C 
ATOM     37  C   UNL     1      34.612 -17.049 -23.913  0.00  0.00    +0.006 C 
ENDBRANCH  28  32
ENDBRANCH  21  25
ENDBRANCH   1  22
TORSDOF 7
ENDMDL
MODEL 8
REMARK VINA RESULT:     -10.0      5.393     11.482
REMARK  Name = 11979006
REMARK  7 active torsions:
REMARK  status: ('A' for Active; 'I' for Inactive)
REMARK    1  A    between atoms: C_1  and  N_2
REMARK    2  A    between atoms: C_1  and  C_22
REMARK    3  A    between atoms: C_3  and  N_9
REMARK    4  A    between atoms: C_4  and  O_18
REMARK    5  A    between atoms: C_10  and  C_14
REMARK    6  A    between atoms: N_21  and  C_25
REMARK    7  A    between atoms: C_28  and  N_32
REMARK                            x       y       z     vdW  Elec       q    Type
REMARK                         _______ _______ _______ _____ _____    ______ ____
ROOT
ATOM      1  C   UNL     1      36.392 -18.765 -22.484  0.00  0.00    +0.010 C 
ENDROOT
BRANCH   1   2
ATOM      2  N   UNL     1      35.768 -17.701 -23.256  0.00  0.00    +0.396 N 
ATOM      3  C   UNL     1      34.712 -15.650 -23.395  0.00  0.00    +0.076 C 
ATOM      4  C   UNL     1      33.761 -16.691 -23.988  0.00  0.00    +0.106 C 
ATOM      5  C   UNL     1      35.632 -16.460 -22.493  0.00  0.00    -0.054 C 
ATOM      6  C   UNL     1      34.409 -18.045 -23.690  0.00  0.00    -0.045 C 
ATOM      7  H   UNL     1      36.391 -17.577 -24.054  0.00  0.00    -0.079 HD
BRANCH   3   9
ATOM      8  O   UNL     1      33.342 -13.479 -24.562  0.00  0.00    -0.270 OA
ATOM      9  N   UNL     1      34.019 -14.613 -22.681  0.00  0.00    -0.302 N 
ATOM     10  C   UNL     1      33.360 -13.567 -23.333  0.00  0.00    +0.252 C 
ATOM     11  H   UNL     1      34.006 -14.641 -21.697  0.00  0.00    +0.150 HD
BRANCH  10  14
ATOM     12 CL   UNL     1      31.395  -8.916 -21.214  0.00  0.00    -0.075 Cl
ATOM     13  S   UNL     1      32.750 -10.964 -22.883  0.00  0.00    -0.071 S 
ATOM     14  C   UNL     1      32.669 -12.601 -22.466  0.00  0.00    +0.084 C 
ATOM     15  C   UNL     1      31.958 -12.866 -21.348  0.00  0.00    +0.012 C 
ATOM     16  C   UNL     1      31.442 -11.662 -20.785  0.00  0.00    +0.019 C 
ATOM     17  C   UNL     1      31.797 -10.554 -21.521  0.00  0.00    +0.087 C 
ENDBRANCH  10  14
ENDBRANCH   3   9
BRANCH   4  18
ATOM     18  O   UNL     1      33.649 -16.482 -25.389  0.00  0.00    -0.385 OA
ATOM     19  H   UNL     1      34.489 -16.707 -25.818  0.00  0.00    +0.210 HD
ENDBRANCH   4  18
ENDBRANCH   1   2
BRANCH   1  22
ATOM     20  O   UNL     1      35.062 -18.101 -20.583  0.00  0.00    -0.277 OA
ATOM     21  N   UNL     1      35.544 -20.372 -20.931  0.00  0.00    -0.284 N 
ATOM     22  C   UNL     1      35.586 -19.010 -21.220  0.00  0.00    +0.205 C 
ATOM     23  H   UNL     1      36.021 -20.964 -21.558  0.00  0.00    +0.155 HD
BRANCH  21  25
ATOM     24  F   UNL     1      32.776 -20.383 -20.715  0.00  0.00    -0.203 F 
ATOM     25  C   UNL     1      34.895 -21.006 -19.844  0.00  0.00    +0.078 C 
ATOM     26  C   UNL     1      33.513 -20.989 -19.773  0.00  0.00    +0.155 C 
ATOM     27  C   UNL     1      35.662 -21.631 -18.874  0.00  0.00    +0.018 C 
ATOM     28  C   UNL     1      33.634 -22.247 -17.714  0.00  0.00    +0.061 C 
ATOM     29  C   UNL     1      32.877 -21.614 -18.700  0.00  0.00    +0.046 C 
ATOM     30  C   UNL     1      35.026 -22.255 -17.801  0.00  0.00    +0.017 C 
BRANCH  28  32
ATOM     31  O   UNL     1      34.939 -23.891 -15.724  0.00  0.00    -0.269 OA
ATOM     32  N   UNL     1      32.973 -22.896 -16.599  0.00  0.00    -0.233 N 
ATOM     33  C   UNL     1      33.734 -23.647 -15.665  0.00  0.00    +0.257 C 
ATOM     34  C   UNL     1      31.587 -22.808 -16.448  0.00  0.00    +0.072 C 
ATOM     35  C   UNL     1      32.980 -24.243 -14.519  0.00  0.00    +0.059 C 
ATOM     36  C   UNL     1      30.933 -23.379 -15.431  0.00  0.00    +0.017 C 
ATOM     37  C   UNL     1      31.655 -24.112 -14.435  0.00  0.00    +0.006 C 
ENDBRANCH  28  32
ENDBRANCH  21  25
ENDBRANCH   1  22
TORSDOF 7
ENDMDL
MODEL 9
REMARK VINA RESULT:      -9.8      9.404     15.533
REMARK  Name = 11979006
REMARK  7 active torsions:
REMARK  status: ('A' for Active; 'I' for Inactive)
REMARK    1  A    between atoms: C_1  and  N_2
REMARK    2  A    between atoms: C_1  and  C_22
REMARK    3  A    between atoms: C_3  and  N_9
REMARK    4  A    between atoms: C_4  and  O_18
REMARK    5  A    between atoms: C_10  and  C_14
REMARK    6  A    between atoms: N_21  and  C_25
REMARK    7  A    between atoms: C_28  and  N_32
REMARK                            x       y       z     vdW  Elec       q    Type
REMARK                         _______ _______ _______ _____ _____    ______ ____
ROOT
ATOM      1  C   UNL     1      31.156  -6.885 -21.884  0.00  0.00    +0.010 C 
ENDROOT
BRANCH   1   2
ATOM      2  N   UNL     1      31.332  -6.049 -23.062  0.00  0.00    +0.396 N 
ATOM      3  C   UNL     1      32.197  -5.681 -25.174  0.00  0.00    +0.076 C 
ATOM      4  C   UNL     1      32.738  -4.577 -24.262  0.00  0.00    +0.106 C 
ATOM      5  C   UNL     1      31.827  -6.804 -24.214  0.00  0.00    -0.054 C 
ATOM      6  C   UNL     1      32.309  -4.976 -22.848  0.00  0.00    -0.045 C 
ATOM      7  H   UNL     1      30.401  -5.673 -23.239  0.00  0.00    -0.079 HD
BRANCH   3   9
ATOM      8  O   UNL     1      32.780  -4.329 -27.578  0.00  0.00    -0.270 OA
ATOM      9  N   UNL     1      33.155  -6.098 -26.161  0.00  0.00    -0.302 N 
ATOM     10  C   UNL     1      33.388  -5.371 -27.331  0.00  0.00    +0.252 C 
ATOM     11  H   UNL     1      33.665  -6.925 -26.008  0.00  0.00    +0.150 HD
BRANCH  10  14
ATOM     12 CL   UNL     1      38.213  -6.862 -29.449  0.00  0.00    -0.075 Cl
ATOM     13  S   UNL     1      36.034  -5.812 -27.727  0.00  0.00    -0.071 S 
ATOM     14  C   UNL     1      34.421  -5.908 -28.229  0.00  0.00    +0.084 C 
ATOM     15  C   UNL     1      34.239  -6.485 -29.437  0.00  0.00    +0.012 C 
ATOM     16  C   UNL     1      35.489  -6.876 -30.000  0.00  0.00    +0.019 C 
ATOM     17  C   UNL     1      36.546  -6.570 -29.173  0.00  0.00    +0.087 C 
ENDBRANCH  10  14
ENDBRANCH   3   9
BRANCH   4  18
ATOM     18  O   UNL     1      32.158  -3.334 -24.634  0.00  0.00    -0.385 OA
ATOM     19  H   UNL     1      32.382  -3.136 -25.557  0.00  0.00    +0.210 HD
ENDBRANCH   4  18
ENDBRANCH   1   2
BRANCH   1  22
ATOM     20  O   UNL     1      33.306  -7.931 -21.561  0.00  0.00    -0.277 OA
ATOM     21  N   UNL     1      31.522  -9.182 -22.437  0.00  0.00    -0.284 N 
ATOM     22  C   UNL     1      32.141  -8.040 -21.932  0.00  0.00    +0.205 C 
ATOM     23  H   UNL     1      30.573  -9.088 -22.683  0.00  0.00    +0.155 HD
BRANCH  21  25
ATOM     24  F   UNL     1      30.641 -11.396 -21.012  0.00  0.00    -0.203 F 
ATOM     25  C   UNL     1      32.097 -10.459 -22.638  0.00  0.00    +0.078 C 
ATOM     26  C   UNL     1      31.629 -11.539 -21.907  0.00  0.00    +0.155 C 
ATOM     27  C   UNL     1      33.117 -10.601 -23.564  0.00  0.00    +0.018 C 
ATOM     28  C   UNL     1      33.227 -12.957 -23.036  0.00  0.00    +0.061 C 
ATOM     29  C   UNL     1      32.198 -12.796 -22.108  0.00  0.00    +0.046 C 
ATOM     30  C   UNL     1      33.687 -11.859 -23.764  0.00  0.00    +0.017 C 
BRANCH  28  32
ATOM     31  O   UNL     1      32.947 -14.558 -25.428  0.00  0.00    -0.269 OA
ATOM     32  N   UNL     1      33.818 -14.264 -23.243  0.00  0.00    -0.233 N 
ATOM     33  C   UNL     1      33.639 -14.933 -24.482  0.00  0.00    +0.257 C 
ATOM     34  C   UNL     1      34.546 -14.882 -22.224  0.00  0.00    +0.072 C 
ATOM     35  C   UNL     1      34.321 -16.256 -24.629  0.00  0.00    +0.059 C 
ATOM     36  C   UNL     1      35.119 -16.081 -22.369  0.00  0.00    +0.017 C 
ATOM     37  C   UNL     1      35.008 -16.783 -23.613  0.00  0.00    +0.006 C 
ENDBRANCH  28  32
ENDBRANCH  21  25
ENDBRANCH   1  22
TORSDOF 7
ENDMDL
