MODEL 1
REMARK VINA RESULT:     -12.0      0.000      0.000
REMARK  Name = 5567
REMARK  8 active torsions:
REMARK  status: ('A' for Active; 'I' for Inactive)
REMARK    1  A    between atoms: N_1  and  C_20
REMARK    2  A    between atoms: C_2  and  C_8
REMARK    3  A    between atoms: C_2  and  O_18
REMARK    4  A    between atoms: C_11  and  C_17
REMARK    5  A    between atoms: C_20  and  C_21
REMARK    6  A    between atoms: C_21  and  C_22
REMARK    7  A    between atoms: C_22  and  C_24
REMARK    8  A    between atoms: C_24  and  C_26
REMARK                            x       y       z     vdW  Elec       q    Type
REMARK                         _______ _______ _______ _____ _____    ______ ____
ROOT
ATOM      1  N   UNL     1      35.307 -20.218 -19.871  0.00  0.00    +0.387 N 
ATOM      2  C   UNL     1      34.005 -22.373 -18.293  0.00  0.00    +0.103 C 
ATOM      3  C   UNL     1      33.231 -21.248 -19.016  0.00  0.00    +0.008 C 
ATOM      4  C   UNL     1      35.454 -21.894 -18.047  0.00  0.00    +0.008 C 
ATOM      5  C   UNL     1      33.971 -20.700 -20.242  0.00  0.00    -0.075 C 
ATOM      6  C   UNL     1      36.116 -21.297 -19.296  0.00  0.00    -0.075 C 
ATOM      7  H   UNL     1      35.194 -19.495 -19.161  0.00  0.00    -0.080 HD
ENDROOT
BRANCH   2   8
ATOM      8  C   UNL     1      33.371 -22.858 -16.989  0.00  0.00    +0.002 C 
ATOM      9  C   UNL     1      31.995 -22.740 -16.798  0.00  0.00    +0.002 C 
ATOM     10  C   UNL     1      34.170 -23.420 -15.995  0.00  0.00    -0.002 C 
ATOM     11  C   UNL     1      31.416 -23.184 -15.609  0.00  0.00    +0.071 C 
ATOM     12  C   UNL     1      33.591 -23.864 -14.806  0.00  0.00    -0.000 C 
ATOM     13  C   UNL     1      32.215 -23.746 -14.613  0.00  0.00    +0.004 C 
BRANCH  11  17
ATOM     14  F   UNL     1      29.315 -24.252 -15.203  0.00  0.00    -0.166 F 
ATOM     15  F   UNL     1      29.609 -22.293 -14.320  0.00  0.00    -0.166 F 
ATOM     16  F   UNL     1      29.313 -22.483 -16.466  0.00  0.00    -0.166 F 
ATOM     17  C   UNL     1      29.945 -23.056 -15.402  0.00  0.00    +0.419 C 
ENDBRANCH  11  17
ENDBRANCH   2   8
BRANCH   2  18
ATOM     18  O   UNL     1      34.022 -23.519 -19.159  0.00  0.00    -0.383 OA
ATOM     19  H   UNL     1      33.112 -23.783 -19.364  0.00  0.00    +0.211 HD
ENDBRANCH   2  18
BRANCH   1  20
ATOM     20  C   UNL     1      35.980 -19.633 -21.030  0.00  0.00    -0.077 C 
BRANCH  20  21
ATOM     21  C   UNL     1      34.956 -18.988 -21.967  0.00  0.00    -0.015 C 
BRANCH  21  22
ATOM     22  C   UNL     1      35.553 -17.827 -22.768  0.00  0.00    +0.067 C 
BRANCH  22  24
ATOM     23  O   UNL     1      34.186 -18.081 -24.741  0.00  0.00    -0.291 OA
ATOM     24  C   UNL     1      34.641 -17.331 -23.882  0.00  0.00    +0.173 C 
BRANCH  24  26
ATOM     25  F   UNL     1      33.267 -11.920 -23.998  0.00  0.00    -0.204 F 
ATOM     26  C   UNL     1      34.276 -15.886 -23.914  0.00  0.00    +0.035 C 
ATOM     27  C   UNL     1      33.535 -15.414 -24.975  0.00  0.00    +0.005 C 
ATOM     28  C   UNL     1      34.689 -15.077 -22.880  0.00  0.00    +0.005 C 
ATOM     29  C   UNL     1      33.192 -14.062 -25.004  0.00  0.00    +0.030 C 
ATOM     30  C   UNL     1      34.346 -13.725 -22.909  0.00  0.00    +0.030 C 
ATOM     31  C   UNL     1      33.597 -13.218 -23.971  0.00  0.00    +0.140 C 
ENDBRANCH  24  26
ENDBRANCH  22  24
ENDBRANCH  21  22
ENDBRANCH  20  21
ENDBRANCH   1  20
TORSDOF 8
ENDMDL
MODEL 2
REMARK VINA RESULT:     -11.6      3.302     11.638
REMARK  Name = 5567
REMARK  8 active torsions:
REMARK  status: ('A' for Active; 'I' for Inactive)
REMARK    1  A    between atoms: N_1  and  C_20
REMARK    2  A    between atoms: C_2  and  C_8
REMARK    3  A    between atoms: C_2  and  O_18
REMARK    4  A    between atoms: C_11  and  C_17
REMARK    5  A    between atoms: C_20  and  C_21
REMARK    6  A    between atoms: C_21  and  C_22
REMARK    7  A    between atoms: C_22  and  C_24
REMARK    8  A    between atoms: C_24  and  C_26
REMARK                            x       y       z     vdW  Elec       q    Type
REMARK                         _______ _______ _______ _____ _____    ______ ____
ROOT
ATOM      1  N   UNL     1      34.642 -15.164 -23.587  0.00  0.00    +0.387 N 
ATOM      2  C   UNL     1      32.987 -12.772 -22.982  0.00  0.00    +0.103 C 
ATOM      3  C   UNL     1      33.185 -13.343 -24.404  0.00  0.00    +0.008 C 
ATOM      4  C   UNL     1      34.162 -13.242 -22.094  0.00  0.00    +0.008 C 
ATOM      5  C   UNL     1      33.469 -14.850 -24.412  0.00  0.00    -0.075 C 
ATOM      6  C   UNL     1      34.436 -14.748 -22.197  0.00  0.00    -0.075 C 
ATOM      7  H   UNL     1      35.435 -14.642 -23.959  0.00  0.00    -0.080 HD
ENDROOT
BRANCH   2   8
ATOM      8  C   UNL     1      32.835 -11.252 -22.913  0.00  0.00    +0.002 C 
ATOM      9  C   UNL     1      33.912 -10.430 -23.239  0.00  0.00    +0.002 C 
ATOM     10  C   UNL     1      31.619 -10.692 -22.526  0.00  0.00    -0.002 C 
ATOM     11  C   UNL     1      33.774  -9.043 -23.177  0.00  0.00    +0.071 C 
ATOM     12  C   UNL     1      31.481  -9.305 -22.464  0.00  0.00    -0.000 C 
ATOM     13  C   UNL     1      32.558  -8.481 -22.789  0.00  0.00    +0.004 C 
BRANCH  11  17
ATOM     14  F   UNL     1      35.330  -7.360 -22.495  0.00  0.00    -0.166 F 
ATOM     15  F   UNL     1      36.045  -8.849 -23.901  0.00  0.00    -0.166 F 
ATOM     16  F   UNL     1      34.649  -7.317 -24.559  0.00  0.00    -0.166 F 
ATOM     17  C   UNL     1      34.926  -8.162 -23.524  0.00  0.00    +0.419 C 
ENDBRANCH  11  17
ENDBRANCH   2   8
BRANCH   2  18
ATOM     18  O   UNL     1      31.756 -13.303 -22.465  0.00  0.00    -0.383 OA
ATOM     19  H   UNL     1      31.441 -14.013 -23.046  0.00  0.00    +0.211 HD
ENDBRANCH   2  18
BRANCH   1  20
ATOM     20  C   UNL     1      34.949 -16.592 -23.656  0.00  0.00    -0.077 C 
BRANCH  20  21
ATOM     21  C   UNL     1      35.336 -17.117 -22.271  0.00  0.00    -0.015 C 
BRANCH  21  22
ATOM     22  C   UNL     1      35.717 -18.600 -22.298  0.00  0.00    +0.067 C 
BRANCH  22  24
ATOM     23  O   UNL     1      37.254 -18.747 -20.443  0.00  0.00    -0.291 OA
ATOM     24  C   UNL     1      36.202 -19.124 -20.953  0.00  0.00    +0.173 C 
BRANCH  24  26
ATOM     25  F   UNL     1      33.031 -22.820 -18.222  0.00  0.00    -0.204 F 
ATOM     26  C   UNL     1      35.356 -20.111 -20.225  0.00  0.00    +0.035 C 
ATOM     27  C   UNL     1      35.973 -21.060 -19.440  0.00  0.00    +0.005 C 
ATOM     28  C   UNL     1      33.988 -20.037 -20.362  0.00  0.00    +0.005 C 
ATOM     29  C   UNL     1      35.180 -21.983 -18.758  0.00  0.00    +0.030 C 
ATOM     30  C   UNL     1      33.196 -20.961 -19.680  0.00  0.00    +0.030 C 
ATOM     31  C   UNL     1      33.792 -21.934 -18.877  0.00  0.00    +0.140 C 
ENDBRANCH  24  26
ENDBRANCH  22  24
ENDBRANCH  21  22
ENDBRANCH  20  21
ENDBRANCH   1  20
TORSDOF 8
ENDMDL
MODEL 3
REMARK VINA RESULT:     -11.6      3.392     10.920
REMARK  Name = 5567
REMARK  8 active torsions:
REMARK  status: ('A' for Active; 'I' for Inactive)
REMARK    1  A    between atoms: N_1  and  C_20
REMARK    2  A    between atoms: C_2  and  C_8
REMARK    3  A    between atoms: C_2  and  O_18
REMARK    4  A    between atoms: C_11  and  C_17
REMARK    5  A    between atoms: C_20  and  C_21
REMARK    6  A    between atoms: C_21  and  C_22
REMARK    7  A    between atoms: C_22  and  C_24
REMARK    8  A    between atoms: C_24  and  C_26
REMARK                            x       y       z     vdW  Elec       q    Type
REMARK                         _______ _______ _______ _____ _____    ______ ____
ROOT
ATOM      1  N   UNL     1      34.136 -15.849 -23.650  0.00  0.00    +0.387 N 
ATOM      2  C   UNL     1      33.555 -13.014 -22.979  0.00  0.00    +0.103 C 
ATOM      3  C   UNL     1      34.253 -14.000 -22.016  0.00  0.00    +0.008 C 
ATOM      4  C   UNL     1      32.745 -13.826 -24.015  0.00  0.00    +0.008 C 
ATOM      5  C   UNL     1      35.022 -15.109 -22.745  0.00  0.00    -0.075 C 
ATOM      6  C   UNL     1      33.552 -14.961 -24.660  0.00  0.00    -0.075 C 
ATOM      7  H   UNL     1      33.374 -16.239 -23.094  0.00  0.00    -0.080 HD
ENDROOT
BRANCH   2   8
ATOM      8  C   UNL     1      32.666 -11.971 -22.301  0.00  0.00    +0.002 C 
ATOM      9  C   UNL     1      32.492 -10.718 -22.887  0.00  0.00    +0.002 C 
ATOM     10  C   UNL     1      32.028 -12.276 -21.100  0.00  0.00    -0.002 C 
ATOM     11  C   UNL     1      31.679  -9.767 -22.269  0.00  0.00    +0.071 C 
ATOM     12  C   UNL     1      31.216 -11.325 -20.482  0.00  0.00    -0.000 C 
ATOM     13  C   UNL     1      31.042 -10.070 -21.067  0.00  0.00    +0.004 C 
BRANCH  11  17
ATOM     14  F   UNL     1      31.607  -7.390 -22.009  0.00  0.00    -0.166 F 
ATOM     15  F   UNL     1      32.399  -8.151 -23.879  0.00  0.00    -0.166 F 
ATOM     16  F   UNL     1      30.267  -8.280 -23.472  0.00  0.00    -0.166 F 
ATOM     17  C   UNL     1      31.494  -8.425 -22.894  0.00  0.00    +0.419 C 
ENDBRANCH  11  17
ENDBRANCH   2   8
BRANCH   2  18
ATOM     18  O   UNL     1      34.577 -12.264 -23.654  0.00  0.00    -0.383 OA
ATOM     19  H   UNL     1      34.201 -11.844 -24.444  0.00  0.00    +0.211 HD
ENDBRANCH   2  18
BRANCH   1  20
ATOM     20  C   UNL     1      34.858 -16.949 -24.289  0.00  0.00    -0.077 C 
BRANCH  20  21
ATOM     21  C   UNL     1      34.480 -18.280 -23.635  0.00  0.00    -0.015 C 
BRANCH  21  22
ATOM     22  C   UNL     1      35.587 -18.813 -22.721  0.00  0.00    +0.067 C 
BRANCH  22  24
ATOM     23  O   UNL     1      35.319 -17.557 -20.677  0.00  0.00    -0.291 OA
ATOM     24  C   UNL     1      35.278 -18.648 -21.239  0.00  0.00    +0.173 C 
BRANCH  24  26
ATOM     25  F   UNL     1      33.835 -23.170 -18.298  0.00  0.00    -0.204 F 
ATOM     26  C   UNL     1      34.893 -19.854 -20.453  0.00  0.00    +0.035 C 
ATOM     27  C   UNL     1      33.555 -20.142 -20.295  0.00  0.00    +0.005 C 
ATOM     28  C   UNL     1      35.888 -20.639 -19.915  0.00  0.00    +0.005 C 
ATOM     29  C   UNL     1      33.194 -21.271 -19.560  0.00  0.00    +0.030 C 
ATOM     30  C   UNL     1      35.528 -21.768 -19.180  0.00  0.00    +0.030 C 
ATOM     31  C   UNL     1      34.181 -22.085 -19.003  0.00  0.00    +0.140 C 
ENDBRANCH  24  26
ENDBRANCH  22  24
ENDBRANCH  21  22
ENDBRANCH  20  21
ENDBRANCH   1  20
TORSDOF 8
ENDMDL
MODEL 4
REMARK VINA RESULT:     -11.5      3.970     10.916
REMARK  Name = 5567
REMARK  8 active torsions:
REMARK  status: ('A' for Active; 'I' for Inactive)
REMARK    1  A    between atoms: N_1  and  C_20
REMARK    2  A    between atoms: C_2  and  C_8
REMARK    3  A    between atoms: C_2  and  O_18
REMARK    4  A    between atoms: C_11  and  C_17
REMARK    5  A    between atoms: C_20  and  C_21
REMARK    6  A    between atoms: C_21  and  C_22
REMARK    7  A    between atoms: C_22  and  C_24
REMARK    8  A    between atoms: C_24  and  C_26
REMARK                            x       y       z     vdW  Elec       q    Type
REMARK                         _______ _______ _______ _____ _____    ______ ____
ROOT
ATOM      1  N   UNL     1      34.568 -14.599 -22.222  0.00  0.00    +0.387 N 
ATOM      2  C   UNL     1      32.555 -12.745 -21.067  0.00  0.00    +0.103 C 
ATOM      3  C   UNL     1      32.976 -12.740 -22.554  0.00  0.00    +0.008 C 
ATOM      4  C   UNL     1      33.682 -13.401 -20.237  0.00  0.00    +0.008 C 
ATOM      5  C   UNL     1      33.457 -14.110 -23.046  0.00  0.00    -0.075 C 
ATOM      6  C   UNL     1      34.164 -14.736 -20.819  0.00  0.00    -0.075 C 
ATOM      7  H   UNL     1      35.320 -13.911 -22.268  0.00  0.00    -0.080 HD
ENDROOT
BRANCH   2   8
ATOM      8  C   UNL     1      32.196 -11.373 -20.494  0.00  0.00    +0.002 C 
ATOM      9  C   UNL     1      32.066 -10.276 -21.344  0.00  0.00    +0.002 C 
ATOM     10  C   UNL     1      31.996 -11.223 -19.123  0.00  0.00    -0.002 C 
ATOM     11  C   UNL     1      31.736  -9.025 -20.822  0.00  0.00    +0.071 C 
ATOM     12  C   UNL     1      31.667  -9.972 -18.600  0.00  0.00    -0.000 C 
ATOM     13  C   UNL     1      31.538  -8.873 -19.450  0.00  0.00    +0.004 C 
BRANCH  11  17
ATOM     14  F   UNL     1      30.715  -8.049 -22.752  0.00  0.00    -0.166 F 
ATOM     15  F   UNL     1      31.165  -6.719 -21.099  0.00  0.00    -0.166 F 
ATOM     16  F   UNL     1      32.777  -7.507 -22.327  0.00  0.00    -0.166 F 
ATOM     17  C   UNL     1      31.599  -7.850 -21.730  0.00  0.00    +0.419 C 
ENDBRANCH  11  17
ENDBRANCH   2   8
BRANCH   2  18
ATOM     18  O   UNL     1      31.359 -13.531 -20.953  0.00  0.00    -0.383 OA
ATOM     19  H   UNL     1      30.583 -12.956 -21.048  0.00  0.00    +0.211 HD
ENDBRANCH   2  18
BRANCH   1  20
ATOM     20  C   UNL     1      35.069 -15.872 -22.739  0.00  0.00    -0.077 C 
BRANCH  20  21
ATOM     21  C   UNL     1      35.370 -16.831 -21.584  0.00  0.00    -0.015 C 
BRANCH  21  22
ATOM     22  C   UNL     1      35.819 -18.210 -22.076  0.00  0.00    +0.067 C 
BRANCH  22  24
ATOM     23  O   UNL     1      37.615 -18.976 -20.657  0.00  0.00    -0.291 OA
ATOM     24  C   UNL     1      36.434 -19.071 -20.982  0.00  0.00    +0.173 C 
BRANCH  24  26
ATOM     25  F   UNL     1      33.168 -22.724 -18.305  0.00  0.00    -0.204 F 
ATOM     26  C   UNL     1      35.563 -20.047 -20.268  0.00  0.00    +0.035 C 
ATOM     27  C   UNL     1      36.153 -20.995 -19.462  0.00  0.00    +0.005 C 
ATOM     28  C   UNL     1      34.199 -19.964 -20.440  0.00  0.00    +0.005 C 
ATOM     29  C   UNL     1      35.337 -21.907 -18.793  0.00  0.00    +0.030 C 
ATOM     30  C   UNL     1      33.383 -20.877 -19.771  0.00  0.00    +0.030 C 
ATOM     31  C   UNL     1      33.952 -21.848 -18.947  0.00  0.00    +0.140 C 
ENDBRANCH  24  26
ENDBRANCH  22  24
ENDBRANCH  21  22
ENDBRANCH  20  21
ENDBRANCH   1  20
TORSDOF 8
ENDMDL
MODEL 5
REMARK VINA RESULT:     -11.4      1.717      2.089
REMARK  Name = 5567
REMARK  8 active torsions:
REMARK  status: ('A' for Active; 'I' for Inactive)
REMARK    1  A    between atoms: N_1  and  C_20
REMARK    2  A    between atoms: C_2  and  C_8
REMARK    3  A    between atoms: C_2  and  O_18
REMARK    4  A    between atoms: C_11  and  C_17
REMARK    5  A    between atoms: C_20  and  C_21
REMARK    6  A    between atoms: C_21  and  C_22
REMARK    7  A    between atoms: C_22  and  C_24
REMARK    8  A    between atoms: C_24  and  C_26
REMARK                            x       y       z     vdW  Elec       q    Type
REMARK                         _______ _______ _______ _____ _____    ______ ____
ROOT
ATOM      1  N   UNL     1      34.834 -19.865 -20.376  0.00  0.00    +0.387 N 
ATOM      2  C   UNL     1      33.952 -22.098 -18.626  0.00  0.00    +0.103 C 
ATOM      3  C   UNL     1      33.009 -20.994 -19.153  0.00  0.00    +0.008 C 
ATOM      4  C   UNL     1      35.403 -21.564 -18.659  0.00  0.00    +0.008 C 
ATOM      5  C   UNL     1      33.470 -20.395 -20.487  0.00  0.00    -0.075 C 
ATOM      6  C   UNL     1      35.781 -20.919 -19.999  0.00  0.00    -0.075 C 
ATOM      7  H   UNL     1      34.837 -19.160 -19.639  0.00  0.00    -0.080 HD
ENDROOT
BRANCH   2   8
ATOM      8  C   UNL     1      33.608 -22.631 -17.234  0.00  0.00    +0.002 C 
ATOM      9  C   UNL     1      32.275 -22.787 -16.859  0.00  0.00    +0.002 C 
ATOM     10  C   UNL     1      34.629 -22.962 -16.345  0.00  0.00    -0.002 C 
ATOM     11  C   UNL     1      31.961 -23.275 -15.590  0.00  0.00    +0.071 C 
ATOM     12  C   UNL     1      34.315 -23.450 -15.076  0.00  0.00    -0.000 C 
ATOM     13  C   UNL     1      32.981 -23.606 -14.698  0.00  0.00    +0.004 C 
BRANCH  11  17
ATOM     14  F   UNL     1      30.104 -22.492 -14.301  0.00  0.00    -0.166 F 
ATOM     15  F   UNL     1      29.660 -23.375 -16.232  0.00  0.00    -0.166 F 
ATOM     16  F   UNL     1      30.296 -24.639 -14.581  0.00  0.00    -0.166 F 
ATOM     17  C   UNL     1      30.535 -23.440 -15.186  0.00  0.00    +0.419 C 
ENDBRANCH  11  17
ENDBRANCH   2   8
BRANCH   2  18
ATOM     18  O   UNL     1      33.840 -23.227 -19.506  0.00  0.00    -0.383 OA
ATOM     19  H   UNL     1      33.736 -22.916 -20.419  0.00  0.00    +0.211 HD
ENDBRANCH   2  18
BRANCH   1  20
ATOM     20  C   UNL     1      35.242 -19.233 -21.630  0.00  0.00    -0.077 C 
BRANCH  20  21
ATOM     21  C   UNL     1      36.006 -17.938 -21.346  0.00  0.00    -0.015 C 
BRANCH  21  22
ATOM     22  C   UNL     1      35.092 -16.829 -20.817  0.00  0.00    +0.067 C 
BRANCH  22  24
ATOM     23  O   UNL     1      35.500 -15.622 -22.867  0.00  0.00    -0.291 OA
ATOM     24  C   UNL     1      34.871 -15.701 -21.815  0.00  0.00    +0.173 C 
BRANCH  24  26
ATOM     25  F   UNL     1      30.999 -11.844 -20.669  0.00  0.00    -0.204 F 
ATOM     26  C   UNL     1      33.838 -14.670 -21.509  0.00  0.00    +0.035 C 
ATOM     27  C   UNL     1      33.354 -13.893 -22.538  0.00  0.00    +0.005 C 
ATOM     28  C   UNL     1      33.405 -14.535 -20.210  0.00  0.00    +0.005 C 
ATOM     29  C   UNL     1      32.387 -12.929 -22.252  0.00  0.00    +0.030 C 
ATOM     30  C   UNL     1      32.438 -13.571 -19.923  0.00  0.00    +0.030 C 
ATOM     31  C   UNL     1      31.928 -12.769 -20.944  0.00  0.00    +0.140 C 
ENDBRANCH  24  26
ENDBRANCH  22  24
ENDBRANCH  21  22
ENDBRANCH  20  21
ENDBRANCH   1  20
TORSDOF 8
ENDMDL
MODEL 6
REMARK VINA RESULT:     -11.3      3.548     11.052
REMARK  Name = 5567
REMARK  8 active torsions:
REMARK  status: ('A' for Active; 'I' for Inactive)
REMARK    1  A    between atoms: N_1  and  C_20
REMARK    2  A    between atoms: C_2  and  C_8
REMARK    3  A    between atoms: C_2  and  O_18
REMARK    4  A    between atoms: C_11  and  C_17
REMARK    5  A    between atoms: C_20  and  C_21
REMARK    6  A    between atoms: C_21  and  C_22
REMARK    7  A    between atoms: C_22  and  C_24
REMARK    8  A    between atoms: C_24  and  C_26
REMARK                            x       y       z     vdW  Elec       q    Type
REMARK                         _______ _______ _______ _____ _____    ______ ____
ROOT
ATOM      1  N   UNL     1      34.637 -15.113 -23.532  0.00  0.00    +0.387 N 
ATOM      2  C   UNL     1      32.918 -12.771 -22.909  0.00  0.00    +0.103 C 
ATOM      3  C   UNL     1      33.158 -13.306 -24.338  0.00  0.00    +0.008 C 
ATOM      4  C   UNL     1      34.085 -13.235 -22.006  0.00  0.00    +0.008 C 
ATOM      5  C   UNL     1      33.475 -14.806 -24.374  0.00  0.00    -0.075 C 
ATOM      6  C   UNL     1      34.394 -14.732 -22.137  0.00  0.00    -0.075 C 
ATOM      7  H   UNL     1      35.427 -14.565 -23.875  0.00  0.00    -0.080 HD
ENDROOT
BRANCH   2   8
ATOM      8  C   UNL     1      32.732 -11.256 -22.809  0.00  0.00    +0.002 C 
ATOM      9  C   UNL     1      32.432 -10.672 -21.580  0.00  0.00    +0.002 C 
ATOM     10  C   UNL     1      32.865 -10.463 -23.947  0.00  0.00    -0.002 C 
ATOM     11  C   UNL     1      32.263  -9.289 -21.488  0.00  0.00    +0.071 C 
ATOM     12  C   UNL     1      32.697  -9.081 -23.856  0.00  0.00    -0.000 C 
ATOM     13  C   UNL     1      32.396  -8.495 -22.626  0.00  0.00    +0.004 C 
BRANCH  11  17
ATOM     14  F   UNL     1      33.029  -8.497 -19.365  0.00  0.00    -0.166 F 
ATOM     15  F   UNL     1      31.384  -7.420 -20.283  0.00  0.00    -0.166 F 
ATOM     16  F   UNL     1      31.052  -9.399 -19.446  0.00  0.00    -0.166 F 
ATOM     17  C   UNL     1      31.940  -8.663 -20.174  0.00  0.00    +0.419 C 
ENDBRANCH  11  17
ENDBRANCH   2   8
BRANCH   2  18
ATOM     18  O   UNL     1      31.689 -13.339 -22.429  0.00  0.00    -0.383 OA
ATOM     19  H   UNL     1      30.979 -13.157 -23.065  0.00  0.00    +0.211 HD
ENDBRANCH   2  18
BRANCH   1  20
ATOM     20  C   UNL     1      34.977 -16.532 -23.625  0.00  0.00    -0.077 C 
BRANCH  20  21
ATOM     21  C   UNL     1      35.380 -17.071 -22.251  0.00  0.00    -0.015 C 
BRANCH  21  22
ATOM     22  C   UNL     1      35.634 -18.581 -22.271  0.00  0.00    +0.067 C 
BRANCH  22  24
ATOM     23  O   UNL     1      37.213 -18.756 -20.454  0.00  0.00    -0.291 OA
ATOM     24  C   UNL     1      36.150 -19.125 -20.946  0.00  0.00    +0.173 C 
BRANCH  24  26
ATOM     25  F   UNL     1      33.045 -22.864 -18.198  0.00  0.00    -0.204 F 
ATOM     26  C   UNL     1      35.321 -20.124 -20.213  0.00  0.00    +0.035 C 
ATOM     27  C   UNL     1      35.956 -21.074 -19.444  0.00  0.00    +0.005 C 
ATOM     28  C   UNL     1      33.951 -20.059 -20.331  0.00  0.00    +0.005 C 
ATOM     29  C   UNL     1      35.180 -22.008 -18.758  0.00  0.00    +0.030 C 
ATOM     30  C   UNL     1      33.175 -20.993 -19.644  0.00  0.00    +0.030 C 
ATOM     31  C   UNL     1      33.790 -21.967 -18.857  0.00  0.00    +0.140 C 
ENDBRANCH  24  26
ENDBRANCH  22  24
ENDBRANCH  21  22
ENDBRANCH  20  21
ENDBRANCH   1  20
TORSDOF 8
ENDMDL
MODEL 7
REMARK VINA RESULT:     -11.3      3.873     11.189
REMARK  Name = 5567
REMARK  8 active torsions:
REMARK  status: ('A' for Active; 'I' for Inactive)
REMARK    1  A    between atoms: N_1  and  C_20
REMARK    2  A    between atoms: C_2  and  C_8
REMARK    3  A    between atoms: C_2  and  O_18
REMARK    4  A    between atoms: C_11  and  C_17
REMARK    5  A    between atoms: C_20  and  C_21
REMARK    6  A    between atoms: C_21  and  C_22
REMARK    7  A    between atoms: C_22  and  C_24
REMARK    8  A    between atoms: C_24  and  C_26
REMARK                            x       y       z     vdW  Elec       q    Type
REMARK                         _______ _______ _______ _____ _____    ______ ____
ROOT
ATOM      1  N   UNL     1      34.478 -14.667 -21.117  0.00  0.00    +0.387 N 
ATOM      2  C   UNL     1      32.758 -12.445 -22.084  0.00  0.00    +0.103 C 
ATOM      3  C   UNL     1      33.999 -12.965 -22.843  0.00  0.00    +0.008 C 
ATOM      4  C   UNL     1      32.897 -12.827 -20.592  0.00  0.00    +0.008 C 
ATOM      5  C   UNL     1      34.304 -14.440 -22.557  0.00  0.00    -0.075 C 
ATOM      6  C   UNL     1      33.267 -14.300 -20.376  0.00  0.00    -0.075 C 
ATOM      7  H   UNL     1      35.238 -14.068 -20.795  0.00  0.00    -0.080 HD
ENDROOT
BRANCH   2   8
ATOM      8  C   UNL     1      32.493 -10.946 -22.231  0.00  0.00    +0.002 C 
ATOM      9  C   UNL     1      32.390 -10.143 -21.097  0.00  0.00    +0.002 C 
ATOM     10  C   UNL     1      32.357 -10.386 -23.500  0.00  0.00    -0.002 C 
ATOM     11  C   UNL     1      32.150  -8.775 -21.231  0.00  0.00    +0.071 C 
ATOM     12  C   UNL     1      32.117  -9.018 -23.635  0.00  0.00    -0.000 C 
ATOM     13  C   UNL     1      32.013  -8.213 -22.500  0.00  0.00    +0.004 C 
BRANCH  11  17
ATOM     14  F   UNL     1      31.329  -6.765 -20.227  0.00  0.00    -0.166 F 
ATOM     15  F   UNL     1      31.417  -8.529 -18.968  0.00  0.00    -0.166 F 
ATOM     16  F   UNL     1      33.252  -7.514 -19.544  0.00  0.00    -0.166 F 
ATOM     17  C   UNL     1      32.037  -7.914 -20.018  0.00  0.00    +0.419 C 
ENDBRANCH  11  17
ENDBRANCH   2   8
BRANCH   2  18
ATOM     18  O   UNL     1      31.602 -13.094 -22.637  0.00  0.00    -0.383 OA
ATOM     19  H   UNL     1      30.986 -12.424 -22.974  0.00  0.00    +0.211 HD
ENDBRANCH   2  18
BRANCH   1  20
ATOM     20  C   UNL     1      34.837 -16.060 -20.857  0.00  0.00    -0.077 C 
BRANCH  20  21
ATOM     21  C   UNL     1      35.452 -16.690 -22.109  0.00  0.00    -0.015 C 
BRANCH  21  22
ATOM     22  C   UNL     1      35.254 -18.208 -22.151  0.00  0.00    +0.067 C 
BRANCH  22  24
ATOM     23  O   UNL     1      37.187 -18.683 -20.785  0.00  0.00    -0.291 OA
ATOM     24  C   UNL     1      36.020 -18.948 -21.063  0.00  0.00    +0.173 C 
BRANCH  24  26
ATOM     25  F   UNL     1      33.386 -22.948 -18.193  0.00  0.00    -0.204 F 
ATOM     26  C   UNL     1      35.317 -20.015 -20.296  0.00  0.00    +0.035 C 
ATOM     27  C   UNL     1      33.941 -20.059 -20.334  0.00  0.00    +0.005 C 
ATOM     28  C   UNL     1      36.068 -20.918 -19.579  0.00  0.00    +0.005 C 
ATOM     29  C   UNL     1      33.283 -21.059 -19.616  0.00  0.00    +0.030 C 
ATOM     30  C   UNL     1      35.410 -21.917 -18.862  0.00  0.00    +0.030 C 
ATOM     31  C   UNL     1      34.017 -21.988 -18.881  0.00  0.00    +0.140 C 
ENDBRANCH  24  26
ENDBRANCH  22  24
ENDBRANCH  21  22
ENDBRANCH  20  21
ENDBRANCH   1  20
TORSDOF 8
ENDMDL
MODEL 8
REMARK VINA RESULT:     -11.2      2.059      2.570
REMARK  Name = 5567
REMARK  8 active torsions:
REMARK  status: ('A' for Active; 'I' for Inactive)
REMARK    1  A    between atoms: N_1  and  C_20
REMARK    2  A    between atoms: C_2  and  C_8
REMARK    3  A    between atoms: C_2  and  O_18
REMARK    4  A    between atoms: C_11  and  C_17
REMARK    5  A    between atoms: C_20  and  C_21
REMARK    6  A    between atoms: C_21  and  C_22
REMARK    7  A    between atoms: C_22  and  C_24
REMARK    8  A    between atoms: C_24  and  C_26
REMARK                            x       y       z     vdW  Elec       q    Type
REMARK                         _______ _______ _______ _____ _____    ______ ____
ROOT
ATOM      1  N   UNL     1      35.348 -20.273 -19.980  0.00  0.00    +0.387 N 
ATOM      2  C   UNL     1      34.171 -22.411 -18.286  0.00  0.00    +0.103 C 
ATOM      3  C   UNL     1      33.348 -21.274 -18.930  0.00  0.00    +0.008 C 
ATOM      4  C   UNL     1      35.644 -21.955 -18.179  0.00  0.00    +0.008 C 
ATOM      5  C   UNL     1      33.976 -20.734 -20.221  0.00  0.00    -0.075 C 
ATOM      6  C   UNL     1      36.192 -21.365 -19.485  0.00  0.00    -0.075 C 
ATOM      7  H   UNL     1      35.314 -19.550 -19.262  0.00  0.00    -0.080 HD
ENDROOT
BRANCH   2   8
ATOM      8  C   UNL     1      33.657 -22.889 -16.927  0.00  0.00    +0.002 C 
ATOM      9  C   UNL     1      34.561 -23.202 -15.912  0.00  0.00    +0.002 C 
ATOM     10  C   UNL     1      32.287 -23.009 -16.705  0.00  0.00    -0.002 C 
ATOM     11  C   UNL     1      34.093 -23.636 -14.672  0.00  0.00    +0.071 C 
ATOM     12  C   UNL     1      31.818 -23.443 -15.464  0.00  0.00    -0.000 C 
ATOM     13  C   UNL     1      32.721 -23.758 -14.448  0.00  0.00    +0.004 C 
BRANCH  11  17
ATOM     14  F   UNL     1      34.797 -23.338 -12.405  0.00  0.00    -0.166 F 
ATOM     15  F   UNL     1      35.089 -25.303 -13.276  0.00  0.00    -0.166 F 
ATOM     16  F   UNL     1      36.343 -23.641 -13.904  0.00  0.00    -0.166 F 
ATOM     17  C   UNL     1      35.058 -23.973 -13.586  0.00  0.00    +0.419 C 
ENDBRANCH  11  17
ENDBRANCH   2   8
BRANCH   2  18
ATOM     18  O   UNL     1      34.088 -23.556 -19.149  0.00  0.00    -0.383 OA
ATOM     19  H   UNL     1      33.594 -24.262 -18.704  0.00  0.00    +0.211 HD
ENDBRANCH   2  18
BRANCH   1  20
ATOM     20  C   UNL     1      35.916 -19.696 -21.198  0.00  0.00    -0.077 C 
BRANCH  20  21
ATOM     21  C   UNL     1      34.853 -18.887 -21.945  0.00  0.00    -0.015 C 
BRANCH  21  22
ATOM     22  C   UNL     1      35.416 -17.587 -22.527  0.00  0.00    +0.067 C 
BRANCH  22  24
ATOM     23  O   UNL     1      34.408 -17.883 -24.700  0.00  0.00    -0.291 OA
ATOM     24  C   UNL     1      34.686 -17.120 -23.779  0.00  0.00    +0.173 C 
BRANCH  24  26
ATOM     25  F   UNL     1      33.157 -11.762 -24.136  0.00  0.00    -0.204 F 
ATOM     26  C   UNL     1      34.279 -15.690 -23.875  0.00  0.00    +0.035 C 
ATOM     27  C   UNL     1      33.566 -15.277 -24.979  0.00  0.00    +0.005 C 
ATOM     28  C   UNL     1      34.629 -14.833 -22.856  0.00  0.00    +0.005 C 
ATOM     29  C   UNL     1      33.184 -13.939 -25.068  0.00  0.00    +0.030 C 
ATOM     30  C   UNL     1      34.247 -13.495 -22.945  0.00  0.00    +0.030 C 
ATOM     31  C   UNL     1      33.524 -13.047 -24.051  0.00  0.00    +0.140 C 
ENDBRANCH  24  26
ENDBRANCH  22  24
ENDBRANCH  21  22
ENDBRANCH  20  21
ENDBRANCH   1  20
TORSDOF 8
ENDMDL
MODEL 9
REMARK VINA RESULT:     -11.1      3.570      5.921
REMARK  Name = 5567
REMARK  8 active torsions:
REMARK  status: ('A' for Active; 'I' for Inactive)
REMARK    1  A    between atoms: N_1  and  C_20
REMARK    2  A    between atoms: C_2  and  C_8
REMARK    3  A    between atoms: C_2  and  O_18
REMARK    4  A    between atoms: C_11  and  C_17
REMARK    5  A    between atoms: C_20  and  C_21
REMARK    6  A    between atoms: C_21  and  C_22
REMARK    7  A    between atoms: C_22  and  C_24
REMARK    8  A    between atoms: C_24  and  C_26
REMARK                            x       y       z     vdW  Elec       q    Type
REMARK                         _______ _______ _______ _____ _____    ______ ____
ROOT
ATOM      1  N   UNL     1      34.187 -15.868 -23.188  0.00  0.00    +0.387 N 
ATOM      2  C   UNL     1      35.684 -18.006 -21.769  0.00  0.00    +0.103 C 
ATOM      3  C   UNL     1      34.884 -18.235 -23.070  0.00  0.00    +0.008 C 
ATOM      4  C   UNL     1      35.134 -16.743 -21.067  0.00  0.00    +0.008 C 
ATOM      5  C   UNL     1      34.781 -16.978 -23.942  0.00  0.00    -0.075 C 
ATOM      6  C   UNL     1      34.994 -15.540 -22.008  0.00  0.00    -0.075 C 
ATOM      7  H   UNL     1      33.265 -16.165 -22.866  0.00  0.00    -0.080 HD
ENDROOT
BRANCH   2   8
ATOM      8  C   UNL     1      35.699 -19.193 -20.804  0.00  0.00    +0.002 C 
ATOM      9  C   UNL     1      34.521 -19.887 -20.536  0.00  0.00    +0.002 C 
ATOM     10  C   UNL     1      36.893 -19.579 -20.197  0.00  0.00    -0.002 C 
ATOM     11  C   UNL     1      34.535 -20.970 -19.656  0.00  0.00    +0.071 C 
ATOM     12  C   UNL     1      36.907 -20.662 -19.317  0.00  0.00    -0.000 C 
ATOM     13  C   UNL     1      35.728 -21.357 -19.047  0.00  0.00    +0.004 C 
BRANCH  11  17
ATOM     14  F   UNL     1      32.764 -21.459 -18.124  0.00  0.00    -0.166 F 
ATOM     15  F   UNL     1      32.259 -21.425 -20.234  0.00  0.00    -0.166 F 
ATOM     16  F   UNL     1      33.436 -23.066 -19.426  0.00  0.00    -0.166 F 
ATOM     17  C   UNL     1      33.274 -21.712 -19.366  0.00  0.00    +0.419 C 
ENDBRANCH  11  17
ENDBRANCH   2   8
BRANCH   2  18
ATOM     18  O   UNL     1      37.057 -17.791 -22.131  0.00  0.00    -0.383 OA
ATOM     19  H   UNL     1      37.490 -17.252 -21.450  0.00  0.00    +0.211 HD
ENDBRANCH   2  18
BRANCH   1  20
ATOM     20  C   UNL     1      34.027 -14.693 -24.044  0.00  0.00    -0.077 C 
BRANCH  20  21
ATOM     21  C   UNL     1      33.861 -13.435 -23.190  0.00  0.00    -0.015 C 
BRANCH  21  22
ATOM     22  C   UNL     1      32.395 -13.155 -22.846  0.00  0.00    +0.067 C 
BRANCH  22  24
ATOM     23  O   UNL     1      32.039 -14.094 -20.651  0.00  0.00    -0.291 OA
ATOM     24  C   UNL     1      32.127 -13.087 -21.349  0.00  0.00    +0.173 C 
BRANCH  24  26
ATOM     25  F   UNL     1      31.611  -8.071 -18.953  0.00  0.00    -0.204 F 
ATOM     26  C   UNL     1      31.991 -11.748 -20.709  0.00  0.00    +0.035 C 
ATOM     27  C   UNL     1      31.822 -10.644 -21.516  0.00  0.00    +0.005 C 
ATOM     28  C   UNL     1      32.036 -11.664 -19.336  0.00  0.00    +0.005 C 
ATOM     29  C   UNL     1      31.694  -9.391 -20.917  0.00  0.00    +0.030 C 
ATOM     30  C   UNL     1      31.907 -10.410 -18.738  0.00  0.00    +0.030 C 
ATOM     31  C   UNL     1      31.735  -9.274 -19.528  0.00  0.00    +0.140 C 
ENDBRANCH  24  26
ENDBRANCH  22  24
ENDBRANCH  21  22
ENDBRANCH  20  21
ENDBRANCH   1  20
TORSDOF 8
ENDMDL
