MODEL 1
REMARK VINA RESULT:     -11.6      0.000      0.000
REMARK  Name = 5288712
REMARK  5 active torsions:
REMARK  status: ('A' for Active; 'I' for Inactive)
REMARK    1  A    between atoms: C_1  and  N_18
REMARK    2  A    between atoms: C_2  and  S_7
REMARK    3  A    between atoms: S_7  and  N_10
REMARK    4  A    between atoms: N_10  and  C_13
REMARK    5  A    between atoms: N_18  and  C_26
REMARK                            x       y       z     vdW  Elec       q    Type
REMARK                         _______ _______ _______ _____ _____    ______ ____
ROOT
ATOM      1  C   UNL     1      35.497 -19.595 -20.731  0.00  0.00    +0.048 C 
ATOM      2  C   UNL     1      34.407 -21.597 -19.112  0.00  0.00    +0.129 C 
ATOM      3  C   UNL     1      36.332 -20.408 -19.961  0.00  0.00    +0.016 C 
ATOM      4  C   UNL     1      34.113 -19.789 -20.688  0.00  0.00    +0.016 C 
ATOM      5  C   UNL     1      35.788 -21.407 -19.153  0.00  0.00    +0.022 C 
ATOM      6  C   UNL     1      33.569 -20.787 -19.880  0.00  0.00    +0.022 C 
ENDROOT
BRANCH   2   7
ATOM      7  S   UNL     1      33.725 -22.846 -18.101  0.00  0.00    +0.103 S 
ATOM      8  O   UNL     1      33.906 -24.122 -18.786  0.00  0.00    -0.146 OA
ATOM      9  O   UNL     1      32.379 -22.402 -17.758  0.00  0.00    -0.146 OA
BRANCH   7  10
ATOM     10  N   UNL     1      34.673 -22.836 -16.767  0.00  0.00    -0.093 NA
BRANCH  10  13
ATOM     11  N   UNL     1      33.001 -23.655 -15.247  0.00  0.00    -0.369 N 
ATOM     12  N   UNL     1      34.882 -22.634 -14.455  0.00  0.00    -0.369 N 
ATOM     13  C   UNL     1      34.190 -23.042 -15.570  0.00  0.00    +0.212 C 
ATOM     14  H   UNL     1      32.411 -23.993 -15.959  0.00  0.00    +0.159 HD
ATOM     15  H   UNL     1      32.739 -23.754 -14.303  0.00  0.00    +0.159 HD
ATOM     16  H   UNL     1      35.752 -22.182 -14.554  0.00  0.00    +0.159 HD
ATOM     17  H   UNL     1      34.510 -22.795 -13.559  0.00  0.00    +0.159 HD
ENDBRANCH  10  13
ENDBRANCH   7  10
ENDBRANCH   2   7
BRANCH   1  18
ATOM     18  N   UNL     1      36.045 -18.590 -21.545  0.00  0.00    -0.311 N 
ATOM     19  H   UNL     1      36.830 -18.853 -22.078  0.00  0.00    +0.152 HD
BRANCH  18  26
ATOM     20  O   UNL     1      34.823 -18.721 -24.172  0.00  0.00    -0.270 OA
ATOM     21  N   UNL     1      33.976 -16.600 -24.776  0.00  0.00    -0.280 N 
ATOM     22  C   UNL     1      34.551 -15.386 -22.909  0.00  0.00    +0.019 C 
ATOM     23  C   UNL     1      34.996 -16.764 -22.734  0.00  0.00    +0.069 C 
ATOM     24  C   UNL     1      33.938 -15.341 -24.165  0.00  0.00    +0.051 C 
ATOM     25  C   UNL     1      34.613 -17.540 -23.960  0.00  0.00    +0.251 C 
ATOM     26  C   UNL     1      35.636 -17.305 -21.696  0.00  0.00    +0.066 C 
ATOM     27  C   UNL     1      34.631 -14.252 -22.122  0.00  0.00    +0.001 C 
ATOM     28  C   UNL     1      33.389 -14.183 -24.679  0.00  0.00    +0.015 C 
ATOM     29  C   UNL     1      34.080 -13.068 -22.624  0.00  0.00    +0.000 C 
ATOM     30  C   UNL     1      33.465 -13.034 -23.890  0.00  0.00    +0.001 C 
ATOM     31  H   UNL     1      33.602 -16.797 -25.666  0.00  0.00    +0.155 HD
ENDBRANCH  18  26
ENDBRANCH   1  18
TORSDOF 5
ENDMDL
MODEL 2
REMARK VINA RESULT:     -11.4      1.413      2.051
REMARK  Name = 5288712
REMARK  5 active torsions:
REMARK  status: ('A' for Active; 'I' for Inactive)
REMARK    1  A    between atoms: C_1  and  N_18
REMARK    2  A    between atoms: C_2  and  S_7
REMARK    3  A    between atoms: S_7  and  N_10
REMARK    4  A    between atoms: N_10  and  C_13
REMARK    5  A    between atoms: N_18  and  C_26
REMARK                            x       y       z     vdW  Elec       q    Type
REMARK                         _______ _______ _______ _____ _____    ______ ____
ROOT
ATOM      1  C   UNL     1      35.582 -19.473 -20.647  0.00  0.00    +0.048 C 
ATOM      2  C   UNL     1      34.478 -21.563 -19.155  0.00  0.00    +0.129 C 
ATOM      3  C   UNL     1      34.201 -19.684 -20.648  0.00  0.00    +0.016 C 
ATOM      4  C   UNL     1      36.409 -20.313 -19.895  0.00  0.00    +0.016 C 
ATOM      5  C   UNL     1      33.650 -20.727 -19.903  0.00  0.00    +0.022 C 
ATOM      6  C   UNL     1      35.858 -21.357 -19.151  0.00  0.00    +0.022 C 
ENDROOT
BRANCH   2   7
ATOM      7  S   UNL     1      33.790 -22.870 -18.224  0.00  0.00    +0.103 S 
ATOM      8  O   UNL     1      33.943 -24.097 -18.997  0.00  0.00    -0.146 OA
ATOM      9  O   UNL     1      32.455 -22.431 -17.833  0.00  0.00    -0.146 OA
BRANCH   7  10
ATOM     10  N   UNL     1      34.754 -22.965 -16.904  0.00  0.00    -0.093 NA
BRANCH  10  13
ATOM     11  N   UNL     1      33.101 -23.665 -15.305  0.00  0.00    -0.369 N 
ATOM     12  N   UNL     1      34.932 -22.480 -14.632  0.00  0.00    -0.369 N 
ATOM     13  C   UNL     1      34.268 -23.047 -15.693  0.00  0.00    +0.212 C 
ATOM     14  H   UNL     1      32.533 -24.109 -15.974  0.00  0.00    +0.159 HD
ATOM     15  H   UNL     1      32.835 -23.661 -14.357  0.00  0.00    +0.159 HD
ATOM     16  H   UNL     1      35.784 -22.007 -14.780  0.00  0.00    +0.159 HD
ATOM     17  H   UNL     1      34.558 -22.547 -13.725  0.00  0.00    +0.159 HD
ENDBRANCH  10  13
ENDBRANCH   7  10
ENDBRANCH   2   7
BRANCH   1  18
ATOM     18  N   UNL     1      36.137 -18.421 -21.396  0.00  0.00    -0.311 N 
ATOM     19  H   UNL     1      37.060 -18.173 -21.162  0.00  0.00    +0.152 HD
BRANCH  18  26
ATOM     20  O   UNL     1      35.218 -16.091 -19.934  0.00  0.00    -0.270 OA
ATOM     21  N   UNL     1      34.152 -14.582 -21.407  0.00  0.00    -0.280 N 
ATOM     22  C   UNL     1      34.359 -15.733 -23.388  0.00  0.00    +0.019 C 
ATOM     23  C   UNL     1      34.972 -16.514 -22.320  0.00  0.00    +0.069 C 
ATOM     24  C   UNL     1      33.877 -14.569 -22.779  0.00  0.00    +0.051 C 
ATOM     25  C   UNL     1      34.827 -15.749 -21.036  0.00  0.00    +0.251 C 
ATOM     26  C   UNL     1      35.570 -17.704 -22.398  0.00  0.00    +0.066 C 
ATOM     27  C   UNL     1      34.199 -15.937 -24.745  0.00  0.00    +0.001 C 
ATOM     28  C   UNL     1      33.227 -13.579 -23.488  0.00  0.00    +0.015 C 
ATOM     29  C   UNL     1      33.542 -14.946 -25.483  0.00  0.00    +0.000 C 
ATOM     30  C   UNL     1      33.061 -13.779 -24.861  0.00  0.00    +0.001 C 
ATOM     31  H   UNL     1      33.902 -13.862 -20.783  0.00  0.00    +0.155 HD
ENDBRANCH  18  26
ENDBRANCH   1  18
TORSDOF 5
ENDMDL
MODEL 3
REMARK VINA RESULT:     -11.0      2.596      9.391
REMARK  Name = 5288712
REMARK  5 active torsions:
REMARK  status: ('A' for Active; 'I' for Inactive)
REMARK    1  A    between atoms: C_1  and  N_18
REMARK    2  A    between atoms: C_2  and  S_7
REMARK    3  A    between atoms: S_7  and  N_10
REMARK    4  A    between atoms: N_10  and  C_13
REMARK    5  A    between atoms: N_18  and  C_26
REMARK                            x       y       z     vdW  Elec       q    Type
REMARK                         _______ _______ _______ _____ _____    ______ ____
ROOT
ATOM      1  C   UNL     1      34.445 -21.925 -19.227  0.00  0.00    +0.048 C 
ATOM      2  C   UNL     1      35.304 -19.632 -20.575  0.00  0.00    +0.129 C 
ATOM      3  C   UNL     1      35.807 -21.625 -19.306  0.00  0.00    +0.016 C 
ATOM      4  C   UNL     1      33.514 -21.071 -19.826  0.00  0.00    +0.016 C 
ATOM      5  C   UNL     1      36.236 -20.481 -19.978  0.00  0.00    +0.022 C 
ATOM      6  C   UNL     1      33.943 -19.927 -20.500  0.00  0.00    +0.022 C 
ENDROOT
BRANCH   2   7
ATOM      7  S   UNL     1      35.840 -18.199 -21.418  0.00  0.00    +0.103 S 
ATOM      8  O   UNL     1      37.270 -18.341 -21.672  0.00  0.00    -0.146 OA
ATOM      9  O   UNL     1      35.362 -17.065 -20.636  0.00  0.00    -0.146 OA
BRANCH   7  10
ATOM     10  N   UNL     1      35.050 -18.264 -22.849  0.00  0.00    -0.093 NA
BRANCH  10  13
ATOM     11  N   UNL     1      34.114 -17.099 -24.732  0.00  0.00    -0.369 N 
ATOM     12  N   UNL     1      35.573 -16.045 -23.329  0.00  0.00    -0.369 N 
ATOM     13  C   UNL     1      34.903 -17.211 -23.610  0.00  0.00    +0.212 C 
ATOM     14  H   UNL     1      33.582 -17.867 -25.039  0.00  0.00    +0.159 HD
ATOM     15  H   UNL     1      34.083 -16.249 -25.228  0.00  0.00    +0.159 HD
ATOM     16  H   UNL     1      36.171 -15.996 -22.548  0.00  0.00    +0.159 HD
ATOM     17  H   UNL     1      35.455 -15.258 -23.907  0.00  0.00    +0.159 HD
ENDBRANCH  10  13
ENDBRANCH   7  10
ENDBRANCH   2   7
BRANCH   1  18
ATOM     18  N   UNL     1      34.012 -23.077 -18.549  0.00  0.00    -0.311 N 
ATOM     19  H   UNL     1      34.482 -23.910 -18.782  0.00  0.00    +0.152 HD
BRANCH  18  26
ATOM     20  O   UNL     1      35.591 -23.098 -16.117  0.00  0.00    -0.270 OA
ATOM     21  N   UNL     1      34.175 -23.295 -14.236  0.00  0.00    -0.280 N 
ATOM     22  C   UNL     1      32.126 -23.381 -15.277  0.00  0.00    +0.019 C 
ATOM     23  C   UNL     1      33.167 -23.255 -16.291  0.00  0.00    +0.069 C 
ATOM     24  C   UNL     1      32.792 -23.400 -14.048  0.00  0.00    +0.051 C 
ATOM     25  C   UNL     1      34.497 -23.201 -15.594  0.00  0.00    +0.251 C 
ATOM     26  C   UNL     1      33.034 -23.194 -17.616  0.00  0.00    +0.066 C 
ATOM     27  C   UNL     1      30.748 -23.474 -15.334  0.00  0.00    +0.001 C 
ATOM     28  C   UNL     1      32.123 -23.511 -12.846  0.00  0.00    +0.015 C 
ATOM     29  C   UNL     1      30.050 -23.586 -14.127  0.00  0.00    +0.000 C 
ATOM     30  C   UNL     1      30.730 -23.605 -12.895  0.00  0.00    +0.001 C 
ATOM     31  H   UNL     1      34.837 -23.288 -13.506  0.00  0.00    +0.155 HD
ENDBRANCH  18  26
ENDBRANCH   1  18
TORSDOF 5
ENDMDL
MODEL 4
REMARK VINA RESULT:     -10.9      1.103      1.743
REMARK  Name = 5288712
REMARK  5 active torsions:
REMARK  status: ('A' for Active; 'I' for Inactive)
REMARK    1  A    between atoms: C_1  and  N_18
REMARK    2  A    between atoms: C_2  and  S_7
REMARK    3  A    between atoms: S_7  and  N_10
REMARK    4  A    between atoms: N_10  and  C_13
REMARK    5  A    between atoms: N_18  and  C_26
REMARK                            x       y       z     vdW  Elec       q    Type
REMARK                         _______ _______ _______ _____ _____    ______ ____
ROOT
ATOM      1  C   UNL     1      35.484 -19.882 -20.568  0.00  0.00    +0.048 C 
ATOM      2  C   UNL     1      34.429 -21.870 -18.912  0.00  0.00    +0.129 C 
ATOM      3  C   UNL     1      34.110 -20.128 -20.555  0.00  0.00    +0.016 C 
ATOM      4  C   UNL     1      36.329 -20.635 -19.748  0.00  0.00    +0.016 C 
ATOM      5  C   UNL     1      33.583 -21.120 -19.728  0.00  0.00    +0.022 C 
ATOM      6  C   UNL     1      35.803 -21.628 -18.922  0.00  0.00    +0.022 C 
ENDROOT
BRANCH   2   7
ATOM      7  S   UNL     1      33.770 -23.113 -17.877  0.00  0.00    +0.103 S 
ATOM      8  O   UNL     1      34.627 -23.215 -16.701  0.00  0.00    -0.146 OA
ATOM      9  O   UNL     1      33.574 -24.284 -18.723  0.00  0.00    -0.146 OA
BRANCH   7  10
ATOM     10  N   UNL     1      32.320 -22.512 -17.411  0.00  0.00    -0.093 NA
BRANCH  10  13
ATOM     11  N   UNL     1      32.146 -23.003 -15.065  0.00  0.00    -0.369 N 
ATOM     12  N   UNL     1      30.415 -23.473 -16.476  0.00  0.00    -0.369 N 
ATOM     13  C   UNL     1      31.686 -22.964 -16.362  0.00  0.00    +0.212 C 
ATOM     14  H   UNL     1      33.045 -22.667 -14.850  0.00  0.00    +0.159 HD
ATOM     15  H   UNL     1      31.574 -23.370 -14.352  0.00  0.00    +0.159 HD
ATOM     16  H   UNL     1      29.973 -23.500 -17.356  0.00  0.00    +0.159 HD
ATOM     17  H   UNL     1      29.946 -23.810 -15.680  0.00  0.00    +0.159 HD
ENDBRANCH  10  13
ENDBRANCH   7  10
ENDBRANCH   2   7
BRANCH   1  18
ATOM     18  N   UNL     1      36.016 -18.882 -21.401  0.00  0.00    -0.311 N 
ATOM     19  H   UNL     1      36.749 -19.166 -21.993  0.00  0.00    +0.152 HD
BRANCH  18  26
ATOM     20  O   UNL     1      34.820 -18.854 -24.042  0.00  0.00    -0.270 OA
ATOM     21  N   UNL     1      34.052 -16.680 -24.558  0.00  0.00    -0.280 N 
ATOM     22  C   UNL     1      34.647 -15.571 -22.634  0.00  0.00    +0.019 C 
ATOM     23  C   UNL     1      35.043 -16.970 -22.516  0.00  0.00    +0.069 C 
ATOM     24  C   UNL     1      34.050 -15.449 -23.892  0.00  0.00    +0.051 C 
ATOM     25  C   UNL     1      34.648 -17.678 -23.780  0.00  0.00    +0.251 C 
ATOM     26  C   UNL     1      35.652 -17.578 -21.497  0.00  0.00    +0.066 C 
ATOM     27  C   UNL     1      34.757 -14.477 -21.796  0.00  0.00    +0.001 C 
ATOM     28  C   UNL     1      33.546 -14.252 -24.359  0.00  0.00    +0.015 C 
ATOM     29  C   UNL     1      34.252 -13.253 -22.250  0.00  0.00    +0.000 C 
ATOM     30  C   UNL     1      33.653 -13.142 -23.518  0.00  0.00    +0.001 C 
ATOM     31  H   UNL     1      33.681 -16.825 -25.460  0.00  0.00    +0.155 HD
ENDBRANCH  18  26
ENDBRANCH   1  18
TORSDOF 5
ENDMDL
MODEL 5
REMARK VINA RESULT:     -10.3      6.138     10.186
REMARK  Name = 5288712
REMARK  5 active torsions:
REMARK  status: ('A' for Active; 'I' for Inactive)
REMARK    1  A    between atoms: C_1  and  N_18
REMARK    2  A    between atoms: C_2  and  S_7
REMARK    3  A    between atoms: S_7  and  N_10
REMARK    4  A    between atoms: N_10  and  C_13
REMARK    5  A    between atoms: N_18  and  C_26
REMARK                            x       y       z     vdW  Elec       q    Type
REMARK                         _______ _______ _______ _____ _____    ______ ____
ROOT
ATOM      1  C   UNL     1      33.600 -12.188 -23.459  0.00  0.00    +0.048 C 
ATOM      2  C   UNL     1      32.630  -9.710 -22.605  0.00  0.00    +0.129 C 
ATOM      3  C   UNL     1      32.483 -12.122 -22.623  0.00  0.00    +0.016 C 
ATOM      4  C   UNL     1      34.230 -11.008 -23.866  0.00  0.00    +0.016 C 
ATOM      5  C   UNL     1      31.998 -10.885 -22.197  0.00  0.00    +0.022 C 
ATOM      6  C   UNL     1      33.746  -9.771 -23.439  0.00  0.00    +0.022 C 
ENDROOT
BRANCH   2   7
ATOM      7  S   UNL     1      32.024  -8.162 -22.071  0.00  0.00    +0.103 S 
ATOM      8  O   UNL     1      30.813  -7.871 -22.830  0.00  0.00    -0.146 OA
ATOM      9  O   UNL     1      33.152  -7.240 -22.140  0.00  0.00    -0.146 OA
BRANCH   7  10
ATOM     10  N   UNL     1      31.607  -8.418 -20.508  0.00  0.00    -0.093 NA
BRANCH  10  13
ATOM     11  N   UNL     1      33.414  -7.348 -19.339  0.00  0.00    -0.369 N 
ATOM     12  N   UNL     1      32.526  -9.300 -18.558  0.00  0.00    -0.369 N 
ATOM     13  C   UNL     1      32.476  -8.336 -19.535  0.00  0.00    +0.212 C 
ATOM     14  H   UNL     1      33.481  -6.598 -19.972  0.00  0.00    +0.159 HD
ATOM     15  H   UNL     1      34.020  -7.394 -18.564  0.00  0.00    +0.159 HD
ATOM     16  H   UNL     1      31.902 -10.063 -18.586  0.00  0.00    +0.159 HD
ATOM     17  H   UNL     1      33.183  -9.229 -17.829  0.00  0.00    +0.159 HD
ENDBRANCH  10  13
ENDBRANCH   7  10
ENDBRANCH   2   7
BRANCH   1  18
ATOM     18  N   UNL     1      34.088 -13.434 -23.890  0.00  0.00    -0.311 N 
ATOM     19  H   UNL     1      34.133 -13.560 -24.865  0.00  0.00    +0.152 HD
BRANCH  18  26
ATOM     20  O   UNL     1      33.497 -15.636 -25.681  0.00  0.00    -0.270 OA
ATOM     21  N   UNL     1      34.115 -17.683 -24.677  0.00  0.00    -0.280 N 
ATOM     22  C   UNL     1      34.926 -16.920 -22.664  0.00  0.00    +0.019 C 
ATOM     23  C   UNL     1      34.481 -15.780 -23.459  0.00  0.00    +0.069 C 
ATOM     24  C   UNL     1      34.682 -18.050 -23.451  0.00  0.00    +0.051 C 
ATOM     25  C   UNL     1      33.955 -16.297 -24.767  0.00  0.00    +0.251 C 
ATOM     26  C   UNL     1      34.506 -14.485 -23.141  0.00  0.00    +0.066 C 
ATOM     27  C   UNL     1      35.485 -17.043 -21.406  0.00  0.00    +0.001 C 
ATOM     28  C   UNL     1      34.980 -19.328 -23.021  0.00  0.00    +0.015 C 
ATOM     29  C   UNL     1      35.795 -18.329 -20.952  0.00  0.00    +0.000 C 
ATOM     30  C   UNL     1      35.545 -19.460 -21.751  0.00  0.00    +0.001 C 
ATOM     31  H   UNL     1      33.862 -18.319 -25.384  0.00  0.00    +0.155 HD
ENDBRANCH  18  26
ENDBRANCH   1  18
TORSDOF 5
ENDMDL
MODEL 6
REMARK VINA RESULT:     -10.3      3.815      6.300
REMARK  Name = 5288712
REMARK  5 active torsions:
REMARK  status: ('A' for Active; 'I' for Inactive)
REMARK    1  A    between atoms: C_1  and  N_18
REMARK    2  A    between atoms: C_2  and  S_7
REMARK    3  A    between atoms: S_7  and  N_10
REMARK    4  A    between atoms: N_10  and  C_13
REMARK    5  A    between atoms: N_18  and  C_26
REMARK                            x       y       z     vdW  Elec       q    Type
REMARK                         _______ _______ _______ _____ _____    ______ ____
ROOT
ATOM      1  C   UNL     1      33.986 -14.538 -23.658  0.00  0.00    +0.048 C 
ATOM      2  C   UNL     1      35.012 -16.963 -22.720  0.00  0.00    +0.129 C 
ATOM      3  C   UNL     1      34.439 -14.646 -22.341  0.00  0.00    +0.016 C 
ATOM      4  C   UNL     1      34.049 -15.650 -24.504  0.00  0.00    +0.016 C 
ATOM      5  C   UNL     1      34.951 -15.857 -21.873  0.00  0.00    +0.022 C 
ATOM      6  C   UNL     1      34.560 -16.860 -24.036  0.00  0.00    +0.022 C 
ENDROOT
BRANCH   2   7
ATOM      7  S   UNL     1      35.652 -18.478 -22.134  0.00  0.00    +0.103 S 
ATOM      8  O   UNL     1      37.054 -18.267 -21.790  0.00  0.00    -0.146 OA
ATOM      9  O   UNL     1      35.303 -19.480 -23.134  0.00  0.00    -0.146 OA
BRANCH   7  10
ATOM     10  N   UNL     1      34.815 -18.754 -20.754  0.00  0.00    -0.093 NA
BRANCH  10  13
ATOM     11  N   UNL     1      33.391 -20.492 -19.902  0.00  0.00    -0.369 N 
ATOM     12  N   UNL     1      35.625 -20.863 -20.187  0.00  0.00    -0.369 N 
ATOM     13  C   UNL     1      34.596 -19.961 -20.304  0.00  0.00    +0.212 C 
ATOM     14  H   UNL     1      32.574 -19.945 -19.937  0.00  0.00    +0.159 HD
ATOM     15  H   UNL     1      33.348 -21.421 -19.578  0.00  0.00    +0.159 HD
ATOM     16  H   UNL     1      36.540 -20.603 -20.445  0.00  0.00    +0.159 HD
ATOM     17  H   UNL     1      35.449 -21.770 -19.847  0.00  0.00    +0.159 HD
ENDBRANCH  10  13
ENDBRANCH   7  10
ENDBRANCH   2   7
BRANCH   1  18
ATOM     18  N   UNL     1      33.471 -13.319 -24.131  0.00  0.00    -0.311 N 
ATOM     19  H   UNL     1      32.611 -13.376 -24.607  0.00  0.00    +0.152 HD
BRANCH  18  26
ATOM     20  O   UNL     1      31.467 -12.032 -22.478  0.00  0.00    -0.270 OA
ATOM     21  N   UNL     1      32.079  -9.787 -22.067  0.00  0.00    -0.280 N 
ATOM     22  C   UNL     1      34.062  -9.687 -23.228  0.00  0.00    +0.019 C 
ATOM     23  C   UNL     1      33.504 -11.029 -23.356  0.00  0.00    +0.069 C 
ATOM     24  C   UNL     1      33.157  -8.974 -22.435  0.00  0.00    +0.051 C 
ATOM     25  C   UNL     1      32.212 -11.076 -22.594  0.00  0.00    +0.251 C 
ATOM     26  C   UNL     1      34.000 -12.075 -24.019  0.00  0.00    +0.066 C 
ATOM     27  C   UNL     1      35.207  -9.082 -23.710  0.00  0.00    +0.001 C 
ATOM     28  C   UNL     1      33.355  -7.651 -22.096  0.00  0.00    +0.015 C 
ATOM     29  C   UNL     1      35.427  -7.741 -23.377  0.00  0.00    +0.000 C 
ATOM     30  C   UNL     1      34.511  -7.032 -22.579  0.00  0.00    +0.001 C 
ATOM     31  H   UNL     1      31.324  -9.490 -21.509  0.00  0.00    +0.155 HD
ENDBRANCH  18  26
ENDBRANCH   1  18
TORSDOF 5
ENDMDL
MODEL 7
REMARK VINA RESULT:     -10.2      2.549      9.917
REMARK  Name = 5288712
REMARK  5 active torsions:
REMARK  status: ('A' for Active; 'I' for Inactive)
REMARK    1  A    between atoms: C_1  and  N_18
REMARK    2  A    between atoms: C_2  and  S_7
REMARK    3  A    between atoms: S_7  and  N_10
REMARK    4  A    between atoms: N_10  and  C_13
REMARK    5  A    between atoms: N_18  and  C_26
REMARK                            x       y       z     vdW  Elec       q    Type
REMARK                         _______ _______ _______ _____ _____    ______ ____
ROOT
ATOM      1  C   UNL     1      34.456 -21.786 -18.632  0.00  0.00    +0.048 C 
ATOM      2  C   UNL     1      35.156 -19.868 -20.542  0.00  0.00    +0.129 C 
ATOM      3  C   UNL     1      33.463 -21.119 -19.355  0.00  0.00    +0.016 C 
ATOM      4  C   UNL     1      35.801 -21.489 -18.870  0.00  0.00    +0.016 C 
ATOM      5  C   UNL     1      33.813 -20.162 -20.308  0.00  0.00    +0.022 C 
ATOM      6  C   UNL     1      36.151 -20.531 -19.823  0.00  0.00    +0.022 C 
ENDROOT
BRANCH   2   7
ATOM      7  S   UNL     1      35.594 -18.670 -21.734  0.00  0.00    +0.103 S 
ATOM      8  O   UNL     1      34.768 -18.894 -22.915  0.00  0.00    -0.146 OA
ATOM      9  O   UNL     1      37.046 -18.729 -21.854  0.00  0.00    -0.146 OA
BRANCH   7  10
ATOM     10  N   UNL     1      35.147 -17.251 -21.051  0.00  0.00    -0.093 NA
BRANCH  10  13
ATOM     11  N   UNL     1      34.562 -14.936 -21.324  0.00  0.00    -0.369 N 
ATOM     12  N   UNL     1      35.600 -16.073 -23.009  0.00  0.00    -0.369 N 
ATOM     13  C   UNL     1      35.093 -16.138 -21.734  0.00  0.00    +0.212 C 
ATOM     14  H   UNL     1      34.166 -14.852 -20.427  0.00  0.00    +0.159 HD
ATOM     15  H   UNL     1      34.578 -14.160 -21.930  0.00  0.00    +0.159 HD
ATOM     16  H   UNL     1      36.010 -16.870 -23.417  0.00  0.00    +0.159 HD
ATOM     17  H   UNL     1      35.555 -15.230 -23.514  0.00  0.00    +0.159 HD
ENDBRANCH  10  13
ENDBRANCH   7  10
ENDBRANCH   2   7
BRANCH   1  18
ATOM     18  N   UNL     1      34.105 -22.750 -17.673  0.00  0.00    -0.311 N 
ATOM     19  H   UNL     1      33.183 -23.091 -17.729  0.00  0.00    +0.152 HD
BRANCH  18  26
ATOM     20  O   UNL     1      32.239 -22.650 -15.455  0.00  0.00    -0.270 OA
ATOM     21  N   UNL     1      33.256 -23.511 -13.504  0.00  0.00    -0.280 N 
ATOM     22  C   UNL     1      35.336 -24.042 -14.330  0.00  0.00    +0.019 C 
ATOM     23  C   UNL     1      34.528 -23.480 -15.407  0.00  0.00    +0.069 C 
ATOM     24  C   UNL     1      34.515 -24.038 -13.197  0.00  0.00    +0.051 C 
ATOM     25  C   UNL     1      33.175 -23.139 -14.850  0.00  0.00    +0.251 C 
ATOM     26  C   UNL     1      34.867 -23.275 -16.680  0.00  0.00    +0.066 C 
ATOM     27  C   UNL     1      36.631 -24.520 -14.262  0.00  0.00    +0.001 C 
ATOM     28  C   UNL     1      34.946 -24.504 -11.971  0.00  0.00    +0.015 C 
ATOM     29  C   UNL     1      37.087 -24.997 -13.028  0.00  0.00    +0.000 C 
ATOM     30  C   UNL     1      36.254 -24.989 -11.894  0.00  0.00    +0.001 C 
ATOM     31  H   UNL     1      32.521 -23.414 -12.855  0.00  0.00    +0.155 HD
ENDBRANCH  18  26
ENDBRANCH   1  18
TORSDOF 5
ENDMDL
MODEL 8
REMARK VINA RESULT:     -10.2      3.928      9.075
REMARK  Name = 5288712
REMARK  5 active torsions:
REMARK  status: ('A' for Active; 'I' for Inactive)
REMARK    1  A    between atoms: C_1  and  N_18
REMARK    2  A    between atoms: C_2  and  S_7
REMARK    3  A    between atoms: S_7  and  N_10
REMARK    4  A    between atoms: N_10  and  C_13
REMARK    5  A    between atoms: N_18  and  C_26
REMARK                            x       y       z     vdW  Elec       q    Type
REMARK                         _______ _______ _______ _____ _____    ______ ____
ROOT
ATOM      1  C   UNL     1      34.987 -17.126 -22.829  0.00  0.00    +0.048 C 
ATOM      2  C   UNL     1      34.090 -14.524 -23.317  0.00  0.00    +0.129 C 
ATOM      3  C   UNL     1      34.978 -16.182 -21.800  0.00  0.00    +0.016 C 
ATOM      4  C   UNL     1      34.544 -16.763 -24.104  0.00  0.00    +0.016 C 
ATOM      5  C   UNL     1      34.530 -14.883 -22.044  0.00  0.00    +0.022 C 
ATOM      6  C   UNL     1      34.097 -15.464 -24.348  0.00  0.00    +0.022 C 
ENDROOT
BRANCH   2   7
ATOM      7  S   UNL     1      33.530 -12.899 -23.623  0.00  0.00    +0.103 S 
ATOM      8  O   UNL     1      32.795 -12.910 -24.883  0.00  0.00    -0.146 OA
ATOM      9  O   UNL     1      34.696 -12.035 -23.482  0.00  0.00    -0.146 OA
BRANCH   7  10
ATOM     10  N   UNL     1      32.471 -12.610 -22.409  0.00  0.00    -0.093 NA
BRANCH  10  13
ATOM     11  N   UNL     1      30.577 -11.326 -21.673  0.00  0.00    -0.369 N 
ATOM     12  N   UNL     1      32.161 -10.384 -23.018  0.00  0.00    -0.369 N 
ATOM     13  C   UNL     1      31.759 -11.516 -22.353  0.00  0.00    +0.212 C 
ATOM     14  H   UNL     1      30.182 -12.064 -21.156  0.00  0.00    +0.159 HD
ATOM     15  H   UNL     1      30.127 -10.451 -21.706  0.00  0.00    +0.159 HD
ATOM     16  H   UNL     1      32.996 -10.391 -23.543  0.00  0.00    +0.159 HD
ATOM     17  H   UNL     1      31.618  -9.565 -22.970  0.00  0.00    +0.159 HD
ENDBRANCH  10  13
ENDBRANCH   7  10
ENDBRANCH   2   7
BRANCH   1  18
ATOM     18  N   UNL     1      35.437 -18.435 -22.584  0.00  0.00    -0.311 N 
ATOM     19  H   UNL     1      36.221 -18.720 -23.106  0.00  0.00    +0.152 HD
BRANCH  18  26
ATOM     20  O   UNL     1      37.663 -18.718 -20.748  0.00  0.00    -0.270 OA
ATOM     21  N   UNL     1      37.129 -20.290 -19.067  0.00  0.00    -0.280 N 
ATOM     22  C   UNL     1      35.001 -20.873 -19.717  0.00  0.00    +0.019 C 
ATOM     23  C   UNL     1      35.527 -19.883 -20.650  0.00  0.00    +0.069 C 
ATOM     24  C   UNL     1      36.014 -21.084 -18.776  0.00  0.00    +0.051 C 
ATOM     25  C   UNL     1      36.915 -19.515 -20.211  0.00  0.00    +0.251 C 
ATOM     26  C   UNL     1      34.936 -19.356 -21.723  0.00  0.00    +0.066 C 
ATOM     27  C   UNL     1      33.803 -21.555 -19.628  0.00  0.00    +0.001 C 
ATOM     28  C   UNL     1      35.874 -21.968 -17.725  0.00  0.00    +0.015 C 
ATOM     29  C   UNL     1      33.640 -22.456 -18.570  0.00  0.00    +0.000 C 
ATOM     30  C   UNL     1      34.665 -22.661 -17.628  0.00  0.00    +0.001 C 
ATOM     31  H   UNL     1      37.958 -20.279 -18.534  0.00  0.00    +0.155 HD
ENDBRANCH  18  26
ENDBRANCH   1  18
TORSDOF 5
ENDMDL
MODEL 9
REMARK VINA RESULT:     -10.1      2.524      9.576
REMARK  Name = 5288712
REMARK  5 active torsions:
REMARK  status: ('A' for Active; 'I' for Inactive)
REMARK    1  A    between atoms: C_1  and  N_18
REMARK    2  A    between atoms: C_2  and  S_7
REMARK    3  A    between atoms: S_7  and  N_10
REMARK    4  A    between atoms: N_10  and  C_13
REMARK    5  A    between atoms: N_18  and  C_26
REMARK                            x       y       z     vdW  Elec       q    Type
REMARK                         _______ _______ _______ _____ _____    ______ ____
ROOT
ATOM      1  C   UNL     1      34.201 -21.720 -19.276  0.00  0.00    +0.048 C 
ATOM      2  C   UNL     1      35.131 -19.495 -20.691  0.00  0.00    +0.129 C 
ATOM      3  C   UNL     1      35.572 -21.469 -19.369  0.00  0.00    +0.016 C 
ATOM      4  C   UNL     1      33.297 -20.851 -19.894  0.00  0.00    +0.016 C 
ATOM      5  C   UNL     1      36.036 -20.359 -20.075  0.00  0.00    +0.022 C 
ATOM      6  C   UNL     1      33.760 -19.742 -20.601  0.00  0.00    +0.022 C 
ENDROOT
BRANCH   2   7
ATOM      7  S   UNL     1      35.711 -18.106 -21.575  0.00  0.00    +0.103 S 
ATOM      8  O   UNL     1      37.111 -18.343 -21.909  0.00  0.00    -0.146 OA
ATOM      9  O   UNL     1      35.353 -16.939 -20.777  0.00  0.00    -0.146 OA
BRANCH   7  10
ATOM     10  N   UNL     1      34.837 -18.125 -22.959  0.00  0.00    -0.093 NA
BRANCH  10  13
ATOM     11  N   UNL     1      34.053 -16.980 -24.921  0.00  0.00    -0.369 N 
ATOM     12  N   UNL     1      35.519 -15.964 -23.499  0.00  0.00    -0.369 N 
ATOM     13  C   UNL     1      34.788 -17.096 -23.763  0.00  0.00    +0.212 C 
ATOM     14  H   UNL     1      33.485 -17.726 -25.222  0.00  0.00    +0.159 HD
ATOM     15  H   UNL     1      34.096 -16.151 -25.450  0.00  0.00    +0.159 HD
ATOM     16  H   UNL     1      36.088 -15.922 -22.695  0.00  0.00    +0.159 HD
ATOM     17  H   UNL     1      35.475 -15.195 -24.111  0.00  0.00    +0.159 HD
ENDBRANCH  10  13
ENDBRANCH   7  10
ENDBRANCH   2   7
BRANCH   1  18
ATOM     18  N   UNL     1      33.733 -22.838 -18.565  0.00  0.00    -0.311 N 
ATOM     19  H   UNL     1      33.036 -23.368 -19.014  0.00  0.00    +0.152 HD
BRANCH  18  26
ATOM     20  O   UNL     1      31.307 -22.377 -17.046  0.00  0.00    -0.270 OA
ATOM     21  N   UNL     1      31.615 -23.059 -14.805  0.00  0.00    -0.280 N 
ATOM     22  C   UNL     1      33.791 -23.797 -14.900  0.00  0.00    +0.019 C 
ATOM     23  C   UNL     1      33.394 -23.320 -16.220  0.00  0.00    +0.069 C 
ATOM     24  C   UNL     1      32.674 -23.616 -14.078  0.00  0.00    +0.051 C 
ATOM     25  C   UNL     1      31.973 -22.843 -16.139  0.00  0.00    +0.251 C 
ATOM     26  C   UNL     1      34.115 -23.284 -17.342  0.00  0.00    +0.066 C 
ATOM     27  C   UNL     1      34.959 -24.334 -14.393  0.00  0.00    +0.001 C 
ATOM     28  C   UNL     1      32.676 -23.959 -12.741  0.00  0.00    +0.015 C 
ATOM     29  C   UNL     1      34.983 -24.689 -13.040  0.00  0.00    +0.000 C 
ATOM     30  C   UNL     1      33.853 -24.503 -12.222  0.00  0.00    +0.001 C 
ATOM     31  H   UNL     1      30.731 -22.847 -14.425  0.00  0.00    +0.155 HD
ENDBRANCH  18  26
ENDBRANCH   1  18
TORSDOF 5
ENDMDL
