MODEL 1
REMARK VINA RESULT:     -11.5      0.000      0.000
REMARK  Name = 10274777
REMARK  10 active torsions:
REMARK  status: ('A' for Active; 'I' for Inactive)
REMARK    1  A    between atoms: C_2  and  C_25
REMARK    2  A    between atoms: C_5  and  O_10
REMARK    3  A    between atoms: O_10  and  C_11
REMARK    4  A    between atoms: C_11  and  C_12
REMARK    5  A    between atoms: C_12  and  C_15
REMARK    6  A    between atoms: C_17  and  C_19
REMARK    7  A    between atoms: C_25  and  C_26
REMARK    8  A    between atoms: C_26  and  O_27
REMARK    9  A    between atoms: C_26  and  C_30
REMARK   10  A    between atoms: C_30  and  O_31
REMARK                            x       y       z     vdW  Elec       q    Type
REMARK                         _______ _______ _______ _____ _____    ______ ____
ROOT
ATOM      1  S   UNL     1      32.248 -24.105 -13.852  0.00  0.00    -0.087 S 
ATOM      2  C   UNL     1      35.034 -23.923 -13.552  0.00  0.00    -0.013 C 
ATOM      3  C   UNL     1      33.870 -23.769 -14.330  0.00  0.00    +0.029 C 
ATOM      4  C   UNL     1      33.926 -23.299 -15.645  0.00  0.00    +0.040 C 
ATOM      5  C   UNL     1      35.194 -22.977 -16.187  0.00  0.00    +0.139 C 
ATOM      6  C   UNL     1      36.270 -23.597 -14.116  0.00  0.00    -0.001 C 
ATOM      7  C   UNL     1      36.351 -23.129 -15.419  0.00  0.00    +0.037 C 
ATOM      8  C   UNL     1      32.616 -23.230 -16.228  0.00  0.00    +0.010 C 
ATOM      9  C   UNL     1      31.625 -23.636 -15.367  0.00  0.00    +0.036 C 
ENDROOT
BRANCH   5  10
ATOM     10  O   UNL     1      35.315 -22.511 -17.473  0.00  0.00    -0.475 OA
BRANCH  10  11
ATOM     11  C   UNL     1      36.364 -21.583 -17.718  0.00  0.00    +0.213 C 
BRANCH  11  12
ATOM     12  C   UNL     1      36.620 -21.480 -19.219  0.00  0.00    +0.105 C 
BRANCH  12  15
ATOM     13  O   UNL     1      33.990 -19.416 -20.685  0.00  0.00    -0.449 OA
ATOM     14  N   UNL     1      36.247 -19.419 -20.532  0.00  0.00    -0.373 NA
ATOM     15  C   UNL     1      35.716 -20.492 -19.898  0.00  0.00    +0.134 C 
ATOM     16  C   UNL     1      34.365 -20.515 -19.973  0.00  0.00    +0.216 C 
ATOM     17  C   UNL     1      35.173 -18.811 -20.984  0.00  0.00    +0.277 C 
ATOM     18  C   UNL     1      33.296 -21.396 -19.494  0.00  0.00    +0.055 C 
BRANCH  17  19
ATOM     19  C   UNL     1      35.065 -17.599 -21.748  0.00  0.00    +0.066 C 
ATOM     20  C   UNL     1      34.967 -16.365 -21.099  0.00  0.00    +0.006 C 
ATOM     21  C   UNL     1      35.055 -17.646 -23.145  0.00  0.00    +0.006 C 
ATOM     22  C   UNL     1      34.861 -15.188 -21.839  0.00  0.00    +0.000 C 
ATOM     23  C   UNL     1      34.950 -16.469 -23.886  0.00  0.00    +0.000 C 
ATOM     24  C   UNL     1      34.852 -15.240 -23.234  0.00  0.00    +0.000 C 
ENDBRANCH  17  19
ENDBRANCH  12  15
ENDBRANCH  11  12
ENDBRANCH  10  11
ENDBRANCH   5  10
BRANCH   2  25
ATOM     25  C   UNL     1      35.006 -24.422 -12.142  0.00  0.00    +0.068 C 
BRANCH  25  26
ATOM     26  C   UNL     1      36.412 -24.591 -11.550  0.00  0.00    +0.218 C 
BRANCH  26  27
ATOM     27  O   UNL     1      36.646 -25.976 -11.325  0.00  0.00    -0.342 OA
ATOM     28  C   UNL     1      37.358 -26.565 -12.403  0.00  0.00    +0.175 C 
ENDBRANCH  26  27
BRANCH  26  30
ATOM     29  O   UNL     1      36.085 -24.308  -9.156  0.00  0.00    -0.248 OA
ATOM     30  C   UNL     1      36.532 -23.885 -10.214  0.00  0.00    +0.342 C 
BRANCH  30  31
ATOM     31  O   UNL     1      37.219 -22.718 -10.311  0.00  0.00    -0.479 OA
ATOM     32  H   UNL     1      37.445 -22.376 -11.155  0.00  0.00    +0.295 HD
ENDBRANCH  30  31
ENDBRANCH  26  30
ENDBRANCH  25  26
ENDBRANCH   2  25
TORSDOF 10
ENDMDL
MODEL 2
REMARK VINA RESULT:     -10.9      6.148     12.230
REMARK  Name = 10274777
REMARK  10 active torsions:
REMARK  status: ('A' for Active; 'I' for Inactive)
REMARK    1  A    between atoms: C_2  and  C_25
REMARK    2  A    between atoms: C_5  and  O_10
REMARK    3  A    between atoms: O_10  and  C_11
REMARK    4  A    between atoms: C_11  and  C_12
REMARK    5  A    between atoms: C_12  and  C_15
REMARK    6  A    between atoms: C_17  and  C_19
REMARK    7  A    between atoms: C_25  and  C_26
REMARK    8  A    between atoms: C_26  and  O_27
REMARK    9  A    between atoms: C_26  and  C_30
REMARK   10  A    between atoms: C_30  and  O_31
REMARK                            x       y       z     vdW  Elec       q    Type
REMARK                         _______ _______ _______ _____ _____    ______ ____
ROOT
ATOM      1  S   UNL     1      32.662 -10.077 -23.203  0.00  0.00    -0.087 S 
ATOM      2  C   UNL     1      31.890 -11.394 -20.846  0.00  0.00    -0.013 C 
ATOM      3  C   UNL     1      32.506 -11.404 -22.113  0.00  0.00    +0.029 C 
ATOM      4  C   UNL     1      33.083 -12.564 -22.638  0.00  0.00    +0.040 C 
ATOM      5  C   UNL     1      33.036 -13.745 -21.859  0.00  0.00    +0.139 C 
ATOM      6  C   UNL     1      31.861 -12.576 -20.103  0.00  0.00    -0.001 C 
ATOM      7  C   UNL     1      32.427 -13.740 -20.602  0.00  0.00    +0.037 C 
ATOM      8  C   UNL     1      33.643 -12.323 -23.937  0.00  0.00    +0.010 C 
ATOM      9  C   UNL     1      33.484 -11.024 -24.358  0.00  0.00    +0.036 C 
ENDROOT
BRANCH   5  10
ATOM     10  O   UNL     1      33.585 -14.916 -22.318  0.00  0.00    -0.475 OA
BRANCH  10  11
ATOM     11  C   UNL     1      34.833 -15.299 -21.755  0.00  0.00    +0.213 C 
BRANCH  11  12
ATOM     12  C   UNL     1      35.496 -16.352 -22.640  0.00  0.00    +0.105 C 
BRANCH  12  15
ATOM     13  O   UNL     1      34.366 -19.806 -22.299  0.00  0.00    -0.449 OA
ATOM     14  N   UNL     1      35.299 -18.199 -21.009  0.00  0.00    -0.373 NA
ATOM     15  C   UNL     1      35.101 -17.753 -22.273  0.00  0.00    +0.134 C 
ATOM     16  C   UNL     1      34.544 -18.695 -23.068  0.00  0.00    +0.216 C 
ATOM     17  C   UNL     1      34.842 -19.430 -21.080  0.00  0.00    +0.277 C 
ATOM     18  C   UNL     1      34.119 -18.779 -24.469  0.00  0.00    +0.055 C 
BRANCH  17  19
ATOM     19  C   UNL     1      34.772 -20.437 -20.059  0.00  0.00    +0.066 C 
ATOM     20  C   UNL     1      35.942 -20.908 -19.454  0.00  0.00    +0.006 C 
ATOM     21  C   UNL     1      33.536 -20.955 -19.664  0.00  0.00    +0.006 C 
ATOM     22  C   UNL     1      35.876 -21.886 -18.463  0.00  0.00    +0.000 C 
ATOM     23  C   UNL     1      33.469 -21.934 -18.672  0.00  0.00    +0.000 C 
ATOM     24  C   UNL     1      34.638 -22.399 -18.072  0.00  0.00    +0.000 C 
ENDBRANCH  17  19
ENDBRANCH  12  15
ENDBRANCH  11  12
ENDBRANCH  10  11
ENDBRANCH   5  10
BRANCH   2  25
ATOM     25  C   UNL     1      31.266 -10.168 -20.259  0.00  0.00    +0.068 C 
BRANCH  25  26
ATOM     26  C   UNL     1      32.253  -9.358 -19.406  0.00  0.00    +0.218 C 
BRANCH  26  27
ATOM     27  O   UNL     1      31.713  -9.219 -18.097  0.00  0.00    -0.342 OA
ATOM     28  C   UNL     1      31.783 -10.440 -17.373  0.00  0.00    +0.175 C 
ENDBRANCH  26  27
BRANCH  26  30
ATOM     29  O   UNL     1      31.776  -7.471 -20.865  0.00  0.00    -0.248 OA
ATOM     30  C   UNL     1      32.448  -7.964 -19.969  0.00  0.00    +0.342 C 
BRANCH  30  31
ATOM     31  O   UNL     1      33.456  -7.298 -19.350  0.00  0.00    -0.479 OA
ATOM     32  H   UNL     1      33.457  -7.212 -18.416  0.00  0.00    +0.295 HD
ENDBRANCH  30  31
ENDBRANCH  26  30
ENDBRANCH  25  26
ENDBRANCH   2  25
TORSDOF 10
ENDMDL
MODEL 3
REMARK VINA RESULT:     -10.8      3.001      4.688
REMARK  Name = 10274777
REMARK  10 active torsions:
REMARK  status: ('A' for Active; 'I' for Inactive)
REMARK    1  A    between atoms: C_2  and  C_25
REMARK    2  A    between atoms: C_5  and  O_10
REMARK    3  A    between atoms: O_10  and  C_11
REMARK    4  A    between atoms: C_11  and  C_12
REMARK    5  A    between atoms: C_12  and  C_15
REMARK    6  A    between atoms: C_17  and  C_19
REMARK    7  A    between atoms: C_25  and  C_26
REMARK    8  A    between atoms: C_26  and  O_27
REMARK    9  A    between atoms: C_26  and  C_30
REMARK   10  A    between atoms: C_30  and  O_31
REMARK                            x       y       z     vdW  Elec       q    Type
REMARK                         _______ _______ _______ _____ _____    ______ ____
ROOT
ATOM      1  S   UNL     1      35.901 -23.140 -14.946  0.00  0.00    -0.087 S 
ATOM      2  C   UNL     1      33.676 -23.034 -16.656  0.00  0.00    -0.013 C 
ATOM      3  C   UNL     1      35.026 -22.744 -16.378  0.00  0.00    +0.029 C 
ATOM      4  C   UNL     1      35.833 -22.065 -17.295  0.00  0.00    +0.040 C 
ATOM      5  C   UNL     1      35.258 -21.669 -18.527  0.00  0.00    +0.139 C 
ATOM      6  C   UNL     1      33.139 -22.631 -17.880  0.00  0.00    -0.001 C 
ATOM      7  C   UNL     1      33.919 -21.955 -18.807  0.00  0.00    +0.037 C 
ATOM      8  C   UNL     1      37.163 -21.888 -16.786  0.00  0.00    +0.010 C 
ATOM      9  C   UNL     1      37.331 -22.421 -15.530  0.00  0.00    +0.036 C 
ENDROOT
BRANCH   5  10
ATOM     10  O   UNL     1      35.997 -20.999 -19.469  0.00  0.00    -0.475 OA
BRANCH  10  11
ATOM     11  C   UNL     1      35.277 -20.175 -20.377  0.00  0.00    +0.213 C 
BRANCH  11  12
ATOM     12  C   UNL     1      36.208 -19.117 -20.962  0.00  0.00    +0.105 C 
BRANCH  12  15
ATOM     13  O   UNL     1      34.517 -17.512 -23.771  0.00  0.00    -0.449 OA
ATOM     14  N   UNL     1      35.397 -16.926 -21.771  0.00  0.00    -0.373 NA
ATOM     15  C   UNL     1      35.537 -18.255 -21.993  0.00  0.00    +0.134 C 
ATOM     16  C   UNL     1      35.018 -18.634 -23.183  0.00  0.00    +0.216 C 
ATOM     17  C   UNL     1      34.781 -16.531 -22.863  0.00  0.00    +0.277 C 
ATOM     18  C   UNL     1      34.887 -19.892 -23.926  0.00  0.00    +0.055 C 
BRANCH  17  19
ATOM     19  C   UNL     1      34.347 -15.215 -23.241  0.00  0.00    +0.066 C 
ATOM     20  C   UNL     1      34.545 -14.135 -22.375  0.00  0.00    +0.006 C 
ATOM     21  C   UNL     1      33.724 -15.007 -24.474  0.00  0.00    +0.006 C 
ATOM     22  C   UNL     1      34.123 -12.857 -22.741  0.00  0.00    +0.000 C 
ATOM     23  C   UNL     1      33.302 -13.728 -24.839  0.00  0.00    +0.000 C 
ATOM     24  C   UNL     1      33.501 -12.653 -23.973  0.00  0.00    +0.000 C 
ENDBRANCH  17  19
ENDBRANCH  12  15
ENDBRANCH  11  12
ENDBRANCH  10  11
ENDBRANCH   5  10
BRANCH   2  25
ATOM     25  C   UNL     1      32.790 -23.761 -15.695  0.00  0.00    +0.068 C 
BRANCH  25  26
ATOM     26  C   UNL     1      31.624 -22.893 -15.200  0.00  0.00    +0.218 C 
BRANCH  26  27
ATOM     27  O   UNL     1      31.564 -22.981 -13.781  0.00  0.00    -0.342 OA
ATOM     28  C   UNL     1      32.495 -23.929 -13.278  0.00  0.00    +0.175 C 
ENDBRANCH  26  27
BRANCH  26  30
ATOM     29  O   UNL     1      29.789 -24.468 -15.463  0.00  0.00    -0.248 OA
ATOM     30  C   UNL     1      30.300 -23.392 -15.744  0.00  0.00    +0.342 C 
BRANCH  30  31
ATOM     31  O   UNL     1      29.718 -22.493 -16.579  0.00  0.00    -0.479 OA
ATOM     32  H   UNL     1      30.247 -21.867 -17.036  0.00  0.00    +0.295 HD
ENDBRANCH  30  31
ENDBRANCH  26  30
ENDBRANCH  25  26
ENDBRANCH   2  25
TORSDOF 10
ENDMDL
MODEL 4
REMARK VINA RESULT:     -10.8      7.437     11.386
REMARK  Name = 10274777
REMARK  10 active torsions:
REMARK  status: ('A' for Active; 'I' for Inactive)
REMARK    1  A    between atoms: C_2  and  C_25
REMARK    2  A    between atoms: C_5  and  O_10
REMARK    3  A    between atoms: O_10  and  C_11
REMARK    4  A    between atoms: C_11  and  C_12
REMARK    5  A    between atoms: C_12  and  C_15
REMARK    6  A    between atoms: C_17  and  C_19
REMARK    7  A    between atoms: C_25  and  C_26
REMARK    8  A    between atoms: C_26  and  O_27
REMARK    9  A    between atoms: C_26  and  C_30
REMARK   10  A    between atoms: C_30  and  O_31
REMARK                            x       y       z     vdW  Elec       q    Type
REMARK                         _______ _______ _______ _____ _____    ______ ____
ROOT
ATOM      1  S   UNL     1      34.263 -16.031 -24.690  0.00  0.00    -0.087 S 
ATOM      2  C   UNL     1      34.930 -16.085 -21.962  0.00  0.00    -0.013 C 
ATOM      3  C   UNL     1      34.310 -15.462 -23.063  0.00  0.00    +0.029 C 
ATOM      4  C   UNL     1      33.632 -14.247 -22.929  0.00  0.00    +0.040 C 
ATOM      5  C   UNL     1      33.580 -13.648 -21.647  0.00  0.00    +0.139 C 
ATOM      6  C   UNL     1      34.861 -15.469 -20.711  0.00  0.00    -0.001 C 
ATOM      7  C   UNL     1      34.194 -14.263 -20.553  0.00  0.00    +0.037 C 
ATOM      8  C   UNL     1      33.087 -13.815 -24.185  0.00  0.00    +0.010 C 
ATOM      9  C   UNL     1      33.357 -14.686 -25.213  0.00  0.00    +0.036 C 
ENDROOT
BRANCH   5  10
ATOM     10  O   UNL     1      32.929 -12.455 -21.450  0.00  0.00    -0.475 OA
BRANCH  10  11
ATOM     11  C   UNL     1      31.672 -12.517 -20.790  0.00  0.00    +0.213 C 
BRANCH  11  12
ATOM     12  C   UNL     1      30.816 -11.322 -21.201  0.00  0.00    +0.105 C 
BRANCH  12  15
ATOM     13  O   UNL     1      32.656  -8.182 -20.918  0.00  0.00    -0.449 OA
ATOM     14  N   UNL     1      32.085  -9.666 -22.527  0.00  0.00    -0.373 NA
ATOM     15  C   UNL     1      31.607 -10.051 -21.319  0.00  0.00    +0.134 C 
ATOM     16  C   UNL     1      31.935  -9.181 -20.337  0.00  0.00    +0.216 C 
ATOM     17  C   UNL     1      32.703  -8.544 -22.230  0.00  0.00    +0.277 C 
ATOM     18  C   UNL     1      31.702  -9.081 -18.892  0.00  0.00    +0.055 C 
BRANCH  17  19
ATOM     19  C   UNL     1      33.421  -7.644 -23.088  0.00  0.00    +0.066 C 
ATOM     20  C   UNL     1      34.784  -7.412 -22.880  0.00  0.00    +0.006 C 
ATOM     21  C   UNL     1      32.763  -6.994 -24.135  0.00  0.00    +0.006 C 
ATOM     22  C   UNL     1      35.483  -6.537 -23.712  0.00  0.00    +0.000 C 
ATOM     23  C   UNL     1      33.462  -6.119 -24.968  0.00  0.00    +0.000 C 
ATOM     24  C   UNL     1      34.821  -5.890 -24.756  0.00  0.00    +0.000 C 
ENDBRANCH  17  19
ENDBRANCH  12  15
ENDBRANCH  11  12
ENDBRANCH  10  11
ENDBRANCH   5  10
BRANCH   2  25
ATOM     25  C   UNL     1      35.661 -17.386 -22.075  0.00  0.00    +0.068 C 
BRANCH  25  26
ATOM     26  C   UNL     1      35.436 -18.293 -20.858  0.00  0.00    +0.218 C 
BRANCH  26  27
ATOM     27  O   UNL     1      36.704 -18.698 -20.353  0.00  0.00    -0.342 OA
ATOM     28  C   UNL     1      37.676 -18.770 -21.387  0.00  0.00    +0.175 C 
ENDBRANCH  26  27
BRANCH  26  30
ATOM     29  O   UNL     1      34.208 -20.353 -20.448  0.00  0.00    -0.248 OA
ATOM     30  C   UNL     1      34.676 -19.547 -21.241  0.00  0.00    +0.342 C 
BRANCH  30  31
ATOM     31  O   UNL     1      34.551 -19.678 -22.587  0.00  0.00    -0.479 OA
ATOM     32  H   UNL     1      34.941 -20.410 -23.025  0.00  0.00    +0.295 HD
ENDBRANCH  30  31
ENDBRANCH  26  30
ENDBRANCH  25  26
ENDBRANCH   2  25
TORSDOF 10
ENDMDL
MODEL 5
REMARK VINA RESULT:     -10.7      6.179     13.200
REMARK  Name = 10274777
REMARK  10 active torsions:
REMARK  status: ('A' for Active; 'I' for Inactive)
REMARK    1  A    between atoms: C_2  and  C_25
REMARK    2  A    between atoms: C_5  and  O_10
REMARK    3  A    between atoms: O_10  and  C_11
REMARK    4  A    between atoms: C_11  and  C_12
REMARK    5  A    between atoms: C_12  and  C_15
REMARK    6  A    between atoms: C_17  and  C_19
REMARK    7  A    between atoms: C_25  and  C_26
REMARK    8  A    between atoms: C_26  and  O_27
REMARK    9  A    between atoms: C_26  and  C_30
REMARK   10  A    between atoms: C_30  and  O_31
REMARK                            x       y       z     vdW  Elec       q    Type
REMARK                         _______ _______ _______ _____ _____    ______ ____
ROOT
ATOM      1  S   UNL     1      31.608 -10.139 -20.797  0.00  0.00    -0.087 S 
ATOM      2  C   UNL     1      33.033 -10.518 -23.187  0.00  0.00    -0.013 C 
ATOM      3  C   UNL     1      32.475 -11.023 -21.997  0.00  0.00    +0.029 C 
ATOM      4  C   UNL     1      32.580 -12.375 -21.656  0.00  0.00    +0.040 C 
ATOM      5  C   UNL     1      33.267 -13.237 -22.544  0.00  0.00    +0.139 C 
ATOM      6  C   UNL     1      33.704 -11.394 -24.042  0.00  0.00    -0.001 C 
ATOM      7  C   UNL     1      33.821 -12.740 -23.726  0.00  0.00    +0.037 C 
ATOM      8  C   UNL     1      31.936 -12.646 -20.402  0.00  0.00    +0.010 C 
ATOM      9  C   UNL     1      31.373 -11.526 -19.836  0.00  0.00    +0.036 C 
ENDROOT
BRANCH   5  10
ATOM     10  O   UNL     1      33.404 -14.575 -22.266  0.00  0.00    -0.475 OA
BRANCH  10  11
ATOM     11  C   UNL     1      34.626 -14.978 -21.662  0.00  0.00    +0.213 C 
BRANCH  11  12
ATOM     12  C   UNL     1      35.369 -15.933 -22.592  0.00  0.00    +0.105 C 
BRANCH  12  15
ATOM     13  O   UNL     1      34.502 -19.475 -22.438  0.00  0.00    -0.449 OA
ATOM     14  N   UNL     1      35.289 -17.867 -21.055  0.00  0.00    -0.373 NA
ATOM     15  C   UNL     1      35.077 -17.376 -22.300  0.00  0.00    +0.134 C 
ATOM     16  C   UNL     1      34.607 -18.318 -23.149  0.00  0.00    +0.216 C 
ATOM     17  C   UNL     1      34.929 -19.124 -21.193  0.00  0.00    +0.277 C 
ATOM     18  C   UNL     1      34.212 -18.365 -24.561  0.00  0.00    +0.055 C 
BRANCH  17  19
ATOM     19  C   UNL     1      34.920 -20.182 -20.222  0.00  0.00    +0.066 C 
ATOM     20  C   UNL     1      33.711 -20.759 -19.823  0.00  0.00    +0.006 C 
ATOM     21  C   UNL     1      36.119 -20.641 -19.670  0.00  0.00    +0.006 C 
ATOM     22  C   UNL     1      33.701 -21.787 -18.880  0.00  0.00    +0.000 C 
ATOM     23  C   UNL     1      36.109 -21.669 -18.726  0.00  0.00    +0.000 C 
ATOM     24  C   UNL     1      34.901 -22.242 -18.331  0.00  0.00    +0.000 C 
ENDBRANCH  17  19
ENDBRANCH  12  15
ENDBRANCH  11  12
ENDBRANCH  10  11
ENDBRANCH   5  10
BRANCH   2  25
ATOM     25  C   UNL     1      32.935  -9.078 -23.579  0.00  0.00    +0.068 C 
BRANCH  25  26
ATOM     26  C   UNL     1      33.743  -8.160 -22.650  0.00  0.00    +0.218 C 
BRANCH  26  27
ATOM     27  O   UNL     1      32.993  -6.972 -22.423  0.00  0.00    -0.342 OA
ATOM     28  C   UNL     1      31.777  -6.975 -23.158  0.00  0.00    +0.175 C 
ENDBRANCH  26  27
BRANCH  26  30
ATOM     29  O   UNL     1      35.406  -6.601 -23.497  0.00  0.00    -0.248 OA
ATOM     30  C   UNL     1      35.057  -7.755 -23.286  0.00  0.00    +0.342 C 
BRANCH  30  31
ATOM     31  O   UNL     1      35.832  -8.828 -23.589  0.00  0.00    -0.479 OA
ATOM     32  H   UNL     1      35.459  -9.565 -24.033  0.00  0.00    +0.295 HD
ENDBRANCH  30  31
ENDBRANCH  26  30
ENDBRANCH  25  26
ENDBRANCH   2  25
TORSDOF 10
ENDMDL
MODEL 6
REMARK VINA RESULT:     -10.4      3.370      5.195
REMARK  Name = 10274777
REMARK  10 active torsions:
REMARK  status: ('A' for Active; 'I' for Inactive)
REMARK    1  A    between atoms: C_2  and  C_25
REMARK    2  A    between atoms: C_5  and  O_10
REMARK    3  A    between atoms: O_10  and  C_11
REMARK    4  A    between atoms: C_11  and  C_12
REMARK    5  A    between atoms: C_12  and  C_15
REMARK    6  A    between atoms: C_17  and  C_19
REMARK    7  A    between atoms: C_25  and  C_26
REMARK    8  A    between atoms: C_26  and  O_27
REMARK    9  A    between atoms: C_26  and  C_30
REMARK   10  A    between atoms: C_30  and  O_31
REMARK                            x       y       z     vdW  Elec       q    Type
REMARK                         _______ _______ _______ _____ _____    ______ ____
ROOT
ATOM      1  S   UNL     1      37.944 -23.199 -15.032  0.00  0.00    -0.087 S 
ATOM      2  C   UNL     1      37.116 -24.782 -12.866  0.00  0.00    -0.013 C 
ATOM      3  C   UNL     1      36.842 -23.828 -13.865  0.00  0.00    +0.029 C 
ATOM      4  C   UNL     1      35.570 -23.266 -14.011  0.00  0.00    +0.040 C 
ATOM      5  C   UNL     1      34.549 -23.683 -13.123  0.00  0.00    +0.139 C 
ATOM      6  C   UNL     1      36.087 -25.172 -12.006  0.00  0.00    -0.001 C 
ATOM      7  C   UNL     1      34.816 -24.629 -12.131  0.00  0.00    +0.037 C 
ATOM      8  C   UNL     1      35.540 -22.323 -15.093  0.00  0.00    +0.010 C 
ATOM      9  C   UNL     1      36.755 -22.194 -15.724  0.00  0.00    +0.036 C 
ENDROOT
BRANCH   5  10
ATOM     10  O   UNL     1      33.280 -23.168 -13.215  0.00  0.00    -0.475 OA
BRANCH  10  11
ATOM     11  C   UNL     1      32.214 -24.108 -13.266  0.00  0.00    +0.213 C 
BRANCH  11  12
ATOM     12  C   UNL     1      32.158 -24.750 -14.649  0.00  0.00    +0.105 C 
BRANCH  12  15
ATOM     13  O   UNL     1      31.421 -22.223 -17.180  0.00  0.00    -0.449 OA
ATOM     14  N   UNL     1      33.175 -23.489 -16.518  0.00  0.00    -0.373 NA
ATOM     15  C   UNL     1      32.081 -23.739 -15.758  0.00  0.00    +0.134 C 
ATOM     16  C   UNL     1      31.016 -22.994 -16.132  0.00  0.00    +0.216 C 
ATOM     17  C   UNL     1      32.725 -22.577 -17.350  0.00  0.00    +0.277 C 
ATOM     18  C   UNL     1      29.625 -22.845 -15.692  0.00  0.00    +0.055 C 
BRANCH  17  19
ATOM     19  C   UNL     1      33.409 -21.898 -18.416  0.00  0.00    +0.066 C 
ATOM     20  C   UNL     1      34.764 -22.147 -18.652  0.00  0.00    +0.006 C 
ATOM     21  C   UNL     1      32.724 -20.985 -19.222  0.00  0.00    +0.006 C 
ATOM     22  C   UNL     1      35.429 -21.488 -19.686  0.00  0.00    +0.000 C 
ATOM     23  C   UNL     1      33.389 -20.326 -20.257  0.00  0.00    +0.000 C 
ATOM     24  C   UNL     1      34.741 -20.577 -20.488  0.00  0.00    +0.000 C 
ENDBRANCH  17  19
ENDBRANCH  12  15
ENDBRANCH  11  12
ENDBRANCH  10  11
ENDBRANCH   5  10
BRANCH   2  25
ATOM     25  C   UNL     1      38.466 -25.402 -12.686  0.00  0.00    +0.068 C 
BRANCH  25  26
ATOM     26  C   UNL     1      39.047 -25.936 -14.003  0.00  0.00    +0.218 C 
BRANCH  26  27
ATOM     27  O   UNL     1      38.579 -27.266 -14.198  0.00  0.00    -0.342 OA
ATOM     28  C   UNL     1      37.346 -27.286 -14.903  0.00  0.00    +0.175 C 
ENDBRANCH  26  27
BRANCH  26  30
ATOM     29  O   UNL     1      41.217 -26.973 -13.644  0.00  0.00    -0.248 OA
ATOM     30  C   UNL     1      40.561 -25.988 -13.954  0.00  0.00    +0.342 C 
BRANCH  30  31
ATOM     31  O   UNL     1      41.125 -24.806 -14.314  0.00  0.00    -0.479 OA
ATOM     32  H   UNL     1      41.418 -24.677 -15.196  0.00  0.00    +0.295 HD
ENDBRANCH  30  31
ENDBRANCH  26  30
ENDBRANCH  25  26
ENDBRANCH   2  25
TORSDOF 10
ENDMDL
MODEL 7
REMARK VINA RESULT:     -10.3      2.605      4.391
REMARK  Name = 10274777
REMARK  10 active torsions:
REMARK  status: ('A' for Active; 'I' for Inactive)
REMARK    1  A    between atoms: C_2  and  C_25
REMARK    2  A    between atoms: C_5  and  O_10
REMARK    3  A    between atoms: O_10  and  C_11
REMARK    4  A    between atoms: C_11  and  C_12
REMARK    5  A    between atoms: C_12  and  C_15
REMARK    6  A    between atoms: C_17  and  C_19
REMARK    7  A    between atoms: C_25  and  C_26
REMARK    8  A    between atoms: C_26  and  O_27
REMARK    9  A    between atoms: C_26  and  C_30
REMARK   10  A    between atoms: C_30  and  O_31
REMARK                            x       y       z     vdW  Elec       q    Type
REMARK                         _______ _______ _______ _____ _____    ______ ____
ROOT
ATOM      1  S   UNL     1      33.552 -23.889 -12.957  0.00  0.00    -0.087 S 
ATOM      2  C   UNL     1      31.978 -23.068 -15.133  0.00  0.00    -0.013 C 
ATOM      3  C   UNL     1      33.230 -23.397 -14.578  0.00  0.00    +0.029 C 
ATOM      4  C   UNL     1      34.402 -23.350 -15.337  0.00  0.00    +0.040 C 
ATOM      5  C   UNL     1      34.304 -22.961 -16.695  0.00  0.00    +0.139 C 
ATOM      6  C   UNL     1      31.915 -22.689 -16.475  0.00  0.00    -0.001 C 
ATOM      7  C   UNL     1      33.064 -22.635 -17.250  0.00  0.00    +0.037 C 
ATOM      8  C   UNL     1      35.545 -23.725 -14.554  0.00  0.00    +0.010 C 
ATOM      9  C   UNL     1      35.223 -24.039 -13.254  0.00  0.00    +0.036 C 
ENDROOT
BRANCH   5  10
ATOM     10  O   UNL     1      35.419 -22.896 -17.494  0.00  0.00    -0.475 OA
BRANCH  10  11
ATOM     11  C   UNL     1      35.999 -21.610 -17.674  0.00  0.00    +0.213 C 
BRANCH  11  12
ATOM     12  C   UNL     1      36.449 -21.447 -19.123  0.00  0.00    +0.105 C 
BRANCH  12  15
ATOM     13  O   UNL     1      33.930 -19.467 -20.872  0.00  0.00    -0.449 OA
ATOM     14  N   UNL     1      36.151 -19.380 -20.447  0.00  0.00    -0.373 NA
ATOM     15  C   UNL     1      35.592 -20.485 -19.895  0.00  0.00    +0.134 C 
ATOM     16  C   UNL     1      34.263 -20.562 -20.133  0.00  0.00    +0.216 C 
ATOM     17  C   UNL     1      35.114 -18.809 -21.018  0.00  0.00    +0.277 C 
ATOM     18  C   UNL     1      33.182 -21.495 -19.799  0.00  0.00    +0.055 C 
BRANCH  17  19
ATOM     19  C   UNL     1      35.047 -17.590 -21.775  0.00  0.00    +0.066 C 
ATOM     20  C   UNL     1      34.943 -16.360 -21.118  0.00  0.00    +0.006 C 
ATOM     21  C   UNL     1      35.084 -17.625 -23.171  0.00  0.00    +0.006 C 
ATOM     22  C   UNL     1      34.877 -15.175 -21.851  0.00  0.00    +0.000 C 
ATOM     23  C   UNL     1      35.018 -16.440 -23.905  0.00  0.00    +0.000 C 
ATOM     24  C   UNL     1      34.914 -15.216 -23.246  0.00  0.00    +0.000 C 
ENDBRANCH  17  19
ENDBRANCH  12  15
ENDBRANCH  11  12
ENDBRANCH  10  11
ENDBRANCH   5  10
BRANCH   2  25
ATOM     25  C   UNL     1      30.707 -23.111 -14.345  0.00  0.00    +0.068 C 
BRANCH  25  26
ATOM     26  C   UNL     1      29.650 -24.023 -14.984  0.00  0.00    +0.218 C 
BRANCH  26  27
ATOM     27  O   UNL     1      28.368 -23.439 -14.786  0.00  0.00    -0.342 OA
ATOM     28  C   UNL     1      27.906 -22.786 -15.960  0.00  0.00    +0.175 C 
ENDBRANCH  26  27
BRANCH  26  30
ATOM     29  O   UNL     1      30.613 -26.113 -14.196  0.00  0.00    -0.248 OA
ATOM     30  C   UNL     1      29.635 -25.389 -14.327  0.00  0.00    +0.342 C 
BRANCH  30  31
ATOM     31  O   UNL     1      28.400 -25.725 -13.873  0.00  0.00    -0.479 OA
ATOM     32  H   UNL     1      28.284 -26.507 -13.367  0.00  0.00    +0.295 HD
ENDBRANCH  30  31
ENDBRANCH  26  30
ENDBRANCH  25  26
ENDBRANCH   2  25
TORSDOF 10
ENDMDL
MODEL 8
REMARK VINA RESULT:     -10.2      6.772     13.713
REMARK  Name = 10274777
REMARK  10 active torsions:
REMARK  status: ('A' for Active; 'I' for Inactive)
REMARK    1  A    between atoms: C_2  and  C_25
REMARK    2  A    between atoms: C_5  and  O_10
REMARK    3  A    between atoms: O_10  and  C_11
REMARK    4  A    between atoms: C_11  and  C_12
REMARK    5  A    between atoms: C_12  and  C_15
REMARK    6  A    between atoms: C_17  and  C_19
REMARK    7  A    between atoms: C_25  and  C_26
REMARK    8  A    between atoms: C_26  and  O_27
REMARK    9  A    between atoms: C_26  and  C_30
REMARK   10  A    between atoms: C_30  and  O_31
REMARK                            x       y       z     vdW  Elec       q    Type
REMARK                         _______ _______ _______ _____ _____    ______ ____
ROOT
ATOM      1  S   UNL     1      31.583  -8.998 -19.395  0.00  0.00    -0.087 S 
ATOM      2  C   UNL     1      32.183  -9.235 -22.128  0.00  0.00    -0.013 C 
ATOM      3  C   UNL     1      32.006  -9.811 -20.855  0.00  0.00    +0.029 C 
ATOM      4  C   UNL     1      32.168 -11.183 -20.644  0.00  0.00    +0.040 C 
ATOM      5  C   UNL     1      32.518 -11.993 -21.752  0.00  0.00    +0.139 C 
ATOM      6  C   UNL     1      32.528 -10.061 -23.200  0.00  0.00    -0.001 C 
ATOM      7  C   UNL     1      32.695 -11.426 -23.016  0.00  0.00    +0.037 C 
ATOM      8  C   UNL     1      31.937 -11.529 -19.271  0.00  0.00    +0.010 C 
ATOM      9  C   UNL     1      31.614 -10.443 -18.492  0.00  0.00    +0.036 C 
ENDROOT
BRANCH   5  10
ATOM     10  O   UNL     1      32.692 -13.348 -21.610  0.00  0.00    -0.475 OA
BRANCH  10  11
ATOM     11  C   UNL     1      33.498 -13.993 -22.587  0.00  0.00    +0.213 C 
BRANCH  11  12
ATOM     12  C   UNL     1      34.775 -14.517 -21.937  0.00  0.00    +0.105 C 
BRANCH  12  15
ATOM     13  O   UNL     1      35.054 -18.075 -22.702  0.00  0.00    -0.449 OA
ATOM     14  N   UNL     1      34.990 -16.740 -20.877  0.00  0.00    -0.373 NA
ATOM     15  C   UNL     1      34.898 -16.012 -22.016  0.00  0.00    +0.134 C 
ATOM     16  C   UNL     1      34.935 -16.786 -23.124  0.00  0.00    +0.216 C 
ATOM     17  C   UNL     1      35.081 -17.965 -21.345  0.00  0.00    +0.277 C 
ATOM     18  C   UNL     1      34.877 -16.560 -24.572  0.00  0.00    +0.055 C 
BRANCH  17  19
ATOM     19  C   UNL     1      35.204 -19.207 -20.633  0.00  0.00    +0.066 C 
ATOM     20  C   UNL     1      34.062 -19.946 -20.307  0.00  0.00    +0.006 C 
ATOM     21  C   UNL     1      36.464 -19.683 -20.261  0.00  0.00    +0.006 C 
ATOM     22  C   UNL     1      34.181 -21.151 -19.616  0.00  0.00    +0.000 C 
ATOM     23  C   UNL     1      36.582 -20.889 -19.569  0.00  0.00    +0.000 C 
ATOM     24  C   UNL     1      35.441 -21.623 -19.246  0.00  0.00    +0.000 C 
ENDBRANCH  17  19
ENDBRANCH  12  15
ENDBRANCH  11  12
ENDBRANCH  10  11
ENDBRANCH   5  10
BRANCH   2  25
ATOM     25  C   UNL     1      32.015  -7.771 -22.384  0.00  0.00    +0.068 C 
BRANCH  25  26
ATOM     26  C   UNL     1      33.205  -6.945 -21.875  0.00  0.00    +0.218 C 
BRANCH  26  27
ATOM     27  O   UNL     1      32.717  -5.702 -21.383  0.00  0.00    -0.342 OA
ATOM     28  C   UNL     1      31.313  -5.587 -21.560  0.00  0.00    +0.175 C 
ENDBRANCH  26  27
BRANCH  26  30
ATOM     29  O   UNL     1      33.965  -5.868 -23.919  0.00  0.00    -0.248 OA
ATOM     30  C   UNL     1      34.180  -6.640 -22.995  0.00  0.00    +0.342 C 
BRANCH  30  31
ATOM     31  O   UNL     1      35.350  -7.316 -22.853  0.00  0.00    -0.479 OA
ATOM     32  H   UNL     1      35.682  -7.832 -23.562  0.00  0.00    +0.295 HD
ENDBRANCH  30  31
ENDBRANCH  26  30
ENDBRANCH  25  26
ENDBRANCH   2  25
TORSDOF 10
ENDMDL
MODEL 9
REMARK VINA RESULT:     -10.1      2.824      9.560
REMARK  Name = 10274777
REMARK  10 active torsions:
REMARK  status: ('A' for Active; 'I' for Inactive)
REMARK    1  A    between atoms: C_2  and  C_25
REMARK    2  A    between atoms: C_5  and  O_10
REMARK    3  A    between atoms: O_10  and  C_11
REMARK    4  A    between atoms: C_11  and  C_12
REMARK    5  A    between atoms: C_12  and  C_15
REMARK    6  A    between atoms: C_17  and  C_19
REMARK    7  A    between atoms: C_25  and  C_26
REMARK    8  A    between atoms: C_26  and  O_27
REMARK    9  A    between atoms: C_26  and  C_30
REMARK   10  A    between atoms: C_30  and  O_31
REMARK                            x       y       z     vdW  Elec       q    Type
REMARK                         _______ _______ _______ _____ _____    ______ ____
ROOT
ATOM      1  S   UNL     1      32.952 -20.177 -20.668  0.00  0.00    -0.087 S 
ATOM      2  C   UNL     1      35.590 -19.281 -21.020  0.00  0.00    -0.013 C 
ATOM      3  C   UNL     1      34.647 -20.099 -20.366  0.00  0.00    +0.029 C 
ATOM      4  C   UNL     1      35.024 -20.978 -19.348  0.00  0.00    +0.040 C 
ATOM      5  C   UNL     1      36.390 -21.032 -18.981  0.00  0.00    +0.139 C 
ATOM      6  C   UNL     1      36.930 -19.357 -20.635  0.00  0.00    -0.001 C 
ATOM      7  C   UNL     1      37.328 -20.222 -19.626  0.00  0.00    +0.037 C 
ATOM      8  C   UNL     1      33.892 -21.699 -18.839  0.00  0.00    +0.010 C 
ATOM      9  C   UNL     1      32.716 -21.361 -19.465  0.00  0.00    +0.036 C 
ENDROOT
BRANCH   5  10
ATOM     10  O   UNL     1      36.823 -21.875 -17.988  0.00  0.00    -0.475 OA
BRANCH  10  11
ATOM     11  C   UNL     1      37.093 -21.285 -16.723  0.00  0.00    +0.213 C 
BRANCH  11  12
ATOM     12  C   UNL     1      37.375 -22.377 -15.695  0.00  0.00    +0.105 C 
BRANCH  12  15
ATOM     13  O   UNL     1      34.728 -24.611 -14.541  0.00  0.00    -0.449 OA
ATOM     14  N   UNL     1      34.923 -22.534 -15.417  0.00  0.00    -0.373 NA
ATOM     15  C   UNL     1      36.137 -23.120 -15.280  0.00  0.00    +0.134 C 
ATOM     16  C   UNL     1      36.050 -24.365 -14.758  0.00  0.00    +0.216 C 
ATOM     17  C   UNL     1      34.118 -23.467 -14.960  0.00  0.00    +0.277 C 
ATOM     18  C   UNL     1      36.994 -25.429 -14.401  0.00  0.00    +0.055 C 
BRANCH  17  19
ATOM     19  C   UNL     1      32.687 -23.458 -14.839  0.00  0.00    +0.066 C 
ATOM     20  C   UNL     1      31.894 -23.033 -15.910  0.00  0.00    +0.006 C 
ATOM     21  C   UNL     1      32.078 -23.873 -13.652  0.00  0.00    +0.006 C 
ATOM     22  C   UNL     1      30.504 -23.023 -15.793  0.00  0.00    +0.000 C 
ATOM     23  C   UNL     1      30.688 -23.863 -13.536  0.00  0.00    +0.000 C 
ATOM     24  C   UNL     1      29.901 -23.438 -14.606  0.00  0.00    +0.000 C 
ENDBRANCH  17  19
ENDBRANCH  12  15
ENDBRANCH  11  12
ENDBRANCH  10  11
ENDBRANCH   5  10
BRANCH   2  25
ATOM     25  C   UNL     1      35.217 -18.331 -22.114  0.00  0.00    +0.068 C 
BRANCH  25  26
ATOM     26  C   UNL     1      35.419 -16.863 -21.713  0.00  0.00    +0.218 C 
BRANCH  26  27
ATOM     27  O   UNL     1      34.597 -16.584 -20.585  0.00  0.00    -0.342 OA
ATOM     28  C   UNL     1      34.697 -15.223 -20.192  0.00  0.00    +0.175 C 
ENDBRANCH  26  27
BRANCH  26  30
ATOM     29  O   UNL     1      35.172 -14.716 -22.828  0.00  0.00    -0.248 OA
ATOM     30  C   UNL     1      34.996 -15.927 -22.827  0.00  0.00    +0.342 C 
BRANCH  30  31
ATOM     31  O   UNL     1      34.405 -16.588 -23.855  0.00  0.00    -0.479 OA
ATOM     32  H   UNL     1      34.335 -16.179 -24.696  0.00  0.00    +0.295 HD
ENDBRANCH  30  31
ENDBRANCH  26  30
ENDBRANCH  25  26
ENDBRANCH   2  25
TORSDOF 10
ENDMDL
