MODEL 1
REMARK VINA RESULT:     -11.0      0.000      0.000
REMARK  Name = 9547915
REMARK  9 active torsions:
REMARK  status: ('A' for Active; 'I' for Inactive)
REMARK    1  A    between atoms: C_1  and  C_4
REMARK    2  A    between atoms: C_1  and  N_8
REMARK    3  A    between atoms: C_1  and  C_24
REMARK    4  A    between atoms: C_9  and  C_11
REMARK    5  A    between atoms: C_11  and  N_13
REMARK    6  A    between atoms: C_11  and  C_17
REMARK    7  A    between atoms: C_17  and  C_18
REMARK    8  A    between atoms: C_24  and  C_28
REMARK    9  A    between atoms: C_25  and  C_36
REMARK                            x       y       z     vdW  Elec       q    Type
REMARK                         _______ _______ _______ _____ _____    ______ ____
ROOT
ATOM      1  C   UNL     1      33.917 -22.648 -16.643  0.00  0.00    +0.153 C 
ENDROOT
BRANCH   1   4
ATOM      2  O   UNL     1      31.531 -22.947 -16.998  0.00  0.00    -0.274 OA
ATOM      3  N   UNL     1      32.499 -23.929 -15.162  0.00  0.00    -0.327 N 
ATOM      4  C   UNL     1      32.523 -23.159 -16.305  0.00  0.00    +0.238 C 
ATOM      5  H   UNL     1      31.650 -24.315 -14.845  0.00  0.00    +0.145 HD
ATOM      6  H   UNL     1      33.331 -24.095 -14.662  0.00  0.00    +0.145 HD
ENDBRANCH   1   4
BRANCH   1   8
ATOM      7  O   UNL     1      36.806 -22.512 -16.643  0.00  0.00    -0.273 OA
ATOM      8  N   UNL     1      34.817 -23.180 -15.647  0.00  0.00    -0.297 N 
ATOM      9  C   UNL     1      36.199 -23.067 -15.730  0.00  0.00    +0.241 C 
ATOM     10  H   UNL     1      34.433 -23.646 -14.869  0.00  0.00    +0.150 HD
BRANCH   9  11
ATOM     11  C   UNL     1      36.899 -23.768 -14.572  0.00  0.00    +0.153 C 
BRANCH  11  13
ATOM     12  O   UNL     1      38.645 -25.736 -13.344  0.00  0.00    -0.275 OA
ATOM     13  N   UNL     1      38.168 -24.242 -15.066  0.00  0.00    -0.298 N 
ATOM     14  C   UNL     1      38.935 -25.190 -14.405  0.00  0.00    +0.223 C 
ATOM     15  C   UNL     1      40.200 -25.524 -15.151  0.00  0.00    +0.095 C 
ATOM     16  H   UNL     1      38.507 -23.874 -15.913  0.00  0.00    +0.150 HD
ENDBRANCH  11  13
BRANCH  11  17
ATOM     17  C   UNL     1      37.062 -22.807 -13.388  0.00  0.00    +0.055 C 
BRANCH  17  18
ATOM     18  C   UNL     1      36.576 -23.398 -12.087  0.00  0.00    -0.020 C 
ATOM     19  C   UNL     1      35.607 -24.389 -12.110  0.00  0.00    -0.004 C 
ATOM     20  C   UNL     1      37.107 -22.939 -10.891  0.00  0.00    -0.004 C 
ATOM     21  C   UNL     1      35.158 -24.935 -10.908  0.00  0.00    -0.000 C 
ATOM     22  C   UNL     1      36.658 -23.485  -9.689  0.00  0.00    -0.000 C 
ATOM     23  C   UNL     1      35.683 -24.482  -9.697  0.00  0.00    -0.000 C 
ENDBRANCH  17  18
ENDBRANCH  11  17
ENDBRANCH   9  11
ENDBRANCH   1   8
BRANCH   1  24
ATOM     24  C   UNL     1      34.310 -23.068 -18.063  0.00  0.00    +0.055 C 
BRANCH  24  28
ATOM     25  C   UNL     1      34.301 -19.792 -20.819  0.00  0.00    +0.002 C 
ATOM     26  C   UNL     1      33.110 -20.204 -20.222  0.00  0.00    -0.003 C 
ATOM     27  C   UNL     1      35.495 -20.448 -20.518  0.00  0.00    -0.003 C 
ATOM     28  C   UNL     1      34.307 -21.913 -19.035  0.00  0.00    -0.020 C 
ATOM     29  C   UNL     1      33.113 -21.271 -19.324  0.00  0.00    -0.004 C 
ATOM     30  C   UNL     1      35.498 -21.515 -19.620  0.00  0.00    -0.004 C 
BRANCH  25  36
ATOM     31  S   UNL     1      35.620 -17.511 -21.351  0.00  0.00    +0.059 S 
ATOM     32  O   UNL     1      35.121 -16.523 -20.417  0.00  0.00    -0.154 OA
ATOM     33  O   UNL     1      36.854 -18.236 -21.133  0.00  0.00    -0.154 OA
ATOM     34  O   UNL     1      34.655 -17.254 -25.047  0.00  0.00    -0.273 OA
ATOM     35  N   UNL     1      35.635 -16.845 -22.947  0.00  0.00    -0.188 N 
ATOM     36  C   UNL     1      34.298 -18.641 -21.788  0.00  0.00    +0.180 C 
ATOM     37  C   UNL     1      34.485 -18.931 -23.289  0.00  0.00    +0.117 C 
ATOM     38  C   UNL     1      34.901 -17.611 -23.906  0.00  0.00    +0.243 C 
ATOM     39  H   UNL     1      36.108 -16.011 -23.176  0.00  0.00    +0.176 HD
ENDBRANCH  25  36
ENDBRANCH  24  28
ENDBRANCH   1  24
TORSDOF 9
ENDMDL
MODEL 2
REMARK VINA RESULT:     -10.8      3.975     10.962
REMARK  Name = 9547915
REMARK  9 active torsions:
REMARK  status: ('A' for Active; 'I' for Inactive)
REMARK    1  A    between atoms: C_1  and  C_4
REMARK    2  A    between atoms: C_1  and  N_8
REMARK    3  A    between atoms: C_1  and  C_24
REMARK    4  A    between atoms: C_9  and  C_11
REMARK    5  A    between atoms: C_11  and  N_13
REMARK    6  A    between atoms: C_11  and  C_17
REMARK    7  A    between atoms: C_17  and  C_18
REMARK    8  A    between atoms: C_24  and  C_28
REMARK    9  A    between atoms: C_25  and  C_36
REMARK                            x       y       z     vdW  Elec       q    Type
REMARK                         _______ _______ _______ _____ _____    ______ ____
ROOT
ATOM      1  C   UNL     1      35.198 -18.341 -20.703  0.00  0.00    +0.153 C 
ENDROOT
BRANCH   1   4
ATOM      2  O   UNL     1      37.600 -18.709 -20.638  0.00  0.00    -0.274 OA
ATOM      3  N   UNL     1      36.626 -18.172 -22.647  0.00  0.00    -0.327 N 
ATOM      4  C   UNL     1      36.601 -18.417 -21.291  0.00  0.00    +0.238 C 
ATOM      5  H   UNL     1      37.480 -18.194 -23.136  0.00  0.00    +0.145 HD
ATOM      6  H   UNL     1      35.789 -17.975 -23.127  0.00  0.00    +0.145 HD
ENDBRANCH   1   4
BRANCH   1   8
ATOM      7  O   UNL     1      35.370 -15.709 -19.515  0.00  0.00    -0.273 OA
ATOM      8  N   UNL     1      34.599 -17.121 -21.191  0.00  0.00    -0.297 N 
ATOM      9  C   UNL     1      34.736 -15.896 -20.551  0.00  0.00    +0.241 C 
ATOM     10  H   UNL     1      34.067 -17.159 -22.018  0.00  0.00    +0.150 HD
BRANCH   9  11
ATOM     11  C   UNL     1      33.952 -14.794 -21.255  0.00  0.00    +0.153 C 
BRANCH  11  13
ATOM     12  O   UNL     1      34.186 -13.122 -23.617  0.00  0.00    -0.275 OA
ATOM     13  N   UNL     1      33.795 -15.195 -22.631  0.00  0.00    -0.298 N 
ATOM     14  C   UNL     1      33.926 -14.319 -23.698  0.00  0.00    +0.223 C 
ATOM     15  C   UNL     1      33.738 -15.002 -25.027  0.00  0.00    +0.095 C 
ATOM     16  H   UNL     1      33.584 -16.137 -22.823  0.00  0.00    +0.150 HD
ENDBRANCH  11  13
BRANCH  11  17
ATOM     17  C   UNL     1      32.603 -14.573 -20.559  0.00  0.00    +0.055 C 
BRANCH  17  18
ATOM     18  C   UNL     1      32.203 -13.119 -20.513  0.00  0.00    -0.020 C 
ATOM     19  C   UNL     1      32.403 -12.395 -19.348  0.00  0.00    -0.004 C 
ATOM     20  C   UNL     1      31.641 -12.532 -21.636  0.00  0.00    -0.004 C 
ATOM     21  C   UNL     1      32.032 -11.051 -19.304  0.00  0.00    -0.000 C 
ATOM     22  C   UNL     1      31.271 -11.188 -21.593  0.00  0.00    -0.000 C 
ATOM     23  C   UNL     1      31.466 -10.448 -20.427  0.00  0.00    -0.000 C 
ENDBRANCH  17  18
ENDBRANCH  11  17
ENDBRANCH   9  11
ENDBRANCH   1   8
BRANCH   1  24
ATOM     24  C   UNL     1      34.388 -19.582 -21.094  0.00  0.00    +0.055 C 
BRANCH  24  28
ATOM     25  C   UNL     1      33.960 -22.362 -17.867  0.00  0.00    +0.002 C 
ATOM     26  C   UNL     1      35.221 -22.108 -18.407  0.00  0.00    -0.003 C 
ATOM     27  C   UNL     1      32.839 -21.710 -18.379  0.00  0.00    -0.003 C 
ATOM     28  C   UNL     1      34.236 -20.563 -19.956  0.00  0.00    -0.020 C 
ATOM     29  C   UNL     1      35.360 -21.202 -19.458  0.00  0.00    -0.004 C 
ATOM     30  C   UNL     1      32.978 -20.804 -19.431  0.00  0.00    -0.004 C 
BRANCH  25  36
ATOM     31  S   UNL     1      35.106 -23.039 -15.532  0.00  0.00    +0.059 S 
ATOM     32  O   UNL     1      36.266 -23.840 -15.863  0.00  0.00    -0.154 OA
ATOM     33  O   UNL     1      35.196 -21.627 -15.227  0.00  0.00    -0.154 OA
ATOM     34  O   UNL     1      32.044 -24.726 -13.970  0.00  0.00    -0.273 OA
ATOM     35  N   UNL     1      34.194 -23.824 -14.289  0.00  0.00    -0.188 N 
ATOM     36  C   UNL     1      33.810 -23.340 -16.733  0.00  0.00    +0.180 C 
ATOM     37  C   UNL     1      32.497 -23.349 -15.928  0.00  0.00    +0.117 C 
ATOM     38  C   UNL     1      32.826 -24.059 -14.630  0.00  0.00    +0.243 C 
ATOM     39  H   UNL     1      34.583 -24.086 -13.422  0.00  0.00    +0.176 HD
ENDBRANCH  25  36
ENDBRANCH  24  28
ENDBRANCH   1  24
TORSDOF 9
ENDMDL
MODEL 3
REMARK VINA RESULT:     -10.7      1.068      2.814
REMARK  Name = 9547915
REMARK  9 active torsions:
REMARK  status: ('A' for Active; 'I' for Inactive)
REMARK    1  A    between atoms: C_1  and  C_4
REMARK    2  A    between atoms: C_1  and  N_8
REMARK    3  A    between atoms: C_1  and  C_24
REMARK    4  A    between atoms: C_9  and  C_11
REMARK    5  A    between atoms: C_11  and  N_13
REMARK    6  A    between atoms: C_11  and  C_17
REMARK    7  A    between atoms: C_17  and  C_18
REMARK    8  A    between atoms: C_24  and  C_28
REMARK    9  A    between atoms: C_25  and  C_36
REMARK                            x       y       z     vdW  Elec       q    Type
REMARK                         _______ _______ _______ _____ _____    ______ ____
ROOT
ATOM      1  C   UNL     1      33.527 -22.661 -16.401  0.00  0.00    +0.153 C 
ENDROOT
BRANCH   1   4
ATOM      2  O   UNL     1      31.106 -22.810 -16.555  0.00  0.00    -0.274 OA
ATOM      3  N   UNL     1      32.167 -23.911 -14.841  0.00  0.00    -0.327 N 
ATOM      4  C   UNL     1      32.140 -23.103 -15.958  0.00  0.00    +0.238 C 
ATOM      5  H   UNL     1      31.327 -24.258 -14.464  0.00  0.00    +0.145 HD
ATOM      6  H   UNL     1      33.028 -24.141 -14.421  0.00  0.00    +0.145 HD
ENDBRANCH   1   4
BRANCH   1   8
ATOM      7  O   UNL     1      36.122 -21.582 -15.713  0.00  0.00    -0.273 OA
ATOM      8  N   UNL     1      34.468 -23.191 -15.442  0.00  0.00    -0.297 N 
ATOM      9  C   UNL     1      35.697 -22.603 -15.175  0.00  0.00    +0.241 C 
ATOM     10  H   UNL     1      34.226 -24.010 -14.952  0.00  0.00    +0.150 HD
BRANCH   9  11
ATOM     11  C   UNL     1      36.506 -23.405 -14.163  0.00  0.00    +0.153 C 
BRANCH  11  13
ATOM     12  O   UNL     1      37.545 -23.728 -11.471  0.00  0.00    -0.275 OA
ATOM     13  N   UNL     1      35.758 -23.416 -12.931  0.00  0.00    -0.298 N 
ATOM     14  C   UNL     1      36.345 -23.577 -11.685  0.00  0.00    +0.223 C 
ATOM     15  C   UNL     1      35.340 -23.524 -10.566  0.00  0.00    +0.095 C 
ATOM     16  H   UNL     1      34.781 -23.304 -12.976  0.00  0.00    +0.150 HD
ENDBRANCH  11  13
BRANCH  11  17
ATOM     17  C   UNL     1      36.768 -24.820 -14.693  0.00  0.00    +0.055 C 
BRANCH  17  18
ATOM     18  C   UNL     1      38.186 -25.279 -14.455  0.00  0.00    -0.020 C 
ATOM     19  C   UNL     1      38.411 -26.461 -13.767  0.00  0.00    -0.004 C 
ATOM     20  C   UNL     1      39.238 -24.511 -14.929  0.00  0.00    -0.004 C 
ATOM     21  C   UNL     1      39.721 -26.885 -13.546  0.00  0.00    -0.000 C 
ATOM     22  C   UNL     1      40.548 -24.935 -14.708  0.00  0.00    -0.000 C 
ATOM     23  C   UNL     1      40.790 -26.122 -14.017  0.00  0.00    -0.000 C 
ENDBRANCH  17  18
ENDBRANCH  11  17
ENDBRANCH   9  11
ENDBRANCH   1   8
BRANCH   1  24
ATOM     24  C   UNL     1      33.814 -23.148 -17.825  0.00  0.00    +0.055 C 
BRANCH  24  28
ATOM     25  C   UNL     1      34.112 -19.940 -20.644  0.00  0.00    +0.002 C 
ATOM     26  C   UNL     1      32.873 -20.276 -20.098  0.00  0.00    -0.003 C 
ATOM     27  C   UNL     1      35.253 -20.650 -20.271  0.00  0.00    -0.003 C 
ATOM     28  C   UNL     1      33.920 -22.017 -18.820  0.00  0.00    -0.020 C 
ATOM     29  C   UNL     1      32.776 -21.322 -19.180  0.00  0.00    -0.004 C 
ATOM     30  C   UNL     1      35.157 -21.695 -19.353  0.00  0.00    -0.004 C 
BRANCH  25  36
ATOM     31  S   UNL     1      35.672 -17.838 -21.254  0.00  0.00    +0.059 S 
ATOM     32  O   UNL     1      35.318 -16.784 -20.328  0.00  0.00    -0.154 OA
ATOM     33  O   UNL     1      36.819 -18.699 -21.054  0.00  0.00    -0.154 OA
ATOM     34  O   UNL     1      34.643 -17.532 -24.929  0.00  0.00    -0.273 OA
ATOM     35  N   UNL     1      35.721 -17.205 -22.863  0.00  0.00    -0.188 N 
ATOM     36  C   UNL     1      34.216 -18.813 -21.635  0.00  0.00    +0.180 C 
ATOM     37  C   UNL     1      34.326 -19.148 -23.134  0.00  0.00    +0.117 C 
ATOM     38  C   UNL     1      34.876 -17.896 -23.788  0.00  0.00    +0.243 C 
ATOM     39  H   UNL     1      36.281 -16.436 -23.121  0.00  0.00    +0.176 HD
ENDBRANCH  25  36
ENDBRANCH  24  28
ENDBRANCH   1  24
TORSDOF 9
ENDMDL
MODEL 4
REMARK VINA RESULT:     -10.4      1.285      1.856
REMARK  Name = 9547915
REMARK  9 active torsions:
REMARK  status: ('A' for Active; 'I' for Inactive)
REMARK    1  A    between atoms: C_1  and  C_4
REMARK    2  A    between atoms: C_1  and  N_8
REMARK    3  A    between atoms: C_1  and  C_24
REMARK    4  A    between atoms: C_9  and  C_11
REMARK    5  A    between atoms: C_11  and  N_13
REMARK    6  A    between atoms: C_11  and  C_17
REMARK    7  A    between atoms: C_17  and  C_18
REMARK    8  A    between atoms: C_24  and  C_28
REMARK    9  A    between atoms: C_25  and  C_36
REMARK                            x       y       z     vdW  Elec       q    Type
REMARK                         _______ _______ _______ _____ _____    ______ ____
ROOT
ATOM      1  C   UNL     1      33.599 -22.864 -16.714  0.00  0.00    +0.153 C 
ENDROOT
BRANCH   1   4
ATOM      2  O   UNL     1      31.221 -22.452 -17.008  0.00  0.00    -0.274 OA
ATOM      3  N   UNL     1      31.937 -23.389 -15.038  0.00  0.00    -0.327 N 
ATOM      4  C   UNL     1      32.136 -22.853 -16.293  0.00  0.00    +0.238 C 
ATOM      5  H   UNL     1      31.030 -23.435 -14.660  0.00  0.00    +0.145 HD
ATOM      6  H   UNL     1      32.704 -23.727 -14.520  0.00  0.00    +0.145 HD
ENDBRANCH   1   4
BRANCH   1   8
ATOM      7  O   UNL     1      36.413 -23.016 -16.064  0.00  0.00    -0.273 OA
ATOM      8  N   UNL     1      34.261 -23.877 -15.926  0.00  0.00    -0.297 N 
ATOM      9  C   UNL     1      35.624 -23.869 -15.664  0.00  0.00    +0.241 C 
ATOM     10  H   UNL     1      33.718 -24.610 -15.555  0.00  0.00    +0.150 HD
BRANCH   9  11
ATOM     11  C   UNL     1      36.057 -25.088 -14.857  0.00  0.00    +0.153 C 
BRANCH  11  13
ATOM     12  O   UNL     1      38.022 -27.182 -14.431  0.00  0.00    -0.275 OA
ATOM     13  N   UNL     1      37.458 -24.926 -14.560  0.00  0.00    -0.298 N 
ATOM     14  C   UNL     1      38.324 -25.993 -14.372  0.00  0.00    +0.223 C 
ATOM     15  C   UNL     1      39.736 -25.545 -14.100  0.00  0.00    +0.095 C 
ATOM     16  H   UNL     1      37.819 -24.013 -14.486  0.00  0.00    +0.150 HD
ENDBRANCH  11  13
BRANCH  11  17
ATOM     17  C   UNL     1      35.207 -25.214 -13.587  0.00  0.00    +0.055 C 
BRANCH  17  18
ATOM     18  C   UNL     1      35.808 -24.489 -12.408  0.00  0.00    -0.020 C 
ATOM     19  C   UNL     1      36.640 -23.403 -12.631  0.00  0.00    -0.004 C 
ATOM     20  C   UNL     1      35.519 -24.922 -11.123  0.00  0.00    -0.004 C 
ATOM     21  C   UNL     1      37.196 -22.732 -11.542  0.00  0.00    -0.000 C 
ATOM     22  C   UNL     1      36.076 -24.252 -10.034  0.00  0.00    -0.000 C 
ATOM     23  C   UNL     1      36.914 -23.158 -10.243  0.00  0.00    -0.000 C 
ENDBRANCH  17  18
ENDBRANCH  11  17
ENDBRANCH   9  11
ENDBRANCH   1   8
BRANCH   1  24
ATOM     24  C   UNL     1      33.719 -23.129 -18.219  0.00  0.00    +0.055 C 
BRANCH  24  28
ATOM     25  C   UNL     1      35.031 -19.691 -20.405  0.00  0.00    +0.002 C 
ATOM     26  C   UNL     1      33.668 -19.939 -20.249  0.00  0.00    -0.003 C 
ATOM     27  C   UNL     1      35.967 -20.563 -19.849  0.00  0.00    -0.003 C 
ATOM     28  C   UNL     1      34.182 -21.917 -18.990  0.00  0.00    -0.020 C 
ATOM     29  C   UNL     1      33.241 -21.060 -19.537  0.00  0.00    -0.004 C 
ATOM     30  C   UNL     1      35.540 -21.683 -19.137  0.00  0.00    -0.004 C 
BRANCH  25  36
ATOM     31  S   UNL     1      35.321 -18.811 -22.928  0.00  0.00    +0.059 S 
ATOM     32  O   UNL     1      36.543 -19.404 -23.430  0.00  0.00    -0.154 OA
ATOM     33  O   UNL     1      34.013 -19.362 -23.215  0.00  0.00    -0.154 OA
ATOM     34  O   UNL     1      35.238 -15.065 -22.140  0.00  0.00    -0.273 OA
ATOM     35  N   UNL     1      35.307 -17.118 -23.287  0.00  0.00    -0.188 N 
ATOM     36  C   UNL     1      35.492 -18.482 -21.175  0.00  0.00    +0.180 C 
ATOM     37  C   UNL     1      34.786 -17.135 -20.937  0.00  0.00    +0.117 C 
ATOM     38  C   UNL     1      35.131 -16.281 -22.141  0.00  0.00    +0.243 C 
ATOM     39  H   UNL     1      35.411 -16.762 -24.200  0.00  0.00    +0.176 HD
ENDBRANCH  25  36
ENDBRANCH  24  28
ENDBRANCH   1  24
TORSDOF 9
ENDMDL
MODEL 5
REMARK VINA RESULT:     -10.3      1.695      2.435
REMARK  Name = 9547915
REMARK  9 active torsions:
REMARK  status: ('A' for Active; 'I' for Inactive)
REMARK    1  A    between atoms: C_1  and  C_4
REMARK    2  A    between atoms: C_1  and  N_8
REMARK    3  A    between atoms: C_1  and  C_24
REMARK    4  A    between atoms: C_9  and  C_11
REMARK    5  A    between atoms: C_11  and  N_13
REMARK    6  A    between atoms: C_11  and  C_17
REMARK    7  A    between atoms: C_17  and  C_18
REMARK    8  A    between atoms: C_24  and  C_28
REMARK    9  A    between atoms: C_25  and  C_36
REMARK                            x       y       z     vdW  Elec       q    Type
REMARK                         _______ _______ _______ _____ _____    ______ ____
ROOT
ATOM      1  C   UNL     1      33.577 -22.801 -16.824  0.00  0.00    +0.153 C 
ENDROOT
BRANCH   1   4
ATOM      2  O   UNL     1      31.327 -21.939 -17.142  0.00  0.00    -0.274 OA
ATOM      3  N   UNL     1      31.588 -24.157 -16.609  0.00  0.00    -0.327 N 
ATOM      4  C   UNL     1      32.058 -22.887 -16.866  0.00  0.00    +0.238 C 
ATOM      5  H   UNL     1      30.619 -24.333 -16.610  0.00  0.00    +0.145 HD
ATOM      6  H   UNL     1      32.221 -24.889 -16.426  0.00  0.00    +0.145 HD
ENDBRANCH   1   4
BRANCH   1   8
ATOM      7  O   UNL     1      36.024 -22.632 -15.291  0.00  0.00    -0.273 OA
ATOM      8  N   UNL     1      34.026 -23.705 -15.792  0.00  0.00    -0.297 N 
ATOM      9  C   UNL     1      35.222 -23.545 -15.105  0.00  0.00    +0.241 C 
ATOM     10  H   UNL     1      33.456 -24.474 -15.563  0.00  0.00    +0.150 HD
BRANCH   9  11
ATOM     11  C   UNL     1      35.467 -24.676 -14.113  0.00  0.00    +0.153 C 
BRANCH  11  13
ATOM     12  O   UNL     1      37.204 -26.734 -15.198  0.00  0.00    -0.275 OA
ATOM     13  N   UNL     1      36.893 -24.795 -13.946  0.00  0.00    -0.298 N 
ATOM     14  C   UNL     1      37.642 -25.819 -14.506  0.00  0.00    +0.223 C 
ATOM     15  C   UNL     1      39.110 -25.691 -14.197  0.00  0.00    +0.095 C 
ATOM     16  H   UNL     1      37.360 -24.116 -13.407  0.00  0.00    +0.150 HD
ENDBRANCH  11  13
BRANCH  11  17
ATOM     17  C   UNL     1      34.751 -24.386 -12.788  0.00  0.00    +0.055 C 
BRANCH  17  18
ATOM     18  C   UNL     1      33.256 -24.261 -12.948  0.00  0.00    -0.020 C 
ATOM     19  C   UNL     1      32.665 -23.010 -12.860  0.00  0.00    -0.004 C 
ATOM     20  C   UNL     1      32.499 -25.399 -13.179  0.00  0.00    -0.004 C 
ATOM     21  C   UNL     1      31.283 -22.894 -13.007  0.00  0.00    -0.000 C 
ATOM     22  C   UNL     1      31.117 -25.283 -13.326  0.00  0.00    -0.000 C 
ATOM     23  C   UNL     1      30.509 -24.031 -13.240  0.00  0.00    -0.000 C 
ENDBRANCH  17  18
ENDBRANCH  11  17
ENDBRANCH   9  11
ENDBRANCH   1   8
BRANCH   1  24
ATOM     24  C   UNL     1      34.170 -23.145 -18.195  0.00  0.00    +0.055 C 
BRANCH  24  28
ATOM     25  C   UNL     1      34.265 -19.788 -20.849  0.00  0.00    +0.002 C 
ATOM     26  C   UNL     1      33.048 -20.240 -20.339  0.00  0.00    -0.003 C 
ATOM     27  C   UNL     1      35.451 -20.430 -20.493  0.00  0.00    -0.003 C 
ATOM     28  C   UNL     1      34.204 -21.962 -19.131  0.00  0.00    -0.020 C 
ATOM     29  C   UNL     1      33.017 -21.334 -19.475  0.00  0.00    -0.004 C 
ATOM     30  C   UNL     1      35.420 -21.524 -19.629  0.00  0.00    -0.004 C 
BRANCH  25  36
ATOM     31  S   UNL     1      35.620 -17.507 -21.279  0.00  0.00    +0.059 S 
ATOM     32  O   UNL     1      35.110 -16.542 -20.327  0.00  0.00    -0.154 OA
ATOM     33  O   UNL     1      36.841 -18.252 -21.053  0.00  0.00    -0.154 OA
ATOM     34  O   UNL     1      34.751 -17.127 -24.988  0.00  0.00    -0.273 OA
ATOM     35  N   UNL     1      35.682 -16.793 -22.853  0.00  0.00    -0.188 N 
ATOM     36  C   UNL     1      34.298 -18.608 -21.782  0.00  0.00    +0.180 C 
ATOM     37  C   UNL     1      34.519 -18.855 -23.286  0.00  0.00    +0.117 C 
ATOM     38  C   UNL     1      34.964 -17.522 -23.852  0.00  0.00    +0.243 C 
ATOM     39  H   UNL     1      36.170 -15.958 -23.045  0.00  0.00    +0.176 HD
ENDBRANCH  25  36
ENDBRANCH  24  28
ENDBRANCH   1  24
TORSDOF 9
ENDMDL
MODEL 6
REMARK VINA RESULT:      -9.9      3.220     10.309
REMARK  Name = 9547915
REMARK  9 active torsions:
REMARK  status: ('A' for Active; 'I' for Inactive)
REMARK    1  A    between atoms: C_1  and  C_4
REMARK    2  A    between atoms: C_1  and  N_8
REMARK    3  A    between atoms: C_1  and  C_24
REMARK    4  A    between atoms: C_9  and  C_11
REMARK    5  A    between atoms: C_11  and  N_13
REMARK    6  A    between atoms: C_11  and  C_17
REMARK    7  A    between atoms: C_17  and  C_18
REMARK    8  A    between atoms: C_24  and  C_28
REMARK    9  A    between atoms: C_25  and  C_36
REMARK                            x       y       z     vdW  Elec       q    Type
REMARK                         _______ _______ _______ _____ _____    ______ ____
ROOT
ATOM      1  C   UNL     1      36.100 -21.086 -19.220  0.00  0.00    +0.153 C 
ENDROOT
BRANCH   1   4
ATOM      2  O   UNL     1      34.856 -23.174 -19.188  0.00  0.00    -0.274 OA
ATOM      3  N   UNL     1      33.685 -21.199 -19.229  0.00  0.00    -0.327 N 
ATOM      4  C   UNL     1      34.844 -21.946 -19.226  0.00  0.00    +0.238 C 
ATOM      5  H   UNL     1      32.809 -21.649 -19.233  0.00  0.00    +0.145 HD
ATOM      6  H   UNL     1      33.733 -20.216 -19.227  0.00  0.00    +0.145 HD
ENDBRANCH   1   4
BRANCH   1   8
ATOM      7  O   UNL     1      38.053 -19.384 -20.508  0.00  0.00    -0.273 OA
ATOM      8  N   UNL     1      35.842 -19.952 -20.076  0.00  0.00    -0.297 N 
ATOM      9  C   UNL     1      36.848 -19.189 -20.654  0.00  0.00    +0.241 C 
ATOM     10  H   UNL     1      34.906 -19.707 -20.259  0.00  0.00    +0.150 HD
BRANCH   9  11
ATOM     11  C   UNL     1      36.288 -18.023 -21.460  0.00  0.00    +0.153 C 
BRANCH  11  13
ATOM     12  O   UNL     1      33.952 -19.626 -22.095  0.00  0.00    -0.275 OA
ATOM     13  N   UNL     1      35.906 -18.541 -22.750  0.00  0.00    -0.298 N 
ATOM     14  C   UNL     1      34.765 -19.301 -22.956  0.00  0.00    +0.223 C 
ATOM     15  C   UNL     1      34.590 -19.691 -24.400  0.00  0.00    +0.095 C 
ATOM     16  H   UNL     1      36.483 -18.345 -23.523  0.00  0.00    +0.150 HD
ENDBRANCH  11  13
BRANCH  11  17
ATOM     17  C   UNL     1      35.106 -17.383 -20.721  0.00  0.00    +0.055 C 
BRANCH  17  18
ATOM     18  C   UNL     1      34.801 -15.987 -21.206  0.00  0.00    -0.020 C 
ATOM     19  C   UNL     1      34.891 -15.704 -22.560  0.00  0.00    -0.004 C 
ATOM     20  C   UNL     1      34.436 -15.013 -20.290  0.00  0.00    -0.004 C 
ATOM     21  C   UNL     1      34.610 -14.415 -23.010  0.00  0.00    -0.000 C 
ATOM     22  C   UNL     1      34.155 -13.723 -20.740  0.00  0.00    -0.000 C 
ATOM     23  C   UNL     1      34.242 -13.424 -22.099  0.00  0.00    -0.000 C 
ENDBRANCH  17  18
ENDBRANCH  11  17
ENDBRANCH   9  11
ENDBRANCH   1   8
BRANCH   1  24
ATOM     24  C   UNL     1      36.453 -20.666 -17.790  0.00  0.00    +0.055 C 
BRANCH  24  28
ATOM     25  C   UNL     1      36.403 -23.947 -15.040  0.00  0.00    +0.002 C 
ATOM     26  C   UNL     1      35.212 -23.492 -15.605  0.00  0.00    -0.003 C 
ATOM     27  C   UNL     1      37.611 -23.332 -15.372  0.00  0.00    -0.003 C 
ATOM     28  C   UNL     1      36.436 -21.822 -16.820  0.00  0.00    -0.020 C 
ATOM     29  C   UNL     1      35.228 -22.423 -16.500  0.00  0.00    -0.004 C 
ATOM     30  C   UNL     1      37.627 -22.263 -16.268  0.00  0.00    -0.004 C 
BRANCH  25  36
ATOM     31  S   UNL     1      37.450 -26.399 -14.701  0.00  0.00    +0.059 S 
ATOM     32  O   UNL     1      36.678 -27.292 -15.539  0.00  0.00    -0.154 OA
ATOM     33  O   UNL     1      38.727 -25.853 -15.112  0.00  0.00    -0.154 OA
ATOM     34  O   UNL     1      37.040 -26.570 -10.898  0.00  0.00    -0.273 OA
ATOM     35  N   UNL     1      37.616 -27.084 -13.121  0.00  0.00    -0.188 N 
ATOM     36  C   UNL     1      36.386 -25.100 -14.073  0.00  0.00    +0.180 C 
ATOM     37  C   UNL     1      36.841 -24.860 -12.622  0.00  0.00    +0.117 C 
ATOM     38  C   UNL     1      37.156 -26.235 -12.066  0.00  0.00    +0.243 C 
ATOM     39  H   UNL     1      37.995 -27.979 -12.961  0.00  0.00    +0.176 HD
ENDBRANCH  25  36
ENDBRANCH  24  28
ENDBRANCH   1  24
TORSDOF 9
ENDMDL
MODEL 7
REMARK VINA RESULT:      -9.7      6.805     11.393
REMARK  Name = 9547915
REMARK  9 active torsions:
REMARK  status: ('A' for Active; 'I' for Inactive)
REMARK    1  A    between atoms: C_1  and  C_4
REMARK    2  A    between atoms: C_1  and  N_8
REMARK    3  A    between atoms: C_1  and  C_24
REMARK    4  A    between atoms: C_9  and  C_11
REMARK    5  A    between atoms: C_11  and  N_13
REMARK    6  A    between atoms: C_11  and  C_17
REMARK    7  A    between atoms: C_17  and  C_18
REMARK    8  A    between atoms: C_24  and  C_28
REMARK    9  A    between atoms: C_25  and  C_36
REMARK                            x       y       z     vdW  Elec       q    Type
REMARK                         _______ _______ _______ _____ _____    ______ ____
ROOT
ATOM      1  C   UNL     1      33.261 -14.073 -23.993  0.00  0.00    +0.153 C 
ENDROOT
BRANCH   1   4
ATOM      2  O   UNL     1      33.612 -14.317 -26.386  0.00  0.00    -0.274 OA
ATOM      3  N   UNL     1      32.963 -16.159 -25.177  0.00  0.00    -0.327 N 
ATOM      4  C   UNL     1      33.290 -14.827 -25.315  0.00  0.00    +0.238 C 
ATOM      5  H   UNL     1      32.949 -16.747 -25.967  0.00  0.00    +0.145 HD
ATOM      6  H   UNL     1      32.745 -16.523 -24.289  0.00  0.00    +0.145 HD
ENDBRANCH   1   4
BRANCH   1   8
ATOM      7  O   UNL     1      35.816 -15.426 -23.910  0.00  0.00    -0.273 OA
ATOM      8  N   UNL     1      33.737 -14.981 -22.976  0.00  0.00    -0.297 N 
ATOM      9  C   UNL     1      34.986 -15.587 -23.019  0.00  0.00    +0.241 C 
ATOM     10  H   UNL     1      33.148 -15.179 -22.213  0.00  0.00    +0.150 HD
BRANCH   9  11
ATOM     11  C   UNL     1      35.199 -16.537 -21.846  0.00  0.00    +0.153 C 
BRANCH  11  13
ATOM     12  O   UNL     1      34.898 -14.024 -20.424  0.00  0.00    -0.275 OA
ATOM     13  N   UNL     1      34.213 -16.210 -20.847  0.00  0.00    -0.298 N 
ATOM     14  C   UNL     1      34.148 -14.975 -20.220  0.00  0.00    +0.223 C 
ATOM     15  C   UNL     1      33.009 -14.891 -19.238  0.00  0.00    +0.095 C 
ATOM     16  H   UNL     1      33.553 -16.896 -20.598  0.00  0.00    +0.150 HD
ENDBRANCH  11  13
BRANCH  11  17
ATOM     17  C   UNL     1      35.087 -17.993 -22.314  0.00  0.00    +0.055 C 
BRANCH  17  18
ATOM     18  C   UNL     1      35.470 -18.982 -21.241  0.00  0.00    -0.020 C 
ATOM     19  C   UNL     1      36.761 -18.971 -20.736  0.00  0.00    -0.004 C 
ATOM     20  C   UNL     1      34.525 -19.885 -20.779  0.00  0.00    -0.004 C 
ATOM     21  C   UNL     1      37.116 -19.885 -19.745  0.00  0.00    -0.000 C 
ATOM     22  C   UNL     1      34.880 -20.799 -19.787  0.00  0.00    -0.000 C 
ATOM     23  C   UNL     1      36.175 -20.799 -19.270  0.00  0.00    -0.000 C 
ENDBRANCH  17  18
ENDBRANCH  11  17
ENDBRANCH   9  11
ENDBRANCH   1   8
BRANCH   1  24
ATOM     24  C   UNL     1      34.115 -12.804 -24.084  0.00  0.00    +0.055 C 
BRANCH  24  28
ATOM     25  C   UNL     1      32.220  -9.399 -22.313  0.00  0.00    +0.002 C 
ATOM     26  C   UNL     1      33.051  -9.236 -23.420  0.00  0.00    -0.003 C 
ATOM     27  C   UNL     1      32.006 -10.671 -21.782  0.00  0.00    -0.003 C 
ATOM     28  C   UNL     1      33.447 -11.603 -23.458  0.00  0.00    -0.020 C 
ATOM     29  C   UNL     1      33.669 -10.346 -23.997  0.00  0.00    -0.004 C 
ATOM     30  C   UNL     1      32.624 -11.780 -22.359  0.00  0.00    -0.004 C 
BRANCH  25  36
ATOM     31  S   UNL     1      32.742  -7.350 -20.653  0.00  0.00    +0.059 S 
ATOM     32  O   UNL     1      32.683  -7.887 -19.310  0.00  0.00    -0.154 OA
ATOM     33  O   UNL     1      33.991  -7.163 -21.363  0.00  0.00    -0.154 OA
ATOM     34  O   UNL     1      29.953  -5.027 -21.870  0.00  0.00    -0.273 OA
ATOM     35  N   UNL     1      31.826  -5.885 -20.733  0.00  0.00    -0.188 N 
ATOM     36  C   UNL     1      31.553  -8.202 -21.690  0.00  0.00    +0.180 C 
ATOM     37  C   UNL     1      30.959  -7.119 -22.609  0.00  0.00    +0.117 C 
ATOM     38  C   UNL     1      30.808  -5.888 -21.737  0.00  0.00    +0.243 C 
ATOM     39  H   UNL     1      31.992  -5.116 -20.140  0.00  0.00    +0.176 HD
ENDBRANCH  25  36
ENDBRANCH  24  28
ENDBRANCH   1  24
TORSDOF 9
ENDMDL
MODEL 8
REMARK VINA RESULT:      -9.4      3.798      6.516
REMARK  Name = 9547915
REMARK  9 active torsions:
REMARK  status: ('A' for Active; 'I' for Inactive)
REMARK    1  A    between atoms: C_1  and  C_4
REMARK    2  A    between atoms: C_1  and  N_8
REMARK    3  A    between atoms: C_1  and  C_24
REMARK    4  A    between atoms: C_9  and  C_11
REMARK    5  A    between atoms: C_11  and  N_13
REMARK    6  A    between atoms: C_11  and  C_17
REMARK    7  A    between atoms: C_17  and  C_18
REMARK    8  A    between atoms: C_24  and  C_28
REMARK    9  A    between atoms: C_25  and  C_36
REMARK                            x       y       z     vdW  Elec       q    Type
REMARK                         _______ _______ _______ _____ _____    ______ ____
ROOT
ATOM      1  C   UNL     1      34.593 -19.017 -21.431  0.00  0.00    +0.153 C 
ENDROOT
BRANCH   1   4
ATOM      2  O   UNL     1      33.761 -18.941 -23.713  0.00  0.00    -0.274 OA
ATOM      3  N   UNL     1      35.640 -20.186 -23.271  0.00  0.00    -0.327 N 
ATOM      4  C   UNL     1      34.588 -19.370 -22.912  0.00  0.00    +0.238 C 
ATOM      5  H   UNL     1      35.739 -20.480 -24.205  0.00  0.00    +0.145 HD
ATOM      6  H   UNL     1      36.293 -20.475 -22.592  0.00  0.00    +0.145 HD
ENDBRANCH   1   4
BRANCH   1   8
ATOM      7  O   UNL     1      32.786 -20.387 -19.635  0.00  0.00    -0.273 OA
ATOM      8  N   UNL     1      34.843 -20.240 -20.703  0.00  0.00    -0.297 N 
ATOM      9  C   UNL     1      33.911 -20.829 -19.859  0.00  0.00    +0.241 C 
ATOM     10  H   UNL     1      35.717 -20.679 -20.812  0.00  0.00    +0.150 HD
BRANCH   9  11
ATOM     11  C   UNL     1      34.463 -22.077 -19.181  0.00  0.00    +0.153 C 
BRANCH  11  13
ATOM     12  O   UNL     1      37.275 -21.354 -19.198  0.00  0.00    -0.275 OA
ATOM     13  N   UNL     1      35.260 -21.638 -18.064  0.00  0.00    -0.298 N 
ATOM     14  C   UNL     1      36.604 -21.312 -18.170  0.00  0.00    +0.223 C 
ATOM     15  C   UNL     1      37.189 -20.860 -16.858  0.00  0.00    +0.095 C 
ATOM     16  H   UNL     1      34.830 -21.565 -17.182  0.00  0.00    +0.150 HD
ENDBRANCH  11  13
BRANCH  11  17
ATOM     17  C   UNL     1      33.316 -22.998 -18.747  0.00  0.00    +0.055 C 
BRANCH  17  18
ATOM     18  C   UNL     1      33.176 -23.089 -17.248  0.00  0.00    -0.020 C 
ATOM     19  C   UNL     1      31.990 -22.691 -16.651  0.00  0.00    -0.004 C 
ATOM     20  C   UNL     1      34.236 -23.567 -16.493  0.00  0.00    -0.004 C 
ATOM     21  C   UNL     1      31.861 -22.773 -15.264  0.00  0.00    -0.000 C 
ATOM     22  C   UNL     1      34.107 -23.650 -15.107  0.00  0.00    -0.000 C 
ATOM     23  C   UNL     1      32.920 -23.253 -14.493  0.00  0.00    -0.000 C 
ENDBRANCH  17  18
ENDBRANCH  11  17
ENDBRANCH   9  11
ENDBRANCH   1   8
BRANCH   1  24
ATOM     24  C   UNL     1      35.648 -17.945 -21.141  0.00  0.00    +0.055 C 
BRANCH  24  28
ATOM     25  C   UNL     1      34.137 -13.967 -21.609  0.00  0.00    +0.002 C 
ATOM     26  C   UNL     1      34.643 -14.655 -22.711  0.00  0.00    -0.003 C 
ATOM     27  C   UNL     1      34.124 -14.576 -20.353  0.00  0.00    -0.003 C 
ATOM     28  C   UNL     1      35.116 -16.542 -21.305  0.00  0.00    -0.020 C 
ATOM     29  C   UNL     1      35.135 -15.951 -22.559  0.00  0.00    -0.004 C 
ATOM     30  C   UNL     1      34.617 -15.872 -20.201  0.00  0.00    -0.004 C 
BRANCH  25  36
ATOM     31  S   UNL     1      33.332 -12.253 -23.516  0.00  0.00    +0.059 S 
ATOM     32  O   UNL     1      34.535 -11.698 -24.101  0.00  0.00    -0.154 OA
ATOM     33  O   UNL     1      32.606 -13.349 -24.121  0.00  0.00    -0.154 OA
ATOM     34  O   UNL     1      31.142 -10.047 -21.280  0.00  0.00    -0.273 OA
ATOM     35  N   UNL     1      32.222 -10.977 -23.153  0.00  0.00    -0.188 N 
ATOM     36  C   UNL     1      33.606 -12.568 -21.773  0.00  0.00    +0.180 C 
ATOM     37  C   UNL     1      32.289 -12.186 -21.073  0.00  0.00    +0.117 C 
ATOM     38  C   UNL     1      31.800 -10.942 -21.787  0.00  0.00    +0.243 C 
ATOM     39  H   UNL     1      31.906 -10.332 -23.828  0.00  0.00    +0.176 HD
ENDBRANCH  25  36
ENDBRANCH  24  28
ENDBRANCH   1  24
TORSDOF 9
ENDMDL
MODEL 9
REMARK VINA RESULT:      -9.4     12.078     18.319
REMARK  Name = 9547915
REMARK  9 active torsions:
REMARK  status: ('A' for Active; 'I' for Inactive)
REMARK    1  A    between atoms: C_1  and  C_4
REMARK    2  A    between atoms: C_1  and  N_8
REMARK    3  A    between atoms: C_1  and  C_24
REMARK    4  A    between atoms: C_9  and  C_11
REMARK    5  A    between atoms: C_11  and  N_13
REMARK    6  A    between atoms: C_11  and  C_17
REMARK    7  A    between atoms: C_17  and  C_18
REMARK    8  A    between atoms: C_24  and  C_28
REMARK    9  A    between atoms: C_25  and  C_36
REMARK                            x       y       z     vdW  Elec       q    Type
REMARK                         _______ _______ _______ _____ _____    ______ ____
ROOT
ATOM      1  C   UNL     1      30.949  -4.366 -23.091  0.00  0.00    +0.153 C 
ENDROOT
BRANCH   1   4
ATOM      2  O   UNL     1      30.811  -2.079 -23.902  0.00  0.00    -0.274 OA
ATOM      3  N   UNL     1      29.964  -2.559 -21.822  0.00  0.00    -0.327 N 
ATOM      4  C   UNL     1      30.597  -2.888 -23.002  0.00  0.00    +0.238 C 
ATOM      5  H   UNL     1      29.688  -1.629 -21.654  0.00  0.00    +0.145 HD
ATOM      6  H   UNL     1      29.787  -3.255 -21.148  0.00  0.00    +0.145 HD
ENDBRANCH   1   4
BRANCH   1   8
ATOM      7  O   UNL     1      31.905  -5.353 -25.637  0.00  0.00    -0.273 OA
ATOM      8  N   UNL     1      32.320  -4.450 -23.538  0.00  0.00    -0.297 N 
ATOM      9  C   UNL     1      32.687  -4.940 -24.784  0.00  0.00    +0.241 C 
ATOM     10  H   UNL     1      33.030  -4.143 -22.929  0.00  0.00    +0.150 HD
BRANCH   9  11
ATOM     11  C   UNL     1      34.201  -4.965 -24.963  0.00  0.00    +0.153 C 
BRANCH  11  13
ATOM     12  O   UNL     1      34.596  -6.639 -22.624  0.00  0.00    -0.275 OA
ATOM     13  N   UNL     1      34.611  -6.347 -24.935  0.00  0.00    -0.298 N 
ATOM     14  C   UNL     1      34.773  -7.067 -23.761  0.00  0.00    +0.223 C 
ATOM     15  C   UNL     1      35.181  -8.494 -24.016  0.00  0.00    +0.095 C 
ATOM     16  H   UNL     1      34.784  -6.802 -25.790  0.00  0.00    +0.150 HD
ENDBRANCH  11  13
BRANCH  11  17
ATOM     17  C   UNL     1      34.592  -4.273 -26.275  0.00  0.00    +0.055 C 
BRANCH  17  18
ATOM     18  C   UNL     1      34.942  -5.251 -27.369  0.00  0.00    -0.020 C 
ATOM     19  C   UNL     1      33.966  -5.635 -28.275  0.00  0.00    -0.004 C 
ATOM     20  C   UNL     1      36.234  -5.749 -27.449  0.00  0.00    -0.004 C 
ATOM     21  C   UNL     1      34.289  -6.540 -29.286  0.00  0.00    -0.000 C 
ATOM     22  C   UNL     1      36.556  -6.654 -28.460  0.00  0.00    -0.000 C 
ATOM     23  C   UNL     1      35.584  -7.049 -29.378  0.00  0.00    -0.000 C 
ENDBRANCH  17  18
ENDBRANCH  11  17
ENDBRANCH   9  11
ENDBRANCH   1   8
BRANCH   1  24
ATOM     24  C   UNL     1      30.738  -5.048 -21.735  0.00  0.00    +0.055 C 
BRANCH  24  28
ATOM     25  C   UNL     1      32.015  -9.133 -21.715  0.00  0.00    +0.002 C 
ATOM     26  C   UNL     1      32.327  -8.300 -20.642  0.00  0.00    -0.003 C 
ATOM     27  C   UNL     1      31.287  -8.636 -22.795  0.00  0.00    -0.003 C 
ATOM     28  C   UNL     1      31.189  -6.489 -21.729  0.00  0.00    -0.020 C 
ATOM     29  C   UNL     1      31.911  -6.969 -20.649  0.00  0.00    -0.004 C 
ATOM     30  C   UNL     1      30.871  -7.304 -22.802  0.00  0.00    -0.004 C 
BRANCH  25  36
ATOM     31  S   UNL     1      31.471 -11.483 -20.529  0.00  0.00    +0.059 S 
ATOM     32  O   UNL     1      32.105 -11.441 -19.228  0.00  0.00    -0.154 OA
ATOM     33  O   UNL     1      30.065 -11.193 -20.719  0.00  0.00    -0.154 OA
ATOM     34  O   UNL     1      32.927 -13.743 -23.255  0.00  0.00    -0.273 OA
ATOM     35  N   UNL     1      31.845 -12.981 -21.309  0.00  0.00    -0.188 N 
ATOM     36  C   UNL     1      32.465 -10.570 -21.708  0.00  0.00    +0.180 C 
ATOM     37  C   UNL     1      32.395 -11.377 -23.017  0.00  0.00    +0.117 C 
ATOM     38  C   UNL     1      32.448 -12.832 -22.597  0.00  0.00    +0.243 C 
ATOM     39  H   UNL     1      31.659 -13.859 -20.902  0.00  0.00    +0.176 HD
ENDBRANCH  25  36
ENDBRANCH  24  28
ENDBRANCH   1  24
TORSDOF 9
ENDMDL
