MODEL 1
REMARK VINA RESULT:     -10.6      0.000      0.000
REMARK  Name = 44608289
REMARK  2 active torsions:
REMARK  status: ('A' for Active; 'I' for Inactive)
REMARK    1  A    between atoms: C_3  and  C_9
REMARK    2  A    between atoms: C_4  and  C_17
REMARK                            x       y       z     vdW  Elec       q    Type
REMARK                         _______ _______ _______ _____ _____    ______ ____
ROOT
ATOM      1  N   UNL     1      36.621 -19.768 -20.145  0.00  0.00    -0.236 N 
ATOM      2  N   UNL     1      36.673 -20.586 -19.080  0.00  0.00    -0.181 NA
ATOM      3  C   UNL     1      35.385 -19.689 -20.718  0.00  0.00    +0.067 C 
ATOM      4  C   UNL     1      35.420 -21.038 -18.982  0.00  0.00    +0.100 C 
ATOM      5  C   UNL     1      34.574 -20.513 -19.977  0.00  0.00    +0.037 C 
ATOM      6  H   UNL     1      37.402 -19.272 -20.480  0.00  0.00    +0.174 HD
ENDROOT
BRANCH   3   9
ATOM      7  O   UNL     1      35.292 -15.418 -23.104  0.00  0.00    -0.435 OA
ATOM      8  O   UNL     1      34.363 -16.425 -25.086  0.00  0.00    -0.435 OA
ATOM      9  C   UNL     1      35.108 -18.869 -21.873  0.00  0.00    +0.018 C 
ATOM     10  C   UNL     1      35.096 -16.757 -22.959  0.00  0.00    +0.176 C 
ATOM     11  C   UNL     1      35.380 -17.500 -21.832  0.00  0.00    +0.041 C 
ATOM     12  C   UNL     1      34.566 -17.332 -24.091  0.00  0.00    +0.176 C 
ATOM     13  C   UNL     1      34.565 -19.457 -23.029  0.00  0.00    +0.005 C 
ATOM     14  C   UNL     1      34.288 -18.682 -24.158  0.00  0.00    +0.040 C 
ATOM     15  C   UNL     1      34.825 -15.214 -24.453  0.00  0.00    +0.429 C 
ENDBRANCH   3   9
BRANCH   4  17
ATOM     16 BR   UNL     1      36.777 -23.462 -14.462  0.00  0.00    -0.049 Br
ATOM     17  C   UNL     1      35.054 -21.962 -17.941  0.00  0.00    +0.020 C 
ATOM     18  C   UNL     1      35.937 -22.218 -16.892  0.00  0.00    +0.008 C 
ATOM     19  C   UNL     1      33.815 -22.602 -17.981  0.00  0.00    +0.002 C 
ATOM     20  C   UNL     1      35.581 -23.114 -15.883  0.00  0.00    +0.035 C 
ATOM     21  C   UNL     1      33.459 -23.498 -16.973  0.00  0.00    +0.001 C 
ATOM     22  C   UNL     1      34.342 -23.754 -15.924  0.00  0.00    +0.007 C 
ENDBRANCH   4  17
TORSDOF 2
ENDMDL
MODEL 2
REMARK VINA RESULT:     -10.1      4.632      8.235
REMARK  Name = 44608289
REMARK  2 active torsions:
REMARK  status: ('A' for Active; 'I' for Inactive)
REMARK    1  A    between atoms: C_3  and  C_9
REMARK    2  A    between atoms: C_4  and  C_17
REMARK                            x       y       z     vdW  Elec       q    Type
REMARK                         _______ _______ _______ _____ _____    ______ ____
ROOT
ATOM      1  N   UNL     1      36.951 -20.088 -19.123  0.00  0.00    -0.236 N 
ATOM      2  N   UNL     1      36.910 -19.291 -20.204  0.00  0.00    -0.181 NA
ATOM      3  C   UNL     1      35.824 -20.838 -18.949  0.00  0.00    +0.067 C 
ATOM      4  C   UNL     1      35.710 -19.551 -20.729  0.00  0.00    +0.100 C 
ATOM      5  C   UNL     1      34.989 -20.507 -19.988  0.00  0.00    +0.037 C 
ATOM      6  H   UNL     1      37.722 -20.128 -18.513  0.00  0.00    +0.174 HD
ENDROOT
BRANCH   3   9
ATOM      7  O   UNL     1      37.379 -23.131 -14.915  0.00  0.00    -0.435 OA
ATOM      8  O   UNL     1      35.314 -24.353 -14.687  0.00  0.00    -0.435 OA
ATOM      9  C   UNL     1      35.658 -21.760 -17.851  0.00  0.00    +0.018 C 
ATOM     10  C   UNL     1      36.489 -22.830 -15.900  0.00  0.00    +0.176 C 
ATOM     11  C   UNL     1      36.694 -21.936 -16.931  0.00  0.00    +0.041 C 
ATOM     12  C   UNL     1      35.310 -23.527 -15.769  0.00  0.00    +0.176 C 
ATOM     13  C   UNL     1      34.453 -22.473 -17.719  0.00  0.00    +0.005 C 
ATOM     14  C   UNL     1      34.271 -23.371 -16.664  0.00  0.00    +0.040 C 
ATOM     15  C   UNL     1      36.629 -24.097 -14.151  0.00  0.00    +0.429 C 
ENDBRANCH   3   9
BRANCH   4  17
ATOM     16 BR   UNL     1      34.789 -14.954 -23.211  0.00  0.00    -0.049 Br
ATOM     17  C   UNL     1      35.273 -18.883 -21.926  0.00  0.00    +0.020 C 
ATOM     18  C   UNL     1      35.248 -17.489 -21.978  0.00  0.00    +0.008 C 
ATOM     19  C   UNL     1      34.874 -19.630 -23.035  0.00  0.00    +0.002 C 
ATOM     20  C   UNL     1      34.824 -16.842 -23.139  0.00  0.00    +0.035 C 
ATOM     21  C   UNL     1      34.450 -18.983 -24.196  0.00  0.00    +0.001 C 
ATOM     22  C   UNL     1      34.425 -17.589 -24.248  0.00  0.00    +0.007 C 
ENDBRANCH   4  17
TORSDOF 2
ENDMDL
MODEL 3
REMARK VINA RESULT:     -10.1      7.345     11.680
REMARK  Name = 44608289
REMARK  2 active torsions:
REMARK  status: ('A' for Active; 'I' for Inactive)
REMARK    1  A    between atoms: C_3  and  C_9
REMARK    2  A    between atoms: C_4  and  C_17
REMARK                            x       y       z     vdW  Elec       q    Type
REMARK                         _______ _______ _______ _____ _____    ______ ____
ROOT
ATOM      1  N   UNL     1      32.506 -11.818 -22.573  0.00  0.00    -0.236 N 
ATOM      2  N   UNL     1      32.407 -10.480 -22.506  0.00  0.00    -0.181 NA
ATOM      3  C   UNL     1      33.524 -12.256 -23.368  0.00  0.00    +0.067 C 
ATOM      4  C   UNL     1      33.403 -10.062 -23.292  0.00  0.00    +0.100 C 
ATOM      5  C   UNL     1      34.132 -11.125 -23.856  0.00  0.00    +0.037 C 
ATOM      6  H   UNL     1      31.900 -12.427 -22.092  0.00  0.00    +0.174 HD
ENDROOT
BRANCH   3   9
ATOM      7  O   UNL     1      35.456 -16.555 -22.052  0.00  0.00    -0.435 OA
ATOM      8  O   UNL     1      34.682 -17.637 -24.061  0.00  0.00    -0.435 OA
ATOM      9  C   UNL     1      33.807 -13.655 -23.580  0.00  0.00    +0.018 C 
ATOM     10  C   UNL     1      34.774 -15.705 -22.867  0.00  0.00    +0.176 C 
ATOM     11  C   UNL     1      34.527 -14.370 -22.620  0.00  0.00    +0.041 C 
ATOM     12  C   UNL     1      34.332 -16.323 -24.014  0.00  0.00    +0.176 C 
ATOM     13  C   UNL     1      33.355 -14.287 -24.753  0.00  0.00    +0.005 C 
ATOM     14  C   UNL     1      33.619 -15.640 -24.978  0.00  0.00    +0.040 C 
ATOM     15  C   UNL     1      35.394 -17.778 -22.815  0.00  0.00    +0.429 C 
ENDBRANCH   3   9
BRANCH   4  17
ATOM     16 BR   UNL     1      31.383  -5.301 -24.475  0.00  0.00    -0.049 Br
ATOM     17  C   UNL     1      33.641  -8.656 -23.489  0.00  0.00    +0.020 C 
ATOM     18  C   UNL     1      32.583  -7.811 -23.826  0.00  0.00    +0.008 C 
ATOM     19  C   UNL     1      34.928  -8.139 -23.343  0.00  0.00    +0.002 C 
ATOM     20  C   UNL     1      32.814  -6.448 -24.018  0.00  0.00    +0.035 C 
ATOM     21  C   UNL     1      35.159  -6.777 -23.535  0.00  0.00    +0.001 C 
ATOM     22  C   UNL     1      34.102  -5.931 -23.872  0.00  0.00    +0.007 C 
ENDBRANCH   4  17
TORSDOF 2
ENDMDL
MODEL 4
REMARK VINA RESULT:     -10.0      5.297      8.903
REMARK  Name = 44608289
REMARK  2 active torsions:
REMARK  status: ('A' for Active; 'I' for Inactive)
REMARK    1  A    between atoms: C_3  and  C_9
REMARK    2  A    between atoms: C_4  and  C_17
REMARK                            x       y       z     vdW  Elec       q    Type
REMARK                         _______ _______ _______ _____ _____    ______ ____
ROOT
ATOM      1  N   UNL     1      32.683 -22.414 -18.686  0.00  0.00    -0.236 N 
ATOM      2  N   UNL     1      33.094 -21.697 -19.746  0.00  0.00    -0.181 NA
ATOM      3  C   UNL     1      33.562 -22.408 -17.643  0.00  0.00    +0.067 C 
ATOM      4  C   UNL     1      34.278 -21.222 -19.351  0.00  0.00    +0.100 C 
ATOM      5  C   UNL     1      34.621 -21.633 -18.050  0.00  0.00    +0.037 C 
ATOM      6  H   UNL     1      31.827 -22.899 -18.664  0.00  0.00    +0.174 HD
ENDROOT
BRANCH   3   9
ATOM      7  O   UNL     1      30.626 -24.334 -14.236  0.00  0.00    -0.435 OA
ATOM      8  O   UNL     1      32.489 -25.104 -12.915  0.00  0.00    -0.435 OA
ATOM      9  C   UNL     1      33.319 -23.113 -16.408  0.00  0.00    +0.018 C 
ATOM     10  C   UNL     1      31.824 -24.021 -14.800  0.00  0.00    +0.176 C 
ATOM     11  C   UNL     1      32.006 -23.344 -15.988  0.00  0.00    +0.041 C 
ATOM     12  C   UNL     1      32.887 -24.461 -14.046  0.00  0.00    +0.176 C 
ATOM     13  C   UNL     1      34.406 -23.562 -15.637  0.00  0.00    +0.005 C 
ATOM     14  C   UNL     1      34.193 -24.246 -14.438  0.00  0.00    +0.040 C 
ATOM     15  C   UNL     1      31.054 -25.020 -13.041  0.00  0.00    +0.429 C 
ENDBRANCH   3   9
BRANCH   4  17
ATOM     16 BR   UNL     1      34.494 -18.387 -23.829  0.00  0.00    -0.049 Br
ATOM     17  C   UNL     1      35.060 -20.386 -20.224  0.00  0.00    +0.020 C 
ATOM     18  C   UNL     1      34.497 -19.881 -21.396  0.00  0.00    +0.008 C 
ATOM     19  C   UNL     1      36.382 -20.081 -19.897  0.00  0.00    +0.002 C 
ATOM     20  C   UNL     1      35.256 -19.071 -22.241  0.00  0.00    +0.035 C 
ATOM     21  C   UNL     1      37.140 -19.271 -20.742  0.00  0.00    +0.001 C 
ATOM     22  C   UNL     1      36.577 -18.766 -21.914  0.00  0.00    +0.007 C 
ENDBRANCH   4  17
TORSDOF 2
ENDMDL
MODEL 5
REMARK VINA RESULT:     -10.0      5.728      9.608
REMARK  Name = 44608289
REMARK  2 active torsions:
REMARK  status: ('A' for Active; 'I' for Inactive)
REMARK    1  A    between atoms: C_3  and  C_9
REMARK    2  A    between atoms: C_4  and  C_17
REMARK                            x       y       z     vdW  Elec       q    Type
REMARK                         _______ _______ _______ _____ _____    ______ ____
ROOT
ATOM      1  N   UNL     1      33.864 -24.259 -16.538  0.00  0.00    -0.236 N 
ATOM      2  N   UNL     1      33.555 -23.621 -17.679  0.00  0.00    -0.181 NA
ATOM      3  C   UNL     1      34.850 -23.652 -15.816  0.00  0.00    +0.067 C 
ATOM      4  C   UNL     1      34.381 -22.571 -17.674  0.00  0.00    +0.100 C 
ATOM      5  C   UNL     1      35.211 -22.540 -16.537  0.00  0.00    +0.037 C 
ATOM      6  H   UNL     1      33.420 -25.089 -16.248  0.00  0.00    +0.174 HD
ENDROOT
BRANCH   3   9
ATOM      7  O   UNL     1      34.886 -23.891 -10.929  0.00  0.00    -0.435 OA
ATOM      8  O   UNL     1      36.627 -25.557 -10.919  0.00  0.00    -0.435 OA
ATOM      9  C   UNL     1      35.335 -24.170 -14.560  0.00  0.00    +0.018 C 
ATOM     10  C   UNL     1      35.289 -24.225 -12.185  0.00  0.00    +0.176 C 
ATOM     11  C   UNL     1      34.792 -23.701 -13.361  0.00  0.00    +0.041 C 
ATOM     12  C   UNL     1      36.283 -25.177 -12.179  0.00  0.00    +0.176 C 
ATOM     13  C   UNL     1      36.351 -25.142 -14.554  0.00  0.00    +0.005 C 
ATOM     14  C   UNL     1      36.836 -25.656 -13.350  0.00  0.00    +0.040 C 
ATOM     15  C   UNL     1      35.738 -24.739 -10.132  0.00  0.00    +0.429 C 
ENDBRANCH   3   9
BRANCH   4  17
ATOM     16 BR   UNL     1      37.138 -19.286 -20.796  0.00  0.00    -0.049 Br
ATOM     17  C   UNL     1      34.362 -21.619 -18.753  0.00  0.00    +0.020 C 
ATOM     18  C   UNL     1      35.549 -21.021 -19.176  0.00  0.00    +0.008 C 
ATOM     19  C   UNL     1      33.156 -21.294 -19.375  0.00  0.00    +0.002 C 
ATOM     20  C   UNL     1      35.530 -20.097 -20.222  0.00  0.00    +0.035 C 
ATOM     21  C   UNL     1      33.138 -20.371 -20.420  0.00  0.00    +0.001 C 
ATOM     22  C   UNL     1      34.325 -19.772 -20.844  0.00  0.00    +0.007 C 
ENDBRANCH   4  17
TORSDOF 2
ENDMDL
MODEL 6
REMARK VINA RESULT:     -10.0      7.661      8.831
REMARK  Name = 44608289
REMARK  2 active torsions:
REMARK  status: ('A' for Active; 'I' for Inactive)
REMARK    1  A    between atoms: C_3  and  C_9
REMARK    2  A    between atoms: C_4  and  C_17
REMARK                            x       y       z     vdW  Elec       q    Type
REMARK                         _______ _______ _______ _____ _____    ______ ____
ROOT
ATOM      1  N   UNL     1      33.804 -23.672 -15.821  0.00  0.00    -0.236 N 
ATOM      2  N   UNL     1      35.099 -23.759 -15.472  0.00  0.00    -0.181 NA
ATOM      3  C   UNL     1      32.939 -23.953 -14.804  0.00  0.00    +0.067 C 
ATOM      4  C   UNL     1      35.044 -24.108 -14.184  0.00  0.00    +0.100 C 
ATOM      5  C   UNL     1      33.724 -24.244 -13.715  0.00  0.00    +0.037 C 
ATOM      6  H   UNL     1      33.507 -23.428 -16.727  0.00  0.00    +0.174 HD
ENDROOT
BRANCH   3   9
ATOM      7  O   UNL     1      28.801 -22.067 -16.609  0.00  0.00    -0.435 OA
ATOM      8  O   UNL     1      27.440 -23.712 -15.492  0.00  0.00    -0.435 OA
ATOM      9  C   UNL     1      31.505 -23.920 -14.962  0.00  0.00    +0.018 C 
ATOM     10  C   UNL     1      29.544 -22.943 -15.880  0.00  0.00    +0.176 C 
ATOM     11  C   UNL     1      30.918 -22.935 -15.760  0.00  0.00    +0.041 C 
ATOM     12  C   UNL     1      28.767 -23.883 -15.243  0.00  0.00    +0.176 C 
ATOM     13  C   UNL     1      30.711 -24.880 -14.310  0.00  0.00    +0.005 C 
ATOM     14  C   UNL     1      29.322 -24.866 -14.448  0.00  0.00    +0.040 C 
ATOM     15  C   UNL     1      27.469 -22.559 -16.359  0.00  0.00    +0.429 C 
ENDBRANCH   3   9
BRANCH   4  17
ATOM     16 BR   UNL     1      40.084 -25.762 -14.140  0.00  0.00    -0.049 Br
ATOM     17  C   UNL     1      36.251 -24.306 -13.426  0.00  0.00    +0.020 C 
ATOM     18  C   UNL     1      37.382 -24.843 -14.042  0.00  0.00    +0.008 C 
ATOM     19  C   UNL     1      36.290 -23.961 -12.075  0.00  0.00    +0.002 C 
ATOM     20  C   UNL     1      38.552 -25.035 -13.307  0.00  0.00    +0.035 C 
ATOM     21  C   UNL     1      37.460 -24.153 -11.340  0.00  0.00    +0.001 C 
ATOM     22  C   UNL     1      38.591 -24.690 -11.955  0.00  0.00    +0.007 C 
ENDBRANCH   4  17
TORSDOF 2
ENDMDL
MODEL 7
REMARK VINA RESULT:      -9.8      2.981      4.643
REMARK  Name = 44608289
REMARK  2 active torsions:
REMARK  status: ('A' for Active; 'I' for Inactive)
REMARK    1  A    between atoms: C_3  and  C_9
REMARK    2  A    between atoms: C_4  and  C_17
REMARK                            x       y       z     vdW  Elec       q    Type
REMARK                         _______ _______ _______ _____ _____    ______ ____
ROOT
ATOM      1  N   UNL     1      34.559 -22.953 -16.958  0.00  0.00    -0.236 N 
ATOM      2  N   UNL     1      34.813 -23.661 -15.844  0.00  0.00    -0.181 NA
ATOM      3  C   UNL     1      35.603 -22.176 -17.367  0.00  0.00    +0.067 C 
ATOM      4  C   UNL     1      36.066 -23.312 -15.542  0.00  0.00    +0.100 C 
ATOM      5  C   UNL     1      36.608 -22.389 -16.456  0.00  0.00    +0.037 C 
ATOM      6  H   UNL     1      33.699 -22.993 -17.436  0.00  0.00    +0.174 HD
ENDROOT
BRANCH   3   9
ATOM      7  O   UNL     1      37.558 -19.061 -20.595  0.00  0.00    -0.435 OA
ATOM      8  O   UNL     1      35.507 -18.912 -21.852  0.00  0.00    -0.435 OA
ATOM      9  C   UNL     1      35.543 -21.336 -18.540  0.00  0.00    +0.018 C 
ATOM     10  C   UNL     1      36.568 -19.828 -20.062  0.00  0.00    +0.176 C 
ATOM     11  C   UNL     1      36.674 -20.618 -18.936  0.00  0.00    +0.041 C 
ATOM     12  C   UNL     1      35.398 -19.743 -20.780  0.00  0.00    +0.176 C 
ATOM     13  C   UNL     1      34.346 -21.249 -19.272  0.00  0.00    +0.005 C 
ATOM     14  C   UNL     1      34.266 -20.442 -20.410  0.00  0.00    +0.040 C 
ATOM     15  C   UNL     1      36.879 -18.483 -21.729  0.00  0.00    +0.429 C 
ENDBRANCH   3   9
BRANCH   4  17
ATOM     16 BR   UNL     1      35.851 -24.382 -10.351  0.00  0.00    -0.049 Br
ATOM     17  C   UNL     1      36.723 -23.866 -14.387  0.00  0.00    +0.020 C 
ATOM     18  C   UNL     1      36.081 -23.857 -13.149  0.00  0.00    +0.008 C 
ATOM     19  C   UNL     1      38.002 -24.411 -14.507  0.00  0.00    +0.002 C 
ATOM     20  C   UNL     1      36.718 -24.394 -12.029  0.00  0.00    +0.035 C 
ATOM     21  C   UNL     1      38.638 -24.948 -13.388  0.00  0.00    +0.001 C 
ATOM     22  C   UNL     1      37.997 -24.939 -12.149  0.00  0.00    +0.007 C 
ENDBRANCH   4  17
TORSDOF 2
ENDMDL
MODEL 8
REMARK VINA RESULT:      -9.8      6.777     10.860
REMARK  Name = 44608289
REMARK  2 active torsions:
REMARK  status: ('A' for Active; 'I' for Inactive)
REMARK    1  A    between atoms: C_3  and  C_9
REMARK    2  A    between atoms: C_4  and  C_17
REMARK                            x       y       z     vdW  Elec       q    Type
REMARK                         _______ _______ _______ _____ _____    ______ ____
ROOT
ATOM      1  N   UNL     1      31.970 -13.026 -22.106  0.00  0.00    -0.236 N 
ATOM      2  N   UNL     1      31.526 -11.758 -22.145  0.00  0.00    -0.181 NA
ATOM      3  C   UNL     1      33.199 -13.198 -22.672  0.00  0.00    +0.067 C 
ATOM      4  C   UNL     1      32.518 -11.108 -22.760  0.00  0.00    +0.100 C 
ATOM      5  C   UNL     1      33.586 -11.955 -23.112  0.00  0.00    +0.037 C 
ATOM      6  H   UNL     1      31.455 -13.764 -21.706  0.00  0.00    +0.174 HD
ENDROOT
BRANCH   3   9
ATOM      7  O   UNL     1      35.505 -17.015 -20.659  0.00  0.00    -0.435 OA
ATOM      8  O   UNL     1      35.762 -18.116 -22.787  0.00  0.00    -0.435 OA
ATOM      9  C   UNL     1      33.860 -14.479 -22.738  0.00  0.00    +0.018 C 
ATOM     10  C   UNL     1      34.972 -16.293 -21.682  0.00  0.00    +0.176 C 
ATOM     11  C   UNL     1      34.345 -15.069 -21.569  0.00  0.00    +0.041 C 
ATOM     12  C   UNL     1      35.118 -16.923 -22.897  0.00  0.00    +0.176 C 
ATOM     13  C   UNL     1      34.011 -15.121 -23.980  0.00  0.00    +0.005 C 
ATOM     14  C   UNL     1      34.648 -16.360 -24.067  0.00  0.00    +0.040 C 
ATOM     15  C   UNL     1      36.004 -18.169 -21.366  0.00  0.00    +0.429 C 
ENDBRANCH   3   9
BRANCH   4  17
ATOM     16 BR   UNL     1      35.045  -6.595 -23.935  0.00  0.00    -0.049 Br
ATOM     17  C   UNL     1      32.427  -9.692 -23.001  0.00  0.00    +0.020 C 
ATOM     18  C   UNL     1      33.577  -8.960 -23.299  0.00  0.00    +0.008 C 
ATOM     19  C   UNL     1      31.190  -9.052 -22.937  0.00  0.00    +0.002 C 
ATOM     20  C   UNL     1      33.489  -7.587 -23.532  0.00  0.00    +0.035 C 
ATOM     21  C   UNL     1      31.101  -7.680 -23.170  0.00  0.00    +0.001 C 
ATOM     22  C   UNL     1      32.251  -6.947 -23.468  0.00  0.00    +0.007 C 
ENDBRANCH   4  17
TORSDOF 2
ENDMDL
MODEL 9
REMARK VINA RESULT:      -9.8      1.223      1.672
REMARK  Name = 44608289
REMARK  2 active torsions:
REMARK  status: ('A' for Active; 'I' for Inactive)
REMARK    1  A    between atoms: C_3  and  C_9
REMARK    2  A    between atoms: C_4  and  C_17
REMARK                            x       y       z     vdW  Elec       q    Type
REMARK                         _______ _______ _______ _____ _____    ______ ____
ROOT
ATOM      1  N   UNL     1      36.947 -19.092 -20.578  0.00  0.00    -0.236 N 
ATOM      2  N   UNL     1      37.230 -19.826 -19.489  0.00  0.00    -0.181 NA
ATOM      3  C   UNL     1      35.666 -19.238 -21.024  0.00  0.00    +0.067 C 
ATOM      4  C   UNL     1      36.079 -20.457 -19.241  0.00  0.00    +0.100 C 
ATOM      5  C   UNL     1      35.070 -20.129 -20.166  0.00  0.00    +0.037 C 
ATOM      6  H   UNL     1      37.604 -18.503 -21.015  0.00  0.00    +0.174 HD
ENDROOT
BRANCH   3   9
ATOM      7  O   UNL     1      34.627 -15.182 -23.557  0.00  0.00    -0.435 OA
ATOM      8  O   UNL     1      33.726 -16.440 -25.404  0.00  0.00    -0.435 OA
ATOM      9  C   UNL     1      35.153 -18.541 -22.179  0.00  0.00    +0.018 C 
ATOM     10  C   UNL     1      34.681 -16.525 -23.343  0.00  0.00    +0.176 C 
ATOM     11  C   UNL     1      35.184 -17.146 -22.218  0.00  0.00    +0.041 C 
ATOM     12  C   UNL     1      34.167 -17.243 -24.398  0.00  0.00    +0.176 C 
ATOM     13  C   UNL     1      34.627 -19.276 -23.257  0.00  0.00    +0.005 C 
ATOM     14  C   UNL     1      34.125 -18.623 -24.385  0.00  0.00    +0.040 C 
ATOM     15  C   UNL     1      34.020 -15.135 -24.865  0.00  0.00    +0.429 C 
ENDBRANCH   3   9
BRANCH   4  17
ATOM     16 BR   UNL     1      33.001 -23.750 -16.443  0.00  0.00    -0.049 Br
ATOM     17  C   UNL     1      35.964 -21.362 -18.127  0.00  0.00    +0.020 C 
ATOM     18  C   UNL     1      34.752 -22.004 -17.872  0.00  0.00    +0.008 C 
ATOM     19  C   UNL     1      37.066 -21.596 -17.304  0.00  0.00    +0.002 C 
ATOM     20  C   UNL     1      34.642 -22.880 -16.791  0.00  0.00    +0.035 C 
ATOM     21  C   UNL     1      36.955 -22.473 -16.224  0.00  0.00    +0.001 C 
ATOM     22  C   UNL     1      35.743 -23.115 -15.968  0.00  0.00    +0.007 C 
ENDBRANCH   4  17
TORSDOF 2
ENDMDL
