MODEL 1
REMARK VINA RESULT:     -12.1      0.000      0.000
REMARK  Name = 10172943
REMARK  7 active torsions:
REMARK  status: ('A' for Active; 'I' for Inactive)
REMARK    1  A    between atoms: O_1  and  C_3
REMARK    2  A    between atoms: O_1  and  C_19
REMARK    3  A    between atoms: C_4  and  C_11
REMARK    4  A    between atoms: C_19  and  C_20
REMARK    5  A    between atoms: C_20  and  N_21
REMARK    6  A    between atoms: C_20  and  C_25
REMARK    7  A    between atoms: C_25  and  C_27
REMARK                            x       y       z     vdW  Elec       q    Type
REMARK                         _______ _______ _______ _____ _____    ______ ____
ROOT
ATOM      1  O   UNL     1      35.807 -17.262 -22.421  0.00  0.00    -0.476 OA
ENDROOT
BRANCH   1   3
ATOM      2  N   UNL     1      33.993 -15.669 -25.150  0.00  0.00    -0.239 NA
ATOM      3  C   UNL     1      35.013 -16.365 -23.087  0.00  0.00    +0.158 C 
ATOM      4  C   UNL     1      33.643 -14.405 -23.119  0.00  0.00    +0.022 C 
ATOM      5  C   UNL     1      34.445 -15.297 -22.417  0.00  0.00    +0.040 C 
ATOM      6  C   UNL     1      34.767 -16.515 -24.435  0.00  0.00    +0.136 C 
ATOM      7  C   UNL     1      33.450 -14.632 -24.472  0.00  0.00    +0.099 C 
BRANCH   4  11
ATOM      8  N   UNL     1      31.472  -9.216 -21.709  0.00  0.00    -0.280 N 
ATOM      9  N   UNL     1      31.302 -10.035 -20.653  0.00  0.00    -0.173 NA
ATOM     10  C   UNL     1      32.323 -11.078 -22.394  0.00  0.00    +0.032 A 
ATOM     11  C   UNL     1      33.029 -13.277 -22.458  0.00  0.00    +0.002 C 
ATOM     12  C   UNL     1      31.823 -11.210 -21.046  0.00  0.00    +0.102 A 
ATOM     13  C   UNL     1      32.935 -12.057 -23.164  0.00  0.00    +0.003 C 
ATOM     14  C   UNL     1      32.082  -9.791 -22.785  0.00  0.00    +0.053 A 
ATOM     15  C   UNL     1      32.546 -13.454 -21.119  0.00  0.00    +0.002 C 
ATOM     16  C   UNL     1      31.927 -12.435 -20.362  0.00  0.00    +0.021 C 
ATOM     17  C   UNL     1      32.346  -9.043 -24.025  0.00  0.00    +0.051 C 
ATOM     18  H   UNL     1      31.180  -8.276 -21.704  0.00  0.00    +0.189 HD
ENDBRANCH   4  11
ENDBRANCH   1   3
BRANCH   1  19
ATOM     19  C   UNL     1      35.326 -17.741 -21.173  0.00  0.00    +0.184 C 
BRANCH  19  20
ATOM     20  C   UNL     1      34.820 -19.186 -21.272  0.00  0.00    -0.017 C 
BRANCH  20  21
ATOM     21  N   UNL     1      34.897 -19.614 -22.675  0.00  0.00    +0.384 N 
ATOM     22  H   UNL     1      34.821 -18.799 -23.283  0.00  0.00    -0.089 HD
ATOM     23  H   UNL     1      34.134 -20.260 -22.874  0.00  0.00    -0.089 HD
ATOM     24  H   UNL     1      35.789 -20.080 -22.839  0.00  0.00    -0.089 HD
ENDBRANCH  20  21
BRANCH  20  25
ATOM     25  C   UNL     1      35.612 -20.184 -20.386  0.00  0.00    +0.009 C 
BRANCH  25  27
ATOM     26  N   UNL     1      33.027 -22.145 -18.711  0.00  0.00    -0.312 N 
ATOM     27  C   UNL     1      34.769 -21.031 -19.517  0.00  0.00    -0.008 C 
ATOM     28  C   UNL     1      35.170 -21.672 -18.312  0.00  0.00    +0.011 C 
ATOM     29  C   UNL     1      34.058 -22.363 -17.826  0.00  0.00    +0.048 C 
ATOM     30  C   UNL     1      33.446 -21.340 -19.737  0.00  0.00    +0.058 C 
ATOM     31  C   UNL     1      36.375 -21.731 -17.585  0.00  0.00    +0.001 C 
ATOM     32  C   UNL     1      34.092 -23.114 -16.645  0.00  0.00    +0.015 C 
ATOM     33  C   UNL     1      36.424 -22.477 -16.402  0.00  0.00    +0.000 C 
ATOM     34  C   UNL     1      35.299 -23.158 -15.941  0.00  0.00    +0.001 C 
ATOM     35  H   UNL     1      32.118 -22.512 -18.619  0.00  0.00    +0.152 HD
ENDBRANCH  25  27
ENDBRANCH  20  25
ENDBRANCH  19  20
ENDBRANCH   1  19
TORSDOF 7
ENDMDL
MODEL 2
REMARK VINA RESULT:     -11.9      2.031      9.983
REMARK  Name = 10172943
REMARK  7 active torsions:
REMARK  status: ('A' for Active; 'I' for Inactive)
REMARK    1  A    between atoms: O_1  and  C_3
REMARK    2  A    between atoms: O_1  and  C_19
REMARK    3  A    between atoms: C_4  and  C_11
REMARK    4  A    between atoms: C_19  and  C_20
REMARK    5  A    between atoms: C_20  and  N_21
REMARK    6  A    between atoms: C_20  and  C_25
REMARK    7  A    between atoms: C_25  and  C_27
REMARK                            x       y       z     vdW  Elec       q    Type
REMARK                         _______ _______ _______ _____ _____    ______ ____
ROOT
ATOM      1  O   UNL     1      34.585 -13.827 -22.905  0.00  0.00    -0.476 OA
ENDROOT
BRANCH   1   3
ATOM      2  N   UNL     1      34.301 -16.894 -24.852  0.00  0.00    -0.239 NA
ATOM      3  C   UNL     1      34.628 -15.161 -23.217  0.00  0.00    +0.158 C 
ATOM      4  C   UNL     1      35.058 -17.436 -22.621  0.00  0.00    +0.022 C 
ATOM      5  C   UNL     1      35.023 -16.091 -22.273  0.00  0.00    +0.040 C 
ATOM      6  C   UNL     1      34.280 -15.595 -24.478  0.00  0.00    +0.136 C 
ATOM      7  C   UNL     1      34.690 -17.784 -23.911  0.00  0.00    +0.099 C 
BRANCH   4  11
ATOM      8  N   UNL     1      35.287 -21.764 -18.767  0.00  0.00    -0.280 N 
ATOM      9  N   UNL     1      36.543 -21.313 -18.956  0.00  0.00    -0.173 NA
ATOM     10  C   UNL     1      35.024 -20.179 -20.208  0.00  0.00    +0.032 A 
ATOM     11  C   UNL     1      35.465 -18.442 -21.667  0.00  0.00    +0.002 C 
ATOM     12  C   UNL     1      36.416 -20.320 -19.853  0.00  0.00    +0.102 A 
ATOM     13  C   UNL     1      34.471 -19.270 -21.101  0.00  0.00    +0.003 C 
ATOM     14  C   UNL     1      34.332 -21.118 -19.496  0.00  0.00    +0.053 A 
ATOM     15  C   UNL     1      36.859 -18.546 -21.344  0.00  0.00    +0.002 C 
ATOM     16  C   UNL     1      37.389 -19.483 -20.429  0.00  0.00    +0.021 C 
ATOM     17  C   UNL     1      32.908 -21.481 -19.415  0.00  0.00    +0.051 C 
ATOM     18  H   UNL     1      35.075 -22.502 -18.151  0.00  0.00    +0.189 HD
ENDBRANCH   4  11
ENDBRANCH   1   3
BRANCH   1  19
ATOM     19  C   UNL     1      33.829 -12.990 -23.769  0.00  0.00    +0.184 C 
BRANCH  19  20
ATOM     20  C   UNL     1      33.894 -11.518 -23.340  0.00  0.00    -0.017 C 
BRANCH  20  21
ATOM     21  N   UNL     1      34.922 -10.842 -24.140  0.00  0.00    +0.384 N 
ATOM     22  H   UNL     1      35.822 -11.300 -23.994  0.00  0.00    -0.089 HD
ATOM     23  H   UNL     1      34.987  -9.865 -23.854  0.00  0.00    -0.089 HD
ATOM     24  H   UNL     1      34.671 -10.891 -25.127  0.00  0.00    -0.089 HD
ENDBRANCH  20  21
BRANCH  20  25
ATOM     25  C   UNL     1      32.545 -10.766 -23.492  0.00  0.00    +0.009 C 
BRANCH  25  27
ATOM     26  N   UNL     1      31.933  -7.831 -21.408  0.00  0.00    -0.312 N 
ATOM     27  C   UNL     1      32.281  -9.767 -22.437  0.00  0.00    -0.008 C 
ATOM     28  C   UNL     1      32.081 -10.028 -21.053  0.00  0.00    +0.011 C 
ATOM     29  C   UNL     1      31.865  -8.797 -20.430  0.00  0.00    +0.048 C 
ATOM     30  C   UNL     1      32.184  -8.406 -22.625  0.00  0.00    +0.058 C 
ATOM     31  C   UNL     1      32.062 -11.198 -20.268  0.00  0.00    +0.001 C 
ATOM     32  C   UNL     1      31.631  -8.677 -19.055  0.00  0.00    +0.015 C 
ATOM     33  C   UNL     1      31.829 -11.093 -18.892  0.00  0.00    +0.000 C 
ATOM     34  C   UNL     1      31.616  -9.851 -18.297  0.00  0.00    +0.001 C 
ATOM     35  H   UNL     1      31.819  -6.865 -21.255  0.00  0.00    +0.152 HD
ENDBRANCH  25  27
ENDBRANCH  20  25
ENDBRANCH  19  20
ENDBRANCH   1  19
TORSDOF 7
ENDMDL
MODEL 3
REMARK VINA RESULT:     -11.9      2.052     10.203
REMARK  Name = 10172943
REMARK  7 active torsions:
REMARK  status: ('A' for Active; 'I' for Inactive)
REMARK    1  A    between atoms: O_1  and  C_3
REMARK    2  A    between atoms: O_1  and  C_19
REMARK    3  A    between atoms: C_4  and  C_11
REMARK    4  A    between atoms: C_19  and  C_20
REMARK    5  A    between atoms: C_20  and  N_21
REMARK    6  A    between atoms: C_20  and  C_25
REMARK    7  A    between atoms: C_25  and  C_27
REMARK                            x       y       z     vdW  Elec       q    Type
REMARK                         _______ _______ _______ _____ _____    ______ ____
ROOT
ATOM      1  O   UNL     1      34.479 -13.896 -22.607  0.00  0.00    -0.476 OA
ENDROOT
BRANCH   1   3
ATOM      2  N   UNL     1      34.497 -16.872 -24.710  0.00  0.00    -0.239 NA
ATOM      3  C   UNL     1      34.613 -15.209 -22.977  0.00  0.00    +0.158 C 
ATOM      4  C   UNL     1      35.114 -17.489 -22.456  0.00  0.00    +0.022 C 
ATOM      5  C   UNL     1      34.985 -16.166 -22.050  0.00  0.00    +0.040 C 
ATOM      6  C   UNL     1      34.382 -15.596 -24.279  0.00  0.00    +0.136 C 
ATOM      7  C   UNL     1      34.861 -17.788 -23.785  0.00  0.00    +0.099 C 
BRANCH   4  11
ATOM      8  N   UNL     1      35.255 -21.893 -18.686  0.00  0.00    -0.280 N 
ATOM      9  N   UNL     1      36.520 -21.464 -18.866  0.00  0.00    -0.173 NA
ATOM     10  C   UNL     1      35.025 -20.276 -20.096  0.00  0.00    +0.032 A 
ATOM     11  C   UNL     1      35.501 -18.520 -21.521  0.00  0.00    +0.002 C 
ATOM     12  C   UNL     1      36.414 -20.451 -19.743  0.00  0.00    +0.102 A 
ATOM     13  C   UNL     1      34.490 -19.339 -20.972  0.00  0.00    +0.003 C 
ATOM     14  C   UNL     1      34.314 -21.214 -19.402  0.00  0.00    +0.053 A 
ATOM     15  C   UNL     1      36.892 -18.658 -21.200  0.00  0.00    +0.002 C 
ATOM     16  C   UNL     1      37.404 -19.623 -20.304  0.00  0.00    +0.021 C 
ATOM     17  C   UNL     1      32.883 -21.551 -19.328  0.00  0.00    +0.051 C 
ATOM     18  H   UNL     1      35.029 -22.639 -18.084  0.00  0.00    +0.189 HD
ENDBRANCH   4  11
ENDBRANCH   1   3
BRANCH   1  19
ATOM     19  C   UNL     1      33.700 -13.633 -21.448  0.00  0.00    +0.184 C 
BRANCH  19  20
ATOM     20  C   UNL     1      32.604 -12.594 -21.720  0.00  0.00    -0.017 C 
BRANCH  20  21
ATOM     21  N   UNL     1      31.773 -13.070 -22.832  0.00  0.00    +0.384 N 
ATOM     22  H   UNL     1      31.626 -12.310 -23.496  0.00  0.00    -0.089 HD
ATOM     23  H   UNL     1      30.873 -13.387 -22.472  0.00  0.00    -0.089 HD
ATOM     24  H   UNL     1      32.243 -13.845 -23.300  0.00  0.00    -0.089 HD
ENDBRANCH  20  21
BRANCH  20  25
ATOM     25  C   UNL     1      31.703 -12.305 -20.491  0.00  0.00    +0.009 C 
BRANCH  25  27
ATOM     26  N   UNL     1      32.157  -9.272 -18.508  0.00  0.00    -0.312 N 
ATOM     27  C   UNL     1      31.846 -10.943 -19.935  0.00  0.00    -0.008 C 
ATOM     28  C   UNL     1      31.749  -9.720 -20.655  0.00  0.00    +0.011 C 
ATOM     29  C   UNL     1      31.948  -8.687 -19.736  0.00  0.00    +0.048 C 
ATOM     30  C   UNL     1      32.096 -10.636 -18.617  0.00  0.00    +0.058 C 
ATOM     31  C   UNL     1      31.512  -9.391 -22.004  0.00  0.00    +0.001 C 
ATOM     32  C   UNL     1      31.922  -7.336 -20.101  0.00  0.00    +0.015 C 
ATOM     33  C   UNL     1      31.483  -8.044 -22.384  0.00  0.00    +0.000 C 
ATOM     34  C   UNL     1      31.685  -7.034 -21.445  0.00  0.00    +0.001 C 
ATOM     35  H   UNL     1      32.324  -8.781 -17.671  0.00  0.00    +0.152 HD
ENDBRANCH  25  27
ENDBRANCH  20  25
ENDBRANCH  19  20
ENDBRANCH   1  19
TORSDOF 7
ENDMDL
MODEL 4
REMARK VINA RESULT:     -11.8      1.128      1.585
REMARK  Name = 10172943
REMARK  7 active torsions:
REMARK  status: ('A' for Active; 'I' for Inactive)
REMARK    1  A    between atoms: O_1  and  C_3
REMARK    2  A    between atoms: O_1  and  C_19
REMARK    3  A    between atoms: C_4  and  C_11
REMARK    4  A    between atoms: C_19  and  C_20
REMARK    5  A    between atoms: C_20  and  N_21
REMARK    6  A    between atoms: C_20  and  C_25
REMARK    7  A    between atoms: C_25  and  C_27
REMARK                            x       y       z     vdW  Elec       q    Type
REMARK                         _______ _______ _______ _____ _____    ______ ____
ROOT
ATOM      1  O   UNL     1      35.638 -16.996 -23.007  0.00  0.00    -0.476 OA
ENDROOT
BRANCH   1   3
ATOM      2  N   UNL     1      33.457 -15.424 -25.468  0.00  0.00    -0.239 NA
ATOM      3  C   UNL     1      34.755 -16.106 -23.561  0.00  0.00    +0.158 C 
ATOM      4  C   UNL     1      33.382 -14.153 -23.412  0.00  0.00    +0.022 C 
ATOM      5  C   UNL     1      34.278 -15.037 -22.823  0.00  0.00    +0.040 C 
ATOM      6  C   UNL     1      34.326 -16.263 -24.861  0.00  0.00    +0.136 C 
ATOM      7  C   UNL     1      33.007 -14.387 -24.725  0.00  0.00    +0.099 C 
BRANCH   4  11
ATOM      8  N   UNL     1      31.582  -8.919 -21.680  0.00  0.00    -0.280 N 
ATOM      9  N   UNL     1      31.389  -9.780 -20.661  0.00  0.00    -0.173 NA
ATOM     10  C   UNL     1      32.294 -10.792 -22.482  0.00  0.00    +0.032 A 
ATOM     11  C   UNL     1      32.859 -13.024 -22.678  0.00  0.00    +0.002 C 
ATOM     12  C   UNL     1      31.824 -10.963 -21.128  0.00  0.00    +0.102 A 
ATOM     13  C   UNL     1      32.823 -11.767 -23.319  0.00  0.00    +0.003 C 
ATOM     14  C   UNL     1      32.124  -9.475 -22.801  0.00  0.00    +0.053 A 
ATOM     15  C   UNL     1      32.403 -13.240 -21.335  0.00  0.00    +0.002 C 
ATOM     16  C   UNL     1      31.870 -12.226 -20.509  0.00  0.00    +0.021 C 
ATOM     17  C   UNL     1      32.401  -8.681 -24.011  0.00  0.00    +0.051 C 
ATOM     18  H   UNL     1      31.349  -7.965 -21.619  0.00  0.00    +0.189 HD
ENDBRANCH   4  11
ENDBRANCH   1   3
BRANCH   1  19
ATOM     19  C   UNL     1      35.190 -18.337 -22.864  0.00  0.00    +0.184 C 
BRANCH  19  20
ATOM     20  C   UNL     1      35.666 -18.960 -21.545  0.00  0.00    -0.017 C 
BRANCH  20  21
ATOM     21  N   UNL     1      35.875 -17.884 -20.567  0.00  0.00    +0.384 N 
ATOM     22  H   UNL     1      36.553 -17.217 -20.937  0.00  0.00    -0.089 HD
ATOM     23  H   UNL     1      36.228 -18.281 -19.696  0.00  0.00    -0.089 HD
ATOM     24  H   UNL     1      34.990 -17.409 -20.391  0.00  0.00    -0.089 HD
ENDBRANCH  20  21
BRANCH  20  25
ATOM     25  C   UNL     1      34.679 -20.003 -20.958  0.00  0.00    +0.009 C 
BRANCH  25  27
ATOM     26  N   UNL     1      36.615 -21.679 -18.355  0.00  0.00    -0.312 N 
ATOM     27  C   UNL     1      35.209 -20.769 -19.811  0.00  0.00    -0.008 C 
ATOM     28  C   UNL     1      34.449 -21.504 -18.859  0.00  0.00    +0.011 C 
ATOM     29  C   UNL     1      35.355 -22.066 -17.957  0.00  0.00    +0.048 C 
ATOM     30  C   UNL     1      36.537 -20.896 -19.475  0.00  0.00    +0.058 C 
ATOM     31  C   UNL     1      33.073 -21.747 -18.678  0.00  0.00    +0.001 C 
ATOM     32  C   UNL     1      34.952 -22.861 -16.878  0.00  0.00    +0.015 C 
ATOM     33  C   UNL     1      32.655 -22.540 -17.603  0.00  0.00    +0.000 C 
ATOM     34  C   UNL     1      33.582 -23.087 -16.718  0.00  0.00    +0.001 C 
ATOM     35  H   UNL     1      37.451 -21.931 -17.900  0.00  0.00    +0.152 HD
ENDBRANCH  25  27
ENDBRANCH  20  25
ENDBRANCH  19  20
ENDBRANCH   1  19
TORSDOF 7
ENDMDL
MODEL 5
REMARK VINA RESULT:     -11.7      2.976      5.866
REMARK  Name = 10172943
REMARK  7 active torsions:
REMARK  status: ('A' for Active; 'I' for Inactive)
REMARK    1  A    between atoms: O_1  and  C_3
REMARK    2  A    between atoms: O_1  and  C_19
REMARK    3  A    between atoms: C_4  and  C_11
REMARK    4  A    between atoms: C_19  and  C_20
REMARK    5  A    between atoms: C_20  and  N_21
REMARK    6  A    between atoms: C_20  and  C_25
REMARK    7  A    between atoms: C_25  and  C_27
REMARK                            x       y       z     vdW  Elec       q    Type
REMARK                         _______ _______ _______ _____ _____    ______ ____
ROOT
ATOM      1  O   UNL     1      35.009 -21.926 -19.428  0.00  0.00    -0.476 OA
ENDROOT
BRANCH   1   3
ATOM      2  N   UNL     1      37.504 -19.320 -19.936  0.00  0.00    -0.239 NA
ATOM      3  C   UNL     1      35.620 -20.814 -19.946  0.00  0.00    +0.158 C 
ATOM      4  C   UNL     1      35.660 -18.963 -21.459  0.00  0.00    +0.022 C 
ATOM      5  C   UNL     1      35.015 -20.085 -20.954  0.00  0.00    +0.040 C 
ATOM      6  C   UNL     1      36.847 -20.405 -19.470  0.00  0.00    +0.136 C 
ATOM      7  C   UNL     1      36.892 -18.624 -20.921  0.00  0.00    +0.099 C 
BRANCH   4  11
ATOM      8  N   UNL     1      33.584 -14.705 -24.805  0.00  0.00    -0.280 N 
ATOM      9  N   UNL     1      33.395 -15.870 -25.455  0.00  0.00    -0.173 NA
ATOM     10  C   UNL     1      34.401 -16.164 -23.440  0.00  0.00    +0.032 A 
ATOM     11  C   UNL     1      35.066 -18.173 -22.513  0.00  0.00    +0.002 C 
ATOM     12  C   UNL     1      33.895 -16.806 -24.630  0.00  0.00    +0.102 A 
ATOM     13  C   UNL     1      34.997 -16.773 -22.343  0.00  0.00    +0.003 C 
ATOM     14  C   UNL     1      34.186 -14.822 -23.587  0.00  0.00    +0.053 A 
ATOM     15  C   UNL     1      34.576 -18.853 -23.677  0.00  0.00    +0.002 C 
ATOM     16  C   UNL     1      33.974 -18.203 -24.777  0.00  0.00    +0.021 C 
ATOM     17  C   UNL     1      34.472 -13.652 -22.741  0.00  0.00    +0.051 C 
ATOM     18  H   UNL     1      33.309 -13.837 -25.180  0.00  0.00    +0.189 HD
ENDBRANCH   4  11
ENDBRANCH   1   3
BRANCH   1  19
ATOM     19  C   UNL     1      33.758 -21.730 -18.784  0.00  0.00    +0.184 C 
BRANCH  19  20
ATOM     20  C   UNL     1      33.472 -22.824 -17.746  0.00  0.00    -0.017 C 
BRANCH  20  21
ATOM     21  N   UNL     1      33.554 -24.131 -18.409  0.00  0.00    +0.384 N 
ATOM     22  H   UNL     1      32.661 -24.341 -18.856  0.00  0.00    -0.089 HD
ATOM     23  H   UNL     1      33.766 -24.850 -17.717  0.00  0.00    -0.089 HD
ATOM     24  H   UNL     1      34.291 -24.109 -19.113  0.00  0.00    -0.089 HD
ENDBRANCH  20  21
BRANCH  20  25
ATOM     25  C   UNL     1      34.442 -22.800 -16.535  0.00  0.00    +0.009 C 
BRANCH  25  27
ATOM     26  N   UNL     1      34.027 -25.024 -13.669  0.00  0.00    -0.312 N 
ATOM     27  C   UNL     1      34.003 -23.616 -15.384  0.00  0.00    -0.008 C 
ATOM     28  C   UNL     1      32.686 -23.687 -14.849  0.00  0.00    +0.011 C 
ATOM     29  C   UNL     1      32.729 -24.578 -13.774  0.00  0.00    +0.048 C 
ATOM     30  C   UNL     1      34.805 -24.449 -14.638  0.00  0.00    +0.058 C 
ATOM     31  C   UNL     1      31.459 -23.078 -15.176  0.00  0.00    +0.001 C 
ATOM     32  C   UNL     1      31.601 -24.890 -13.006  0.00  0.00    +0.015 C 
ATOM     33  C   UNL     1      30.322 -23.380 -14.418  0.00  0.00    +0.000 C 
ATOM     34  C   UNL     1      30.395 -24.272 -13.349  0.00  0.00    +0.001 C 
ATOM     35  H   UNL     1      34.349 -25.665 -12.995  0.00  0.00    +0.152 HD
ENDBRANCH  25  27
ENDBRANCH  20  25
ENDBRANCH  19  20
ENDBRANCH   1  19
TORSDOF 7
ENDMDL
MODEL 6
REMARK VINA RESULT:     -11.7      2.963      5.693
REMARK  Name = 10172943
REMARK  7 active torsions:
REMARK  status: ('A' for Active; 'I' for Inactive)
REMARK    1  A    between atoms: O_1  and  C_3
REMARK    2  A    between atoms: O_1  and  C_19
REMARK    3  A    between atoms: C_4  and  C_11
REMARK    4  A    between atoms: C_19  and  C_20
REMARK    5  A    between atoms: C_20  and  N_21
REMARK    6  A    between atoms: C_20  and  C_25
REMARK    7  A    between atoms: C_25  and  C_27
REMARK                            x       y       z     vdW  Elec       q    Type
REMARK                         _______ _______ _______ _____ _____    ______ ____
ROOT
ATOM      1  O   UNL     1      34.916 -22.004 -19.518  0.00  0.00    -0.476 OA
ENDROOT
BRANCH   1   3
ATOM      2  N   UNL     1      37.382 -19.338 -19.826  0.00  0.00    -0.239 NA
ATOM      3  C   UNL     1      35.529 -20.865 -19.971  0.00  0.00    +0.158 C 
ATOM      4  C   UNL     1      35.606 -18.967 -21.424  0.00  0.00    +0.022 C 
ATOM      5  C   UNL     1      34.960 -20.116 -20.985  0.00  0.00    +0.040 C 
ATOM      6  C   UNL     1      36.724 -20.449 -19.425  0.00  0.00    +0.136 C 
ATOM      7  C   UNL     1      36.804 -18.623 -20.818  0.00  0.00    +0.099 C 
BRANCH   4  11
ATOM      8  N   UNL     1      33.673 -14.638 -24.764  0.00  0.00    -0.280 N 
ATOM      9  N   UNL     1      33.478 -15.793 -25.432  0.00  0.00    -0.173 NA
ATOM     10  C   UNL     1      34.437 -16.126 -23.399  0.00  0.00    +0.032 A 
ATOM     11  C   UNL     1      35.047 -18.156 -22.481  0.00  0.00    +0.002 C 
ATOM     12  C   UNL     1      33.944 -16.746 -24.606  0.00  0.00    +0.102 A 
ATOM     13  C   UNL     1      34.999 -16.757 -22.297  0.00  0.00    +0.003 C 
ATOM     14  C   UNL     1      34.248 -14.779 -23.535  0.00  0.00    +0.053 A 
ATOM     15  C   UNL     1      34.571 -18.815 -23.663  0.00  0.00    +0.002 C 
ATOM     16  C   UNL     1      34.003 -18.142 -24.768  0.00  0.00    +0.021 C 
ATOM     17  C   UNL     1      34.535 -13.623 -22.670  0.00  0.00    +0.051 C 
ATOM     18  H   UNL     1      33.421 -13.762 -25.135  0.00  0.00    +0.189 HD
ENDBRANCH   4  11
ENDBRANCH   1   3
BRANCH   1  19
ATOM     19  C   UNL     1      35.033 -22.286 -18.130  0.00  0.00    +0.184 C 
BRANCH  19  20
ATOM     20  C   UNL     1      33.661 -22.375 -17.449  0.00  0.00    -0.017 C 
BRANCH  20  21
ATOM     21  N   UNL     1      32.620 -22.148 -18.459  0.00  0.00    +0.384 N 
ATOM     22  H   UNL     1      32.541 -21.148 -18.646  0.00  0.00    -0.089 HD
ATOM     23  H   UNL     1      31.728 -22.502 -18.112  0.00  0.00    -0.089 HD
ATOM     24  H   UNL     1      32.869 -22.637 -19.318  0.00  0.00    -0.089 HD
ENDBRANCH  20  21
BRANCH  20  25
ATOM     25  C   UNL     1      33.405 -23.733 -16.742  0.00  0.00    +0.009 C 
BRANCH  25  27
ATOM     26  N   UNL     1      33.014 -23.267 -13.142  0.00  0.00    -0.312 N 
ATOM     27  C   UNL     1      33.495 -23.681 -15.268  0.00  0.00    -0.008 C 
ATOM     28  C   UNL     1      34.544 -24.207 -14.464  0.00  0.00    +0.011 C 
ATOM     29  C   UNL     1      34.218 -23.934 -13.134  0.00  0.00    +0.048 C 
ATOM     30  C   UNL     1      32.569 -23.108 -14.427  0.00  0.00    +0.058 C 
ATOM     31  C   UNL     1      35.743 -24.893 -14.741  0.00  0.00    +0.001 C 
ATOM     32  C   UNL     1      35.035 -24.313 -12.062  0.00  0.00    +0.015 C 
ATOM     33  C   UNL     1      36.570 -25.278 -13.679  0.00  0.00    +0.000 C 
ATOM     34  C   UNL     1      36.219 -24.992 -12.361  0.00  0.00    +0.001 C 
ATOM     35  H   UNL     1      32.541 -22.948 -12.339  0.00  0.00    +0.152 HD
ENDBRANCH  25  27
ENDBRANCH  20  25
ENDBRANCH  19  20
ENDBRANCH   1  19
TORSDOF 7
ENDMDL
MODEL 7
REMARK VINA RESULT:     -11.7      3.114     10.910
REMARK  Name = 10172943
REMARK  7 active torsions:
REMARK  status: ('A' for Active; 'I' for Inactive)
REMARK    1  A    between atoms: O_1  and  C_3
REMARK    2  A    between atoms: O_1  and  C_19
REMARK    3  A    between atoms: C_4  and  C_11
REMARK    4  A    between atoms: C_19  and  C_20
REMARK    5  A    between atoms: C_20  and  N_21
REMARK    6  A    between atoms: C_20  and  C_25
REMARK    7  A    between atoms: C_25  and  C_27
REMARK                            x       y       z     vdW  Elec       q    Type
REMARK                         _______ _______ _______ _____ _____    ______ ____
ROOT
ATOM      1  O   UNL     1      35.289 -21.823 -19.438  0.00  0.00    -0.476 OA
ENDROOT
BRANCH   1   3
ATOM      2  N   UNL     1      36.606 -22.156 -16.057  0.00  0.00    -0.239 NA
ATOM      3  C   UNL     1      35.341 -22.124 -18.102  0.00  0.00    +0.158 C 
ATOM      4  C   UNL     1      34.327 -22.963 -16.106  0.00  0.00    +0.022 C 
ATOM      5  C   UNL     1      34.244 -22.671 -17.462  0.00  0.00    +0.040 C 
ATOM      6  C   UNL     1      36.487 -21.885 -17.376  0.00  0.00    +0.136 C 
ATOM      7  C   UNL     1      35.519 -22.691 -15.454  0.00  0.00    +0.099 C 
BRANCH   4  11
ATOM      8  N   UNL     1      29.073 -24.661 -14.333  0.00  0.00    -0.280 N 
ATOM      9  N   UNL     1      29.977 -25.121 -13.445  0.00  0.00    -0.173 NA
ATOM     10  C   UNL     1      30.947 -23.950 -15.132  0.00  0.00    +0.032 A 
ATOM     11  C   UNL     1      33.205 -23.534 -15.397  0.00  0.00    +0.002 C 
ATOM     12  C   UNL     1      31.162 -24.694 -13.913  0.00  0.00    +0.102 A 
ATOM     13  C   UNL     1      31.910 -23.343 -15.927  0.00  0.00    +0.003 C 
ATOM     14  C   UNL     1      29.602 -23.950 -15.369  0.00  0.00    +0.053 A 
ATOM     15  C   UNL     1      33.465 -24.266 -14.191  0.00  0.00    +0.002 C 
ATOM     16  C   UNL     1      32.461 -24.873 -13.404  0.00  0.00    +0.021 C 
ATOM     17  C   UNL     1      28.760 -23.375 -16.432  0.00  0.00    +0.051 C 
ATOM     18  H   UNL     1      28.107 -24.826 -14.240  0.00  0.00    +0.189 HD
ENDBRANCH   4  11
ENDBRANCH   1   3
BRANCH   1  19
ATOM     19  C   UNL     1      36.153 -20.792 -19.897  0.00  0.00    +0.184 C 
BRANCH  19  20
ATOM     20  C   UNL     1      35.425 -19.806 -20.819  0.00  0.00    -0.017 C 
BRANCH  20  21
ATOM     21  N   UNL     1      33.989 -19.852 -20.516  0.00  0.00    +0.384 N 
ATOM     22  H   UNL     1      33.763 -19.126 -19.837  0.00  0.00    -0.089 HD
ATOM     23  H   UNL     1      33.754 -20.766 -20.129  0.00  0.00    -0.089 HD
ATOM     24  H   UNL     1      33.457 -19.697 -21.371  0.00  0.00    -0.089 HD
ENDBRANCH  20  21
BRANCH  20  25
ATOM     25  C   UNL     1      35.932 -18.344 -20.690  0.00  0.00    +0.009 C 
BRANCH  25  27
ATOM     26  N   UNL     1      35.033 -16.663 -23.804  0.00  0.00    -0.312 N 
ATOM     27  C   UNL     1      35.496 -17.448 -21.780  0.00  0.00    -0.008 C 
ATOM     28  C   UNL     1      34.991 -16.125 -21.639  0.00  0.00    +0.011 C 
ATOM     29  C   UNL     1      34.708 -15.655 -22.924  0.00  0.00    +0.048 C 
ATOM     30  C   UNL     1      35.511 -17.750 -23.123  0.00  0.00    +0.058 C 
ATOM     31  C   UNL     1      34.745 -15.281 -20.539  0.00  0.00    +0.001 C 
ATOM     32  C   UNL     1      34.189 -14.378 -23.163  0.00  0.00    +0.015 C 
ATOM     33  C   UNL     1      34.227 -14.000 -20.763  0.00  0.00    +0.000 C 
ATOM     34  C   UNL     1      33.953 -13.558 -22.056  0.00  0.00    +0.001 C 
ATOM     35  H   UNL     1      34.937 -16.608 -24.782  0.00  0.00    +0.152 HD
ENDBRANCH  25  27
ENDBRANCH  20  25
ENDBRANCH  19  20
ENDBRANCH   1  19
TORSDOF 7
ENDMDL
MODEL 8
REMARK VINA RESULT:     -11.6      3.423      6.513
REMARK  Name = 10172943
REMARK  7 active torsions:
REMARK  status: ('A' for Active; 'I' for Inactive)
REMARK    1  A    between atoms: O_1  and  C_3
REMARK    2  A    between atoms: O_1  and  C_19
REMARK    3  A    between atoms: C_4  and  C_11
REMARK    4  A    between atoms: C_19  and  C_20
REMARK    5  A    between atoms: C_20  and  N_21
REMARK    6  A    between atoms: C_20  and  C_25
REMARK    7  A    between atoms: C_25  and  C_27
REMARK                            x       y       z     vdW  Elec       q    Type
REMARK                         _______ _______ _______ _____ _____    ______ ____
ROOT
ATOM      1  O   UNL     1      33.162 -22.467 -18.605  0.00  0.00    -0.476 OA
ENDROOT
BRANCH   1   3
ATOM      2  N   UNL     1      36.590 -21.280 -18.949  0.00  0.00    -0.239 NA
ATOM      3  C   UNL     1      34.231 -21.734 -19.051  0.00  0.00    +0.158 C 
ATOM      4  C   UNL     1      35.161 -20.026 -20.443  0.00  0.00    +0.022 C 
ATOM      5  C   UNL     1      34.058 -20.752 -20.009  0.00  0.00    +0.040 C 
ATOM      6  C   UNL     1      35.494 -21.965 -18.552  0.00  0.00    +0.136 C 
ATOM      7  C   UNL     1      36.394 -20.324 -19.886  0.00  0.00    +0.099 C 
BRANCH   4  11
ATOM      8  N   UNL     1      34.694 -15.009 -23.314  0.00  0.00    -0.280 N 
ATOM      9  N   UNL     1      34.647 -16.008 -24.218  0.00  0.00    -0.173 NA
ATOM     10  C   UNL     1      34.878 -16.780 -22.094  0.00  0.00    +0.032 A 
ATOM     11  C   UNL     1      35.026 -18.992 -21.443  0.00  0.00    +0.002 C 
ATOM     12  C   UNL     1      34.760 -17.132 -23.490  0.00  0.00    +0.102 A 
ATOM     13  C   UNL     1      35.013 -17.646 -21.017  0.00  0.00    +0.003 C 
ATOM     14  C   UNL     1      34.832 -15.417 -22.020  0.00  0.00    +0.053 A 
ATOM     15  C   UNL     1      34.912 -19.387 -22.817  0.00  0.00    +0.002 C 
ATOM     16  C   UNL     1      34.775 -18.480 -23.891  0.00  0.00    +0.021 C 
ATOM     17  C   UNL     1      34.902 -14.460 -20.903  0.00  0.00    +0.051 C 
ATOM     18  H   UNL     1      34.632 -14.060 -23.568  0.00  0.00    +0.189 HD
ENDBRANCH   4  11
ENDBRANCH   1   3
BRANCH   1  19
ATOM     19  C   UNL     1      33.431 -23.459 -17.623  0.00  0.00    +0.184 C 
BRANCH  19  20
ATOM     20  C   UNL     1      33.084 -22.971 -16.210  0.00  0.00    -0.017 C 
BRANCH  20  21
ATOM     21  N   UNL     1      31.625 -22.999 -16.049  0.00  0.00    +0.384 N 
ATOM     22  H   UNL     1      31.381 -23.606 -15.266  0.00  0.00    -0.089 HD
ATOM     23  H   UNL     1      31.196 -23.355 -16.903  0.00  0.00    -0.089 HD
ATOM     24  H   UNL     1      31.286 -22.055 -15.866  0.00  0.00    -0.089 HD
ENDBRANCH  20  21
BRANCH  20  25
ATOM     25  C   UNL     1      33.742 -23.811 -15.083  0.00  0.00    +0.009 C 
BRANCH  25  27
ATOM     26  N   UNL     1      37.190 -22.638 -14.827  0.00  0.00    -0.312 N 
ATOM     27  C   UNL     1      35.199 -23.612 -14.944  0.00  0.00    -0.008 C 
ATOM     28  C   UNL     1      36.177 -24.623 -14.730  0.00  0.00    +0.011 C 
ATOM     29  C   UNL     1      37.418 -23.986 -14.661  0.00  0.00    +0.048 C 
ATOM     30  C   UNL     1      35.853 -22.402 -15.000  0.00  0.00    +0.058 C 
ATOM     31  C   UNL     1      36.125 -26.024 -14.588  0.00  0.00    +0.001 C 
ATOM     32  C   UNL     1      38.614 -24.683 -14.456  0.00  0.00    +0.015 C 
ATOM     33  C   UNL     1      37.313 -26.734 -14.382  0.00  0.00    +0.000 C 
ATOM     34  C   UNL     1      38.538 -26.071 -14.317  0.00  0.00    +0.001 C 
ATOM     35  H   UNL     1      37.889 -21.945 -14.824  0.00  0.00    +0.152 HD
ENDBRANCH  25  27
ENDBRANCH  20  25
ENDBRANCH  19  20
ENDBRANCH   1  19
TORSDOF 7
ENDMDL
MODEL 9
REMARK VINA RESULT:     -11.6      3.973     11.761
REMARK  Name = 10172943
REMARK  7 active torsions:
REMARK  status: ('A' for Active; 'I' for Inactive)
REMARK    1  A    between atoms: O_1  and  C_3
REMARK    2  A    between atoms: O_1  and  C_19
REMARK    3  A    between atoms: C_4  and  C_11
REMARK    4  A    between atoms: C_19  and  C_20
REMARK    5  A    between atoms: C_20  and  N_21
REMARK    6  A    between atoms: C_20  and  C_25
REMARK    7  A    between atoms: C_25  and  C_27
REMARK                            x       y       z     vdW  Elec       q    Type
REMARK                         _______ _______ _______ _____ _____    ______ ____
ROOT
ATOM      1  O   UNL     1      32.860 -22.499 -18.544  0.00  0.00    -0.476 OA
ENDROOT
BRANCH   1   3
ATOM      2  N   UNL     1      31.609 -23.059 -15.168  0.00  0.00    -0.239 NA
ATOM      3  C   UNL     1      32.862 -22.764 -17.199  0.00  0.00    +0.158 C 
ATOM      4  C   UNL     1      34.018 -23.267 -15.168  0.00  0.00    +0.022 C 
ATOM      5  C   UNL     1      34.049 -23.000 -16.531  0.00  0.00    +0.040 C 
ATOM      6  C   UNL     1      31.679 -22.802 -16.493  0.00  0.00    +0.136 C 
ATOM      7  C   UNL     1      32.784 -23.285 -14.537  0.00  0.00    +0.099 C 
BRANCH   4  11
ATOM      8  N   UNL     1      37.996 -24.383 -11.098  0.00  0.00    -0.280 N 
ATOM      9  N   UNL     1      38.638 -24.243 -12.275  0.00  0.00    -0.173 NA
ATOM     10  C   UNL     1      36.391 -23.977 -12.483  0.00  0.00    +0.032 A 
ATOM     11  C   UNL     1      35.234 -23.520 -14.431  0.00  0.00    +0.002 C 
ATOM     12  C   UNL     1      37.664 -23.988 -13.165  0.00  0.00    +0.102 A 
ATOM     13  C   UNL     1      35.139 -23.752 -13.041  0.00  0.00    +0.003 C 
ATOM     14  C   UNL     1      36.642 -24.233 -11.164  0.00  0.00    +0.053 A 
ATOM     15  C   UNL     1      36.476 -23.522 -15.149  0.00  0.00    +0.002 C 
ATOM     16  C   UNL     1      37.734 -23.754 -14.551  0.00  0.00    +0.021 C 
ATOM     17  C   UNL     1      35.783 -24.354  -9.975  0.00  0.00    +0.051 C 
ATOM     18  H   UNL     1      38.467 -24.577 -10.256  0.00  0.00    +0.189 HD
ENDBRANCH   4  11
ENDBRANCH   1   3
BRANCH   1  19
ATOM     19  C   UNL     1      34.067 -21.994 -19.099  0.00  0.00    +0.184 C 
BRANCH  19  20
ATOM     20  C   UNL     1      33.800 -20.917 -20.160  0.00  0.00    -0.017 C 
BRANCH  20  21
ATOM     21  N   UNL     1      32.578 -20.190 -19.793  0.00  0.00    +0.384 N 
ATOM     22  H   UNL     1      31.763 -20.732 -20.078  0.00  0.00    -0.089 HD
ATOM     23  H   UNL     1      32.568 -19.285 -20.263  0.00  0.00    -0.089 HD
ATOM     24  H   UNL     1      32.558 -20.049 -18.783  0.00  0.00    -0.089 HD
ENDBRANCH  20  21
BRANCH  20  25
ATOM     25  C   UNL     1      34.968 -19.909 -20.329  0.00  0.00    +0.009 C 
BRANCH  25  27
ATOM     26  N   UNL     1      34.874 -18.625 -23.746  0.00  0.00    -0.312 N 
ATOM     27  C   UNL     1      34.929 -19.134 -21.586  0.00  0.00    -0.008 C 
ATOM     28  C   UNL     1      34.908 -17.717 -21.709  0.00  0.00    +0.011 C 
ATOM     29  C   UNL     1      34.874 -17.424 -23.074  0.00  0.00    +0.048 C 
ATOM     30  C   UNL     1      34.907 -19.665 -22.856  0.00  0.00    +0.058 C 
ATOM     31  C   UNL     1      34.915 -16.652 -20.787  0.00  0.00    +0.001 C 
ATOM     32  C   UNL     1      34.846 -16.113 -23.564  0.00  0.00    +0.015 C 
ATOM     33  C   UNL     1      34.887 -15.336 -21.262  0.00  0.00    +0.000 C 
ATOM     34  C   UNL     1      34.853 -15.073 -22.631  0.00  0.00    +0.001 C 
ATOM     35  H   UNL     1      34.853 -18.722 -24.725  0.00  0.00    +0.152 HD
ENDBRANCH  25  27
ENDBRANCH  20  25
ENDBRANCH  19  20
ENDBRANCH   1  19
TORSDOF 7
ENDMDL
