MODEL 1
REMARK VINA RESULT:     -10.5      0.000      0.000
REMARK  Name = 15942655
REMARK  5 active torsions:
REMARK  status: ('A' for Active; 'I' for Inactive)
REMARK    1  A    between atoms: C_1  and  C_9
REMARK    2  A    between atoms: C_2  and  C_17
REMARK    3  A    between atoms: C_3  and  O_31
REMARK    4  A    between atoms: C_19  and  C_23
REMARK    5  A    between atoms: C_23  and  N_25
REMARK                            x       y       z     vdW  Elec       q    Type
REMARK                         _______ _______ _______ _____ _____    ______ ____
ROOT
ATOM      1  C   UNL     1      34.173 -15.434 -23.077  0.00  0.00    +0.047 C 
ATOM      2  C   UNL     1      35.042 -17.614 -22.495  0.00  0.00    +0.034 C 
ATOM      3  C   UNL     1      34.577 -16.356 -22.111  0.00  0.00    +0.135 C 
ATOM      4  C   UNL     1      34.234 -15.774 -24.430  0.00  0.00    +0.004 C 
ATOM      5  C   UNL     1      35.103 -17.952 -23.847  0.00  0.00    +0.003 C 
ATOM      6  C   UNL     1      34.699 -17.032 -24.814  0.00  0.00    +0.000 C 
ENDROOT
BRANCH   1   9
ATOM      7  N   UNL     1      32.941 -13.927 -21.574  0.00  0.00    -0.312 N 
ATOM      8  N   UNL     1      32.264  -9.881 -21.725  0.00  0.00    -0.242 NA
ATOM      9  C   UNL     1      33.688 -14.127 -22.703  0.00  0.00    +0.051 C 
ATOM     10  C   UNL     1      32.611 -12.596 -21.454  0.00  0.00    +0.051 C 
ATOM     11  C   UNL     1      33.172 -11.933 -22.548  0.00  0.00    +0.034 C 
ATOM     12  C   UNL     1      33.848 -12.912 -23.328  0.00  0.00    +0.017 C 
ATOM     13  C   UNL     1      31.873 -11.933 -20.478  0.00  0.00    +0.035 C 
ATOM     14  C   UNL     1      32.979 -10.553 -22.660  0.00  0.00    +0.100 C 
ATOM     15  C   UNL     1      31.742 -10.569 -20.684  0.00  0.00    +0.100 C 
ATOM     16  H   UNL     1      32.677 -14.632 -20.939  0.00  0.00    +0.152 HD
ENDBRANCH   1   9
BRANCH   2  17
ATOM     17  C   UNL     1      35.466 -18.587 -21.507  0.00  0.00    +0.003 C 
ATOM     18  C   UNL     1      34.557 -19.523 -21.019  0.00  0.00    -0.003 C 
ATOM     19  C   UNL     1      34.965 -20.459 -20.068  0.00  0.00    -0.003 C 
ATOM     20  C   UNL     1      36.782 -18.584 -21.050  0.00  0.00    +0.000 C 
ATOM     21  C   UNL     1      36.282 -20.457 -19.609  0.00  0.00    -0.003 C 
ATOM     22  C   UNL     1      37.190 -19.520 -20.101  0.00  0.00    -0.000 C 
BRANCH  19  23
ATOM     23  C   UNL     1      33.994 -21.463 -19.544  0.00  0.00    +0.118 C 
BRANCH  23  25
ATOM     24  O   UNL     1      32.400 -22.775 -17.507  0.00  0.00    -0.253 OA
ATOM     25  N   UNL     1      34.465 -22.102 -18.341  0.00  0.00    -0.285 N 
ATOM     26  N   UNL     1      34.326 -23.248 -16.351  0.00  0.00    -0.313 N 
ATOM     27  C   UNL     1      33.624 -22.710 -17.415  0.00  0.00    +0.298 C 
ATOM     28  H   UNL     1      35.433 -22.109 -18.166  0.00  0.00    +0.151 HD
ATOM     29  H   UNL     1      33.844 -23.707 -15.626  0.00  0.00    +0.146 HD
ATOM     30  H   UNL     1      35.307 -23.172 -16.319  0.00  0.00    +0.146 HD
ENDBRANCH  23  25
ENDBRANCH  19  23
ENDBRANCH   2  17
BRANCH   3  31
ATOM     31  O   UNL     1      34.517 -16.026 -20.786  0.00  0.00    -0.505 OA
ATOM     32  H   UNL     1      34.441 -16.699 -20.138  0.00  0.00    +0.292 HD
ENDBRANCH   3  31
TORSDOF 5
ENDMDL
MODEL 2
REMARK VINA RESULT:     -10.5      4.058     10.854
REMARK  Name = 15942655
REMARK  5 active torsions:
REMARK  status: ('A' for Active; 'I' for Inactive)
REMARK    1  A    between atoms: C_1  and  C_9
REMARK    2  A    between atoms: C_2  and  C_17
REMARK    3  A    between atoms: C_3  and  O_31
REMARK    4  A    between atoms: C_19  and  C_23
REMARK    5  A    between atoms: C_23  and  N_25
REMARK                            x       y       z     vdW  Elec       q    Type
REMARK                         _______ _______ _______ _____ _____    ______ ____
ROOT
ATOM      1  C   UNL     1      34.795 -23.209 -16.161  0.00  0.00    +0.047 C 
ATOM      2  C   UNL     1      34.713 -21.861 -18.166  0.00  0.00    +0.034 C 
ATOM      3  C   UNL     1      35.430 -22.384 -17.090  0.00  0.00    +0.135 C 
ATOM      4  C   UNL     1      33.440 -23.511 -16.312  0.00  0.00    +0.004 C 
ATOM      5  C   UNL     1      33.359 -22.163 -18.316  0.00  0.00    +0.003 C 
ATOM      6  C   UNL     1      32.723 -22.988 -17.388  0.00  0.00    +0.000 C 
ENDROOT
BRANCH   1   9
ATOM      7  N   UNL     1      36.053 -22.970 -14.061  0.00  0.00    -0.312 N 
ATOM      8  N   UNL     1      37.762 -25.752 -11.574  0.00  0.00    -0.242 NA
ATOM      9  C   UNL     1      35.516 -23.762 -15.040  0.00  0.00    +0.051 C 
ATOM     10  C   UNL     1      36.683 -23.746 -13.115  0.00  0.00    +0.051 C 
ATOM     11  C   UNL     1      36.538 -25.077 -13.513  0.00  0.00    +0.034 C 
ATOM     12  C   UNL     1      35.801 -25.072 -14.729  0.00  0.00    +0.017 C 
ATOM     13  C   UNL     1      37.359 -23.384 -11.954  0.00  0.00    +0.035 C 
ATOM     14  C   UNL     1      37.098 -26.076 -12.710  0.00  0.00    +0.100 C 
ATOM     15  C   UNL     1      37.874 -24.449 -11.233  0.00  0.00    +0.100 C 
ATOM     16  H   UNL     1      35.996 -21.987 -14.036  0.00  0.00    +0.152 HD
ENDBRANCH   1   9
BRANCH   2  17
ATOM     17  C   UNL     1      35.354 -21.003 -19.144  0.00  0.00    +0.003 C 
ATOM     18  C   UNL     1      34.641 -20.569 -20.260  0.00  0.00    -0.003 C 
ATOM     19  C   UNL     1      35.258 -19.743 -21.201  0.00  0.00    -0.003 C 
ATOM     20  C   UNL     1      36.678 -20.614 -18.964  0.00  0.00    +0.000 C 
ATOM     21  C   UNL     1      36.585 -19.353 -21.022  0.00  0.00    -0.003 C 
ATOM     22  C   UNL     1      37.295 -19.788 -19.903  0.00  0.00    -0.000 C 
BRANCH  19  23
ATOM     23  C   UNL     1      34.498 -19.276 -22.397  0.00  0.00    +0.118 C 
BRANCH  23  25
ATOM     24  O   UNL     1      33.838 -17.994 -24.912  0.00  0.00    -0.253 OA
ATOM     25  N   UNL     1      34.967 -18.001 -22.879  0.00  0.00    -0.285 N 
ATOM     26  N   UNL     1      35.184 -16.229 -24.328  0.00  0.00    -0.313 N 
ATOM     27  C   UNL     1      34.596 -17.461 -24.105  0.00  0.00    +0.298 C 
ATOM     28  H   UNL     1      35.582 -17.486 -22.309  0.00  0.00    +0.151 HD
ATOM     29  H   UNL     1      35.001 -15.741 -25.163  0.00  0.00    +0.146 HD
ATOM     30  H   UNL     1      35.785 -15.840 -23.652  0.00  0.00    +0.146 HD
ENDBRANCH  23  25
ENDBRANCH  19  23
ENDBRANCH   2  17
BRANCH   3  31
ATOM     31  O   UNL     1      36.756 -22.088 -16.945  0.00  0.00    -0.505 OA
ATOM     32  H   UNL     1      37.390 -22.486 -17.510  0.00  0.00    +0.292 HD
ENDBRANCH   3  31
TORSDOF 5
ENDMDL
MODEL 3
REMARK VINA RESULT:     -10.5      3.010      5.909
REMARK  Name = 15942655
REMARK  5 active torsions:
REMARK  status: ('A' for Active; 'I' for Inactive)
REMARK    1  A    between atoms: C_1  and  C_9
REMARK    2  A    between atoms: C_2  and  C_17
REMARK    3  A    between atoms: C_3  and  O_31
REMARK    4  A    between atoms: C_19  and  C_23
REMARK    5  A    between atoms: C_23  and  N_25
REMARK                            x       y       z     vdW  Elec       q    Type
REMARK                         _______ _______ _______ _____ _____    ______ ____
ROOT
ATOM      1  C   UNL     1      32.204 -10.546 -22.295  0.00  0.00    +0.047 C 
ATOM      2  C   UNL     1      32.774 -12.893 -22.393  0.00  0.00    +0.034 C 
ATOM      3  C   UNL     1      32.793 -11.620 -22.962  0.00  0.00    +0.135 C 
ATOM      4  C   UNL     1      31.596 -10.748 -21.054  0.00  0.00    +0.004 C 
ATOM      5  C   UNL     1      32.166 -13.094 -21.154  0.00  0.00    +0.003 C 
ATOM      6  C   UNL     1      31.577 -12.021 -20.485  0.00  0.00    +0.000 C 
ENDROOT
BRANCH   1   9
ATOM      7  N   UNL     1      33.375  -8.539 -23.101  0.00  0.00    -0.312 N 
ATOM      8  N   UNL     1      31.979  -5.017 -24.680  0.00  0.00    -0.242 NA
ATOM      9  C   UNL     1      32.211  -9.219 -22.863  0.00  0.00    +0.051 C 
ATOM     10  C   UNL     1      33.100  -7.304 -23.644  0.00  0.00    +0.051 C 
ATOM     11  C   UNL     1      31.712  -7.203 -23.753  0.00  0.00    +0.034 C 
ATOM     12  C   UNL     1      31.164  -8.418 -23.256  0.00  0.00    +0.017 C 
ATOM     13  C   UNL     1      33.956  -6.282 -24.044  0.00  0.00    +0.035 C 
ATOM     14  C   UNL     1      31.170  -6.028 -24.283  0.00  0.00    +0.100 C 
ATOM     15  C   UNL     1      33.317  -5.164 -24.555  0.00  0.00    +0.100 C 
ATOM     16  H   UNL     1      34.278  -8.883 -22.911  0.00  0.00    +0.152 HD
ENDBRANCH   1   9
BRANCH   2  17
ATOM     17  C   UNL     1      33.381 -14.023 -23.070  0.00  0.00    +0.003 C 
ATOM     18  C   UNL     1      34.278 -14.842 -22.387  0.00  0.00    -0.003 C 
ATOM     19  C   UNL     1      34.862 -15.929 -23.038  0.00  0.00    -0.003 C 
ATOM     20  C   UNL     1      33.067 -14.285 -24.401  0.00  0.00    +0.000 C 
ATOM     21  C   UNL     1      34.548 -16.193 -24.371  0.00  0.00    -0.003 C 
ATOM     22  C   UNL     1      33.650 -15.372 -25.052  0.00  0.00    -0.000 C 
BRANCH  19  23
ATOM     23  C   UNL     1      35.821 -16.809 -22.310  0.00  0.00    +0.118 C 
BRANCH  23  25
ATOM     24  O   UNL     1      36.767 -18.701 -20.327  0.00  0.00    -0.253 OA
ATOM     25  N   UNL     1      35.244 -18.086 -21.974  0.00  0.00    -0.285 N 
ATOM     26  N   UNL     1      35.028 -20.095 -20.875  0.00  0.00    -0.313 N 
ATOM     27  C   UNL     1      35.767 -18.933 -21.004  0.00  0.00    +0.298 C 
ATOM     28  H   UNL     1      34.437 -18.373 -22.458  0.00  0.00    +0.151 HD
ATOM     29  H   UNL     1      35.296 -20.779 -20.219  0.00  0.00    +0.146 HD
ATOM     30  H   UNL     1      34.234 -20.238 -21.440  0.00  0.00    +0.146 HD
ENDBRANCH  23  25
ENDBRANCH  19  23
ENDBRANCH   2  17
BRANCH   3  31
ATOM     31  O   UNL     1      33.389 -11.423 -24.176  0.00  0.00    -0.505 OA
ATOM     32  H   UNL     1      33.315 -12.075 -24.846  0.00  0.00    +0.292 HD
ENDBRANCH   3  31
TORSDOF 5
ENDMDL
MODEL 4
REMARK VINA RESULT:     -10.1      4.710     11.581
REMARK  Name = 15942655
REMARK  5 active torsions:
REMARK  status: ('A' for Active; 'I' for Inactive)
REMARK    1  A    between atoms: C_1  and  C_9
REMARK    2  A    between atoms: C_2  and  C_17
REMARK    3  A    between atoms: C_3  and  O_31
REMARK    4  A    between atoms: C_19  and  C_23
REMARK    5  A    between atoms: C_23  and  N_25
REMARK                            x       y       z     vdW  Elec       q    Type
REMARK                         _______ _______ _______ _____ _____    ______ ____
ROOT
ATOM      1  C   UNL     1      32.881 -11.732 -22.536  0.00  0.00    +0.047 C 
ATOM      2  C   UNL     1      32.959  -9.339 -22.864  0.00  0.00    +0.034 C 
ATOM      3  C   UNL     1      33.497 -10.607 -23.083  0.00  0.00    +0.135 C 
ATOM      4  C   UNL     1      31.722 -11.587 -21.769  0.00  0.00    +0.004 C 
ATOM      5  C   UNL     1      31.802  -9.194 -22.098  0.00  0.00    +0.003 C 
ATOM      6  C   UNL     1      31.184 -10.319 -21.550  0.00  0.00    +0.000 C 
ENDROOT
BRANCH   1   9
ATOM      7  N   UNL     1      33.202 -13.746 -23.910  0.00  0.00    -0.312 N 
ATOM      8  N   UNL     1      35.235 -17.240 -23.193  0.00  0.00    -0.242 NA
ATOM      9  C   UNL     1      33.419 -13.054 -22.749  0.00  0.00    +0.051 C 
ATOM     10  C   UNL     1      33.823 -14.974 -23.852  0.00  0.00    +0.051 C 
ATOM     11  C   UNL     1      34.454 -15.058 -22.610  0.00  0.00    +0.034 C 
ATOM     12  C   UNL     1      34.190 -13.840 -21.924  0.00  0.00    +0.017 C 
ATOM     13  C   UNL     1      33.879 -16.002 -24.789  0.00  0.00    +0.035 C 
ATOM     14  C   UNL     1      35.164 -16.222 -22.301  0.00  0.00    +0.100 C 
ATOM     15  C   UNL     1      34.607 -17.109 -24.384  0.00  0.00    +0.100 C 
ATOM     16  H   UNL     1      32.679 -13.415 -24.675  0.00  0.00    +0.152 HD
ENDBRANCH   1   9
BRANCH   2  17
ATOM     17  C   UNL     1      33.583  -8.155 -23.423  0.00  0.00    +0.003 C 
ATOM     18  C   UNL     1      32.889  -7.374 -24.344  0.00  0.00    -0.003 C 
ATOM     19  C   UNL     1      33.490  -6.235 -24.883  0.00  0.00    -0.003 C 
ATOM     20  C   UNL     1      34.874  -7.804 -23.038  0.00  0.00    +0.000 C 
ATOM     21  C   UNL     1      34.784  -5.882 -24.498  0.00  0.00    -0.003 C 
ATOM     22  C   UNL     1      35.475  -6.666 -23.576  0.00  0.00    -0.000 C 
BRANCH  19  23
ATOM     23  C   UNL     1      32.750  -5.395 -25.869  0.00  0.00    +0.118 C 
BRANCH  23  25
ATOM     24  O   UNL     1      32.354  -2.958 -24.348  0.00  0.00    -0.253 OA
ATOM     25  N   UNL     1      31.511  -4.888 -25.334  0.00  0.00    -0.285 N 
ATOM     26  N   UNL     1      30.115  -3.444 -24.214  0.00  0.00    -0.313 N 
ATOM     27  C   UNL     1      31.413  -3.704 -24.613  0.00  0.00    +0.298 C 
ATOM     28  H   UNL     1      30.691  -5.409 -25.488  0.00  0.00    +0.151 HD
ATOM     29  H   UNL     1      29.913  -2.633 -23.694  0.00  0.00    +0.146 HD
ATOM     30  H   UNL     1      29.393  -4.071 -24.449  0.00  0.00    +0.146 HD
ENDBRANCH  23  25
ENDBRANCH  19  23
ENDBRANCH   2  17
BRANCH   3  31
ATOM     31  O   UNL     1      34.630 -10.747 -23.833  0.00  0.00    -0.505 OA
ATOM     32  H   UNL     1      34.786 -11.543 -24.302  0.00  0.00    +0.292 HD
ENDBRANCH   3  31
TORSDOF 5
ENDMDL
MODEL 5
REMARK VINA RESULT:     -10.0      5.077      8.588
REMARK  Name = 15942655
REMARK  5 active torsions:
REMARK  status: ('A' for Active; 'I' for Inactive)
REMARK    1  A    between atoms: C_1  and  C_9
REMARK    2  A    between atoms: C_2  and  C_17
REMARK    3  A    between atoms: C_3  and  O_31
REMARK    4  A    between atoms: C_19  and  C_23
REMARK    5  A    between atoms: C_23  and  N_25
REMARK                            x       y       z     vdW  Elec       q    Type
REMARK                         _______ _______ _______ _____ _____    ______ ____
ROOT
ATOM      1  C   UNL     1      34.075 -22.002 -17.940  0.00  0.00    +0.047 C 
ATOM      2  C   UNL     1      34.479 -23.286 -15.933  0.00  0.00    +0.034 C 
ATOM      3  C   UNL     1      34.958 -22.504 -16.984  0.00  0.00    +0.135 C 
ATOM      4  C   UNL     1      32.711 -22.282 -17.842  0.00  0.00    +0.004 C 
ATOM      5  C   UNL     1      33.116 -23.567 -15.836  0.00  0.00    +0.003 C 
ATOM      6  C   UNL     1      32.233 -23.064 -16.791  0.00  0.00    +0.000 C 
ENDROOT
BRANCH   1   9
ATOM      7  N   UNL     1      35.817 -20.680 -19.066  0.00  0.00    -0.312 N 
ATOM      8  N   UNL     1      35.817 -18.641 -22.629  0.00  0.00    -0.242 NA
ATOM      9  C   UNL     1      34.547 -21.190 -19.036  0.00  0.00    +0.051 C 
ATOM     10  C   UNL     1      36.006 -19.948 -20.216  0.00  0.00    +0.051 C 
ATOM     11  C   UNL     1      34.812 -19.998 -20.937  0.00  0.00    +0.034 C 
ATOM     12  C   UNL     1      33.900 -20.785 -20.180  0.00  0.00    +0.017 C 
ATOM     13  C   UNL     1      37.125 -19.254 -20.672  0.00  0.00    +0.035 C 
ATOM     14  C   UNL     1      34.744 -19.324 -22.160  0.00  0.00    +0.100 C 
ATOM     15  C   UNL     1      36.951 -18.623 -21.893  0.00  0.00    +0.100 C 
ATOM     16  H   UNL     1      36.497 -20.817 -18.367  0.00  0.00    +0.152 HD
ENDBRANCH   1   9
BRANCH   2  17
ATOM     17  C   UNL     1      35.379 -23.818 -14.927  0.00  0.00    +0.003 C 
ATOM     18  C   UNL     1      36.078 -24.997 -15.176  0.00  0.00    -0.003 C 
ATOM     19  C   UNL     1      36.944 -25.510 -14.208  0.00  0.00    -0.003 C 
ATOM     20  C   UNL     1      35.541 -23.149 -13.717  0.00  0.00    +0.000 C 
ATOM     21  C   UNL     1      37.107 -24.841 -12.995  0.00  0.00    -0.003 C 
ATOM     22  C   UNL     1      36.406 -23.661 -12.750  0.00  0.00    -0.000 C 
BRANCH  19  23
ATOM     23  C   UNL     1      37.696 -26.771 -14.471  0.00  0.00    +0.118 C 
BRANCH  23  25
ATOM     24  O   UNL     1      40.307 -26.004 -15.472  0.00  0.00    -0.253 OA
ATOM     25  N   UNL     1      38.951 -26.816 -13.765  0.00  0.00    -0.285 N 
ATOM     26  N   UNL     1      41.215 -26.567 -13.440  0.00  0.00    -0.313 N 
ATOM     27  C   UNL     1      40.162 -26.427 -14.327  0.00  0.00    +0.298 C 
ATOM     28  H   UNL     1      38.951 -27.140 -12.836  0.00  0.00    +0.151 HD
ATOM     29  H   UNL     1      42.127 -26.324 -13.718  0.00  0.00    +0.146 HD
ATOM     30  H   UNL     1      41.051 -26.910 -12.532  0.00  0.00    +0.146 HD
ENDBRANCH  23  25
ENDBRANCH  19  23
ENDBRANCH   2  17
BRANCH   3  31
ATOM     31  O   UNL     1      36.293 -22.230 -17.077  0.00  0.00    -0.505 OA
ATOM     32  H   UNL     1      36.916 -22.930 -17.083  0.00  0.00    +0.292 HD
ENDBRANCH   3  31
TORSDOF 5
ENDMDL
MODEL 6
REMARK VINA RESULT:      -9.9      4.782     11.732
REMARK  Name = 15942655
REMARK  5 active torsions:
REMARK  status: ('A' for Active; 'I' for Inactive)
REMARK    1  A    between atoms: C_1  and  C_9
REMARK    2  A    between atoms: C_2  and  C_17
REMARK    3  A    between atoms: C_3  and  O_31
REMARK    4  A    between atoms: C_19  and  C_23
REMARK    5  A    between atoms: C_23  and  N_25
REMARK                            x       y       z     vdW  Elec       q    Type
REMARK                         _______ _______ _______ _____ _____    ______ ____
ROOT
ATOM      1  C   UNL     1      32.545 -12.003 -21.191  0.00  0.00    +0.047 C 
ATOM      2  C   UNL     1      31.743  -9.724 -21.259  0.00  0.00    +0.034 C 
ATOM      3  C   UNL     1      32.341 -10.814 -21.891  0.00  0.00    +0.135 C 
ATOM      4  C   UNL     1      32.147 -12.101 -19.856  0.00  0.00    +0.004 C 
ATOM      5  C   UNL     1      31.347  -9.822 -19.925  0.00  0.00    +0.003 C 
ATOM      6  C   UNL     1      31.549 -11.010 -19.224  0.00  0.00    +0.000 C 
ENDROOT
BRANCH   1   9
ATOM      7  N   UNL     1      32.883 -13.494 -23.117  0.00  0.00    -0.312 N 
ATOM      8  N   UNL     1      35.247 -16.812 -23.615  0.00  0.00    -0.242 NA
ATOM      9  C   UNL     1      33.161 -13.145 -21.823  0.00  0.00    +0.051 C 
ATOM     10  C   UNL     1      33.602 -14.613 -23.471  0.00  0.00    +0.051 C 
ATOM     11  C   UNL     1      34.360 -14.983 -22.358  0.00  0.00    +0.034 C 
ATOM     12  C   UNL     1      34.071 -14.048 -21.326  0.00  0.00    +0.017 C 
ATOM     13  C   UNL     1      33.643 -15.319 -24.670  0.00  0.00    +0.035 C 
ATOM     14  C   UNL     1      35.187 -16.106 -22.460  0.00  0.00    +0.100 C 
ATOM     15  C   UNL     1      34.494 -16.412 -24.665  0.00  0.00    +0.100 C 
ATOM     16  H   UNL     1      32.261 -13.014 -23.710  0.00  0.00    +0.152 HD
ENDBRANCH   1   9
BRANCH   2  17
ATOM     17  C   UNL     1      31.522  -8.478 -21.968  0.00  0.00    +0.003 C 
ATOM     18  C   UNL     1      31.834  -7.266 -21.357  0.00  0.00    -0.003 C 
ATOM     19  C   UNL     1      31.621  -6.068 -22.039  0.00  0.00    -0.003 C 
ATOM     20  C   UNL     1      30.998  -8.498 -23.258  0.00  0.00    +0.000 C 
ATOM     21  C   UNL     1      31.096  -6.085 -23.331  0.00  0.00    -0.003 C 
ATOM     22  C   UNL     1      30.785  -7.301 -23.940  0.00  0.00    -0.000 C 
BRANCH  19  23
ATOM     23  C   UNL     1      31.955  -4.767 -21.388  0.00  0.00    +0.118 C 
BRANCH  23  25
ATOM     24  O   UNL     1      31.830  -2.213 -22.754  0.00  0.00    -0.253 OA
ATOM     25  N   UNL     1      30.850  -3.842 -21.414  0.00  0.00    -0.285 N 
ATOM     26  N   UNL     1      29.692  -1.933 -21.966  0.00  0.00    -0.313 N 
ATOM     27  C   UNL     1      30.877  -2.633 -22.100  0.00  0.00    +0.298 C 
ATOM     28  H   UNL     1      30.033  -4.080 -20.921  0.00  0.00    +0.151 HD
ATOM     29  H   UNL     1      29.585  -1.059 -22.406  0.00  0.00    +0.146 HD
ATOM     30  H   UNL     1      28.956  -2.310 -21.431  0.00  0.00    +0.146 HD
ENDBRANCH  23  25
ENDBRANCH  19  23
ENDBRANCH   2  17
BRANCH   3  31
ATOM     31  O   UNL     1      32.729 -10.717 -23.197  0.00  0.00    -0.505 OA
ATOM     32  H   UNL     1      32.713 -11.475 -23.748  0.00  0.00    +0.292 HD
ENDBRANCH   3  31
TORSDOF 5
ENDMDL
MODEL 7
REMARK VINA RESULT:      -9.8      4.721     11.580
REMARK  Name = 15942655
REMARK  5 active torsions:
REMARK  status: ('A' for Active; 'I' for Inactive)
REMARK    1  A    between atoms: C_1  and  C_9
REMARK    2  A    between atoms: C_2  and  C_17
REMARK    3  A    between atoms: C_3  and  O_31
REMARK    4  A    between atoms: C_19  and  C_23
REMARK    5  A    between atoms: C_23  and  N_25
REMARK                            x       y       z     vdW  Elec       q    Type
REMARK                         _______ _______ _______ _____ _____    ______ ____
ROOT
ATOM      1  C   UNL     1      32.824 -11.750 -22.646  0.00  0.00    +0.047 C 
ATOM      2  C   UNL     1      32.897  -9.357 -22.984  0.00  0.00    +0.034 C 
ATOM      3  C   UNL     1      33.457 -10.621 -23.167  0.00  0.00    +0.135 C 
ATOM      4  C   UNL     1      31.626 -11.612 -21.942  0.00  0.00    +0.004 C 
ATOM      5  C   UNL     1      31.700  -9.220 -22.279  0.00  0.00    +0.003 C 
ATOM      6  C   UNL     1      31.066 -10.348 -21.759  0.00  0.00    +0.000 C 
ENDROOT
BRANCH   1   9
ATOM      7  N   UNL     1      33.188 -13.791 -23.968  0.00  0.00    -0.312 N 
ATOM      8  N   UNL     1      35.272 -17.232 -23.153  0.00  0.00    -0.242 NA
ATOM      9  C   UNL     1      33.385 -13.068 -22.823  0.00  0.00    +0.051 C 
ATOM     10  C   UNL     1      33.828 -15.006 -23.877  0.00  0.00    +0.051 C 
ATOM     11  C   UNL     1      34.452 -15.050 -22.629  0.00  0.00    +0.034 C 
ATOM     12  C   UNL     1      34.163 -13.820 -21.975  0.00  0.00    +0.017 C 
ATOM     13  C   UNL     1      33.906 -16.056 -24.787  0.00  0.00    +0.035 C 
ATOM     14  C   UNL     1      35.178 -16.194 -22.287  0.00  0.00    +0.100 C 
ATOM     15  C   UNL     1      34.650 -17.141 -24.351  0.00  0.00    +0.100 C 
ATOM     16  H   UNL     1      32.664 -13.487 -24.745  0.00  0.00    +0.152 HD
ENDBRANCH   1   9
BRANCH   2  17
ATOM     17  C   UNL     1      33.538  -8.171 -23.517  0.00  0.00    +0.003 C 
ATOM     18  C   UNL     1      32.878  -7.391 -24.463  0.00  0.00    -0.003 C 
ATOM     19  C   UNL     1      33.495  -6.249 -24.977  0.00  0.00    -0.003 C 
ATOM     20  C   UNL     1      34.812  -7.815 -23.081  0.00  0.00    +0.000 C 
ATOM     21  C   UNL     1      34.771  -5.892 -24.541  0.00  0.00    -0.003 C 
ATOM     22  C   UNL     1      35.429  -6.674 -23.593  0.00  0.00    -0.000 C 
BRANCH  19  23
ATOM     23  C   UNL     1      32.791  -5.410 -25.990  0.00  0.00    +0.118 C 
BRANCH  23  25
ATOM     24  O   UNL     1      33.464  -6.475 -28.601  0.00  0.00    -0.253 OA
ATOM     25  N   UNL     1      33.697  -4.846 -26.958  0.00  0.00    -0.285 N 
ATOM     26  N   UNL     1      34.865  -4.688 -28.933  0.00  0.00    -0.313 N 
ATOM     27  C   UNL     1      33.961  -5.428 -28.193  0.00  0.00    +0.298 C 
ATOM     28  H   UNL     1      34.153  -4.004 -26.733  0.00  0.00    +0.151 HD
ATOM     29  H   UNL     1      35.136  -4.995 -29.829  0.00  0.00    +0.146 HD
ATOM     30  H   UNL     1      35.238  -3.855 -28.564  0.00  0.00    +0.146 HD
ENDBRANCH  23  25
ENDBRANCH  19  23
ENDBRANCH   2  17
BRANCH   3  31
ATOM     31  O   UNL     1      34.629 -10.754 -23.857  0.00  0.00    -0.505 OA
ATOM     32  H   UNL     1      35.252 -10.054 -23.862  0.00  0.00    +0.292 HD
ENDBRANCH   3  31
TORSDOF 5
ENDMDL
MODEL 8
REMARK VINA RESULT:      -9.7      5.296     11.798
REMARK  Name = 15942655
REMARK  5 active torsions:
REMARK  status: ('A' for Active; 'I' for Inactive)
REMARK    1  A    between atoms: C_1  and  C_9
REMARK    2  A    between atoms: C_2  and  C_17
REMARK    3  A    between atoms: C_3  and  O_31
REMARK    4  A    between atoms: C_19  and  C_23
REMARK    5  A    between atoms: C_23  and  N_25
REMARK                            x       y       z     vdW  Elec       q    Type
REMARK                         _______ _______ _______ _____ _____    ______ ____
ROOT
ATOM      1  C   UNL     1      32.359 -11.677 -21.443  0.00  0.00    +0.047 C 
ATOM      2  C   UNL     1      31.959  -9.338 -20.981  0.00  0.00    +0.034 C 
ATOM      3  C   UNL     1      32.421 -10.339 -21.835  0.00  0.00    +0.135 C 
ATOM      4  C   UNL     1      31.833 -12.011 -20.193  0.00  0.00    +0.004 C 
ATOM      5  C   UNL     1      31.435  -9.672 -19.733  0.00  0.00    +0.003 C 
ATOM      6  C   UNL     1      31.372 -11.009 -19.339  0.00  0.00    +0.000 C 
ENDROOT
BRANCH   1   9
ATOM      7  N   UNL     1      33.791 -13.620 -21.912  0.00  0.00    -0.312 N 
ATOM      8  N   UNL     1      34.162 -15.994 -25.240  0.00  0.00    -0.242 NA
ATOM      9  C   UNL     1      32.830 -12.730 -22.309  0.00  0.00    +0.051 C 
ATOM     10  C   UNL     1      34.054 -14.516 -22.923  0.00  0.00    +0.051 C 
ATOM     11  C   UNL     1      33.229 -14.179 -23.997  0.00  0.00    +0.034 C 
ATOM     12  C   UNL     1      32.462 -13.049 -23.596  0.00  0.00    +0.017 C 
ATOM     13  C   UNL     1      34.944 -15.586 -22.973  0.00  0.00    +0.035 C 
ATOM     14  C   UNL     1      33.305 -14.947 -25.163  0.00  0.00    +0.100 C 
ATOM     15  C   UNL     1      34.940 -16.281 -24.172  0.00  0.00    +0.100 C 
ATOM     16  H   UNL     1      34.230 -13.620 -21.031  0.00  0.00    +0.152 HD
ENDBRANCH   1   9
BRANCH   2  17
ATOM     17  C   UNL     1      32.014  -7.942 -21.369  0.00  0.00    +0.003 C 
ATOM     18  C   UNL     1      31.477  -7.539 -22.590  0.00  0.00    -0.003 C 
ATOM     19  C   UNL     1      31.530  -6.195 -22.964  0.00  0.00    -0.003 C 
ATOM     20  C   UNL     1      32.602  -7.008 -20.520  0.00  0.00    +0.000 C 
ATOM     21  C   UNL     1      32.119  -5.259 -22.114  0.00  0.00    -0.003 C 
ATOM     22  C   UNL     1      32.654  -5.665 -20.893  0.00  0.00    -0.000 C 
BRANCH  19  23
ATOM     23  C   UNL     1      30.955  -5.760 -24.270  0.00  0.00    +0.118 C 
BRANCH  23  25
ATOM     24  O   UNL     1      31.608  -3.205 -25.475  0.00  0.00    -0.253 OA
ATOM     25  N   UNL     1      30.218  -4.526 -24.159  0.00  0.00    -0.285 N 
ATOM     26  N   UNL     1      29.729  -2.306 -24.511  0.00  0.00    -0.313 N 
ATOM     27  C   UNL     1      30.607  -3.342 -24.775  0.00  0.00    +0.298 C 
ATOM     28  H   UNL     1      29.396  -4.522 -23.619  0.00  0.00    +0.151 HD
ATOM     29  H   UNL     1      29.894  -1.413 -24.890  0.00  0.00    +0.146 HD
ATOM     30  H   UNL     1      28.940  -2.463 -23.943  0.00  0.00    +0.146 HD
ENDBRANCH  23  25
ENDBRANCH  19  23
ENDBRANCH   2  17
BRANCH   3  31
ATOM     31  O   UNL     1      32.934 -10.011 -23.058  0.00  0.00    -0.505 OA
ATOM     32  H   UNL     1      32.691 -10.504 -23.816  0.00  0.00    +0.292 HD
ENDBRANCH   3  31
TORSDOF 5
ENDMDL
MODEL 9
REMARK VINA RESULT:      -9.7      5.178      8.997
REMARK  Name = 15942655
REMARK  5 active torsions:
REMARK  status: ('A' for Active; 'I' for Inactive)
REMARK    1  A    between atoms: C_1  and  C_9
REMARK    2  A    between atoms: C_2  and  C_17
REMARK    3  A    between atoms: C_3  and  O_31
REMARK    4  A    between atoms: C_19  and  C_23
REMARK    5  A    between atoms: C_23  and  N_25
REMARK                            x       y       z     vdW  Elec       q    Type
REMARK                         _______ _______ _______ _____ _____    ______ ____
ROOT
ATOM      1  C   UNL     1      34.541 -22.371 -17.274  0.00  0.00    +0.047 C 
ATOM      2  C   UNL     1      33.030 -23.531 -15.786  0.00  0.00    +0.034 C 
ATOM      3  C   UNL     1      33.246 -22.748 -16.920  0.00  0.00    +0.135 C 
ATOM      4  C   UNL     1      35.623 -22.781 -16.492  0.00  0.00    +0.004 C 
ATOM      5  C   UNL     1      34.111 -23.940 -15.005  0.00  0.00    +0.003 C 
ATOM      6  C   UNL     1      35.407 -23.564 -15.358  0.00  0.00    +0.000 C 
ENDROOT
BRANCH   1   9
ATOM      7  N   UNL     1      35.991 -20.942 -18.654  0.00  0.00    -0.312 N 
ATOM      8  N   UNL     1      35.337 -19.041 -22.233  0.00  0.00    -0.242 NA
ATOM      9  C   UNL     1      34.789 -21.561 -18.442  0.00  0.00    +0.051 C 
ATOM     10  C   UNL     1      35.960 -20.238 -19.836  0.00  0.00    +0.051 C 
ATOM     11  C   UNL     1      34.692 -20.420 -20.390  0.00  0.00    +0.034 C 
ATOM     12  C   UNL     1      33.963 -21.256 -19.500  0.00  0.00    +0.017 C 
ATOM     13  C   UNL     1      36.940 -19.465 -20.453  0.00  0.00    +0.035 C 
ATOM     14  C   UNL     1      34.402 -19.799 -21.609  0.00  0.00    +0.100 C 
ATOM     15  C   UNL     1      36.551 -18.896 -21.655  0.00  0.00    +0.100 C 
ATOM     16  H   UNL     1      36.766 -20.993 -18.049  0.00  0.00    +0.152 HD
ENDBRANCH   1   9
BRANCH   2  17
ATOM     17  C   UNL     1      31.692 -23.935 -15.400  0.00  0.00    +0.003 C 
ATOM     18  C   UNL     1      30.635 -23.036 -15.517  0.00  0.00    -0.003 C 
ATOM     19  C   UNL     1      29.347 -23.423 -15.145  0.00  0.00    -0.003 C 
ATOM     20  C   UNL     1      31.468 -25.220 -14.913  0.00  0.00    +0.000 C 
ATOM     21  C   UNL     1      29.121 -24.710 -14.657  0.00  0.00    -0.003 C 
ATOM     22  C   UNL     1      30.181 -25.608 -14.541  0.00  0.00    -0.000 C 
BRANCH  19  23
ATOM     23  C   UNL     1      28.212 -22.464 -15.271  0.00  0.00    +0.118 C 
BRANCH  23  25
ATOM     24  O   UNL     1      25.569 -21.650 -16.144  0.00  0.00    -0.253 OA
ATOM     25  N   UNL     1      27.732 -22.358 -16.626  0.00  0.00    -0.285 N 
ATOM     26  N   UNL     1      26.235 -21.940 -18.322  0.00  0.00    -0.313 N 
ATOM     27  C   UNL     1      26.441 -21.958 -16.954  0.00  0.00    +0.298 C 
ATOM     28  H   UNL     1      28.351 -22.582 -17.357  0.00  0.00    +0.151 HD
ATOM     29  H   UNL     1      25.360 -21.673 -18.684  0.00  0.00    +0.146 HD
ATOM     30  H   UNL     1      26.964 -22.195 -18.933  0.00  0.00    +0.146 HD
ENDBRANCH  23  25
ENDBRANCH  19  23
ENDBRANCH   2  17
BRANCH   3  31
ATOM     31  O   UNL     1      32.186 -22.348 -17.684  0.00  0.00    -0.505 OA
ATOM     32  H   UNL     1      32.198 -21.507 -18.098  0.00  0.00    +0.292 HD
ENDBRANCH   3  31
TORSDOF 5
ENDMDL
