MODEL 1
REMARK VINA RESULT:     -11.8      0.000      0.000
REMARK  Name = 53338808
REMARK  2 active torsions:
REMARK  status: ('A' for Active; 'I' for Inactive)
REMARK    1  A    between atoms: C_3  and  C_15
REMARK    2  A    between atoms: C_5  and  C_23
REMARK                            x       y       z     vdW  Elec       q    Type
REMARK                         _______ _______ _______ _____ _____    ______ ____
ROOT
ATOM      1  N   UNL     1      31.761 -23.490 -15.079  0.00  0.00    -0.228 N 
ATOM      2  N   UNL     1      32.377 -22.794 -16.074  0.00  0.00    -0.165 NA
ATOM      3  C   UNL     1      33.893 -24.135 -15.015  0.00  0.00    +0.056 A 
ATOM      4  C   UNL     1      32.671 -24.319 -14.416  0.00  0.00    +0.086 A 
ATOM      5  C   UNL     1      33.649 -23.191 -16.023  0.00  0.00    +0.104 A 
ATOM      6  C   UNL     1      32.191 -25.121 -13.343  0.00  0.00    +0.019 C 
ATOM      7  C   UNL     1      30.411 -23.437 -14.715  0.00  0.00    +0.100 C 
ATOM      8  C   UNL     1      30.891 -25.062 -12.999  0.00  0.00    +0.003 C 
ATOM      9  C   UNL     1      29.961 -24.195 -13.702  0.00  0.00    +0.021 C 
ENDROOT
BRANCH   3  15
ATOM     10  N   UNL     1      35.441 -25.875 -15.394  0.00  0.00    -0.146 NA
ATOM     11  N   UNL     1      38.413 -26.704 -13.598  0.00  0.00    -0.257 N 
ATOM     12  N   UNL     1      36.536 -26.570 -15.126  0.00  0.00    -0.129 NA
ATOM     13  N   UNL     1      38.903 -26.065 -12.519  0.00  0.00    -0.157 NA
ATOM     14  N   UNL     1      38.088 -24.156 -11.320  0.00  0.00    -0.341 N 
ATOM     15  C   UNL     1      35.097 -24.809 -14.624  0.00  0.00    +0.106 C 
ATOM     16  C   UNL     1      35.817 -24.355 -13.527  0.00  0.00    +0.027 C 
ATOM     17  C   UNL     1      36.967 -25.089 -13.248  0.00  0.00    +0.071 A 
ATOM     18  C   UNL     1      37.259 -26.159 -14.072  0.00  0.00    +0.180 A 
ATOM     19  C   UNL     1      38.019 -25.083 -12.310  0.00  0.00    +0.148 A 
ATOM     20  H   UNL     1      38.848 -27.488 -14.005  0.00  0.00    +0.191 HD
ATOM     21  H   UNL     1      38.835 -24.177 -10.678  0.00  0.00    +0.144 HD
ATOM     22  H   UNL     1      37.392 -23.465 -11.242  0.00  0.00    +0.144 HD
ENDBRANCH   3  15
BRANCH   5  23
ATOM     23  C   UNL     1      34.607 -22.645 -16.952  0.00  0.00    +0.019 C 
ATOM     24  C   UNL     1      34.271 -22.510 -18.299  0.00  0.00    +0.002 C 
ATOM     25  C   UNL     1      35.868 -22.252 -16.505  0.00  0.00    +0.002 C 
ATOM     26  C   UNL     1      35.196 -21.981 -19.199  0.00  0.00    +0.000 C 
ATOM     27  C   UNL     1      36.793 -21.724 -17.405  0.00  0.00    +0.000 C 
ATOM     28  C   UNL     1      36.457 -21.588 -18.752  0.00  0.00    +0.000 C 
ENDBRANCH   5  23
TORSDOF 2
ENDMDL
MODEL 2
REMARK VINA RESULT:     -11.0      1.255      4.570
REMARK  Name = 53338808
REMARK  2 active torsions:
REMARK  status: ('A' for Active; 'I' for Inactive)
REMARK    1  A    between atoms: C_3  and  C_15
REMARK    2  A    between atoms: C_5  and  C_23
REMARK                            x       y       z     vdW  Elec       q    Type
REMARK                         _______ _______ _______ _____ _____    ______ ____
ROOT
ATOM      1  N   UNL     1      33.216 -22.126 -17.903  0.00  0.00    -0.228 N 
ATOM      2  N   UNL     1      32.122 -22.501 -17.186  0.00  0.00    -0.165 NA
ATOM      3  C   UNL     1      34.015 -23.295 -16.183  0.00  0.00    +0.056 A 
ATOM      4  C   UNL     1      34.388 -22.601 -17.307  0.00  0.00    +0.086 A 
ATOM      5  C   UNL     1      32.615 -23.198 -16.161  0.00  0.00    +0.104 A 
ATOM      6  C   UNL     1      35.630 -22.297 -17.932  0.00  0.00    +0.019 C 
ATOM      7  C   UNL     1      33.242 -21.369 -19.080  0.00  0.00    +0.100 C 
ATOM      8  C   UNL     1      35.645 -21.570 -19.064  0.00  0.00    +0.003 C 
ATOM      9  C   UNL     1      34.416 -21.084 -19.666  0.00  0.00    +0.021 C 
ENDROOT
BRANCH   3  15
ATOM     10  N   UNL     1      35.237 -25.228 -15.603  0.00  0.00    -0.146 NA
ATOM     11  N   UNL     1      37.456 -25.777 -12.861  0.00  0.00    -0.257 N 
ATOM     12  N   UNL     1      36.074 -25.922 -14.847  0.00  0.00    -0.129 NA
ATOM     13  N   UNL     1      37.782 -24.889 -11.902  0.00  0.00    -0.157 NA
ATOM     14  N   UNL     1      37.088 -22.620 -11.563  0.00  0.00    -0.341 N 
ATOM     15  C   UNL     1      34.930 -23.942 -15.288  0.00  0.00    +0.106 C 
ATOM     16  C   UNL     1      35.434 -23.249 -14.196  0.00  0.00    +0.027 C 
ATOM     17  C   UNL     1      36.314 -23.982 -13.404  0.00  0.00    +0.071 A 
ATOM     18  C   UNL     1      36.583 -25.283 -13.782  0.00  0.00    +0.180 A 
ATOM     19  C   UNL     1      37.083 -23.799 -12.238  0.00  0.00    +0.148 A 
ATOM     20  H   UNL     1      37.815 -26.693 -12.892  0.00  0.00    +0.191 HD
ATOM     21  H   UNL     1      37.636 -22.521 -10.750  0.00  0.00    +0.144 HD
ATOM     22  H   UNL     1      36.544 -21.866 -11.884  0.00  0.00    +0.144 HD
ENDBRANCH   3  15
BRANCH   5  23
ATOM     23  C   UNL     1      31.721 -23.759 -15.180  0.00  0.00    +0.019 C 
ATOM     24  C   UNL     1      30.841 -24.779 -15.543  0.00  0.00    +0.002 C 
ATOM     25  C   UNL     1      31.735 -23.283 -13.870  0.00  0.00    +0.002 C 
ATOM     26  C   UNL     1      29.976 -25.323 -14.594  0.00  0.00    +0.000 C 
ATOM     27  C   UNL     1      30.869 -23.828 -12.921  0.00  0.00    +0.000 C 
ATOM     28  C   UNL     1      29.990 -24.847 -13.283  0.00  0.00    +0.000 C 
ENDBRANCH   5  23
TORSDOF 2
ENDMDL
MODEL 3
REMARK VINA RESULT:     -10.6      2.355      6.288
REMARK  Name = 53338808
REMARK  2 active torsions:
REMARK  status: ('A' for Active; 'I' for Inactive)
REMARK    1  A    between atoms: C_3  and  C_15
REMARK    2  A    between atoms: C_5  and  C_23
REMARK                            x       y       z     vdW  Elec       q    Type
REMARK                         _______ _______ _______ _____ _____    ______ ____
ROOT
ATOM      1  N   UNL     1      35.587 -22.451 -17.144  0.00  0.00    -0.228 N 
ATOM      2  N   UNL     1      36.385 -22.860 -16.121  0.00  0.00    -0.165 NA
ATOM      3  C   UNL     1      34.215 -23.426 -15.683  0.00  0.00    +0.056 A 
ATOM      4  C   UNL     1      34.252 -22.788 -16.898  0.00  0.00    +0.086 A 
ATOM      5  C   UNL     1      35.551 -23.440 -15.256  0.00  0.00    +0.104 A 
ATOM      6  C   UNL     1      33.279 -22.432 -17.874  0.00  0.00    +0.019 C 
ATOM      7  C   UNL     1      35.976 -21.785 -18.311  0.00  0.00    +0.100 C 
ATOM      8  C   UNL     1      33.663 -21.790 -18.993  0.00  0.00    +0.003 C 
ATOM      9  C   UNL     1      35.055 -21.451 -19.230  0.00  0.00    +0.021 C 
ENDROOT
BRANCH   3  15
ATOM     10  N   UNL     1      33.209 -24.587 -13.893  0.00  0.00    -0.146 NA
ATOM     11  N   UNL     1      29.767 -25.346 -13.325  0.00  0.00    -0.257 N 
ATOM     12  N   UNL     1      32.176 -25.094 -13.237  0.00  0.00    -0.129 NA
ATOM     13  N   UNL     1      28.731 -25.019 -14.120  0.00  0.00    -0.157 NA
ATOM     14  N   UNL     1      28.664 -23.827 -16.199  0.00  0.00    -0.341 N 
ATOM     15  C   UNL     1      33.022 -23.933 -15.069  0.00  0.00    +0.106 C 
ATOM     16  C   UNL     1      31.792 -23.734 -15.683  0.00  0.00    +0.027 C 
ATOM     17  C   UNL     1      30.710 -24.270 -14.991  0.00  0.00    +0.071 A 
ATOM     18  C   UNL     1      30.970 -24.921 -13.800  0.00  0.00    +0.180 A 
ATOM     19  C   UNL     1      29.311 -24.364 -15.132  0.00  0.00    +0.148 A 
ATOM     20  H   UNL     1      29.664 -25.844 -12.482  0.00  0.00    +0.191 HD
ATOM     21  H   UNL     1      27.685 -23.909 -16.273  0.00  0.00    +0.144 HD
ATOM     22  H   UNL     1      29.172 -23.358 -16.899  0.00  0.00    +0.144 HD
ENDBRANCH   3  15
BRANCH   5  23
ATOM     23  C   UNL     1      36.066 -23.998 -14.030  0.00  0.00    +0.019 C 
ATOM     24  C   UNL     1      36.557 -25.303 -14.011  0.00  0.00    +0.002 C 
ATOM     25  C   UNL     1      36.072 -23.233 -12.864  0.00  0.00    +0.002 C 
ATOM     26  C   UNL     1      37.055 -25.843 -12.825  0.00  0.00    +0.000 C 
ATOM     27  C   UNL     1      36.571 -23.772 -11.679  0.00  0.00    +0.000 C 
ATOM     28  C   UNL     1      37.062 -25.077 -11.659  0.00  0.00    +0.000 C 
ENDBRANCH   5  23
TORSDOF 2
ENDMDL
MODEL 4
REMARK VINA RESULT:     -10.5      2.416      4.939
REMARK  Name = 53338808
REMARK  2 active torsions:
REMARK  status: ('A' for Active; 'I' for Inactive)
REMARK    1  A    between atoms: C_3  and  C_15
REMARK    2  A    between atoms: C_5  and  C_23
REMARK                            x       y       z     vdW  Elec       q    Type
REMARK                         _______ _______ _______ _____ _____    ______ ____
ROOT
ATOM      1  N   UNL     1      31.939 -24.464 -13.739  0.00  0.00    -0.228 N 
ATOM      2  N   UNL     1      33.140 -24.774 -13.179  0.00  0.00    -0.165 NA
ATOM      3  C   UNL     1      33.464 -23.826 -15.232  0.00  0.00    +0.056 A 
ATOM      4  C   UNL     1      32.113 -23.882 -14.998  0.00  0.00    +0.086 A 
ATOM      5  C   UNL     1      34.041 -24.386 -14.082  0.00  0.00    +0.104 A 
ATOM      6  C   UNL     1      30.952 -23.495 -15.725  0.00  0.00    +0.019 C 
ATOM      7  C   UNL     1      30.667 -24.669 -13.191  0.00  0.00    +0.100 C 
ATOM      8  C   UNL     1      29.734 -23.697 -15.190  0.00  0.00    +0.003 C 
ATOM      9  C   UNL     1      29.575 -24.303 -13.880  0.00  0.00    +0.021 C 
ENDROOT
BRANCH   3  15
ATOM     10  N   UNL     1      33.532 -23.747 -17.589  0.00  0.00    -0.146 NA
ATOM     11  N   UNL     1      35.656 -21.848 -19.740  0.00  0.00    -0.257 N 
ATOM     12  N   UNL     1      34.003 -23.319 -18.751  0.00  0.00    -0.129 NA
ATOM     13  N   UNL     1      36.626 -20.995 -19.360  0.00  0.00    -0.157 NA
ATOM     14  N   UNL     1      37.381 -20.345 -17.180  0.00  0.00    -0.341 N 
ATOM     15  C   UNL     1      34.060 -23.292 -16.423  0.00  0.00    +0.106 C 
ATOM     16  C   UNL     1      35.098 -22.375 -16.324  0.00  0.00    +0.027 C 
ATOM     17  C   UNL     1      35.591 -21.928 -17.546  0.00  0.00    +0.071 A 
ATOM     18  C   UNL     1      35.008 -22.431 -18.694  0.00  0.00    +0.180 A 
ATOM     19  C   UNL     1      36.582 -21.048 -18.024  0.00  0.00    +0.148 A 
ATOM     20  H   UNL     1      35.438 -22.032 -20.682  0.00  0.00    +0.191 HD
ATOM     21  H   UNL     1      38.066 -19.737 -17.542  0.00  0.00    +0.144 HD
ATOM     22  H   UNL     1      37.276 -20.444 -16.206  0.00  0.00    +0.144 HD
ENDBRANCH   3  15
BRANCH   5  23
ATOM     23  C   UNL     1      35.446 -24.567 -13.815  0.00  0.00    +0.019 C 
ATOM     24  C   UNL     1      36.094 -23.737 -12.901  0.00  0.00    +0.002 C 
ATOM     25  C   UNL     1      36.157 -25.572 -14.470  0.00  0.00    +0.002 C 
ATOM     26  C   UNL     1      37.453 -23.913 -12.641  0.00  0.00    +0.000 C 
ATOM     27  C   UNL     1      37.516 -25.748 -14.211  0.00  0.00    +0.000 C 
ATOM     28  C   UNL     1      38.164 -24.918 -13.296  0.00  0.00    +0.000 C 
ENDBRANCH   5  23
TORSDOF 2
ENDMDL
MODEL 5
REMARK VINA RESULT:     -10.4      2.273      5.919
REMARK  Name = 53338808
REMARK  2 active torsions:
REMARK  status: ('A' for Active; 'I' for Inactive)
REMARK    1  A    between atoms: C_3  and  C_15
REMARK    2  A    between atoms: C_5  and  C_23
REMARK                            x       y       z     vdW  Elec       q    Type
REMARK                         _______ _______ _______ _____ _____    ______ ____
ROOT
ATOM      1  N   UNL     1      35.206 -24.499 -12.370  0.00  0.00    -0.228 N 
ATOM      2  N   UNL     1      33.845 -24.501 -12.354  0.00  0.00    -0.165 NA
ATOM      3  C   UNL     1      34.594 -23.847 -14.411  0.00  0.00    +0.056 A 
ATOM      4  C   UNL     1      35.688 -24.102 -13.621  0.00  0.00    +0.086 A 
ATOM      5  C   UNL     1      33.494 -24.109 -13.580  0.00  0.00    +0.104 A 
ATOM      6  C   UNL     1      37.097 -24.045 -13.811  0.00  0.00    +0.019 C 
ATOM      7  C   UNL     1      36.068 -24.837 -11.321  0.00  0.00    +0.100 C 
ATOM      8  C   UNL     1      37.918 -24.371 -12.796  0.00  0.00    +0.003 C 
ATOM      9  C   UNL     1      37.397 -24.783 -11.504  0.00  0.00    +0.021 C 
ENDROOT
BRANCH   3  15
ATOM     10  N   UNL     1      33.803 -24.033 -16.626  0.00  0.00    -0.146 NA
ATOM     11  N   UNL     1      34.803 -22.251 -19.554  0.00  0.00    -0.257 N 
ATOM     12  N   UNL     1      33.779 -23.709 -17.910  0.00  0.00    -0.129 NA
ATOM     13  N   UNL     1      35.750 -21.297 -19.628  0.00  0.00    -0.157 NA
ATOM     14  N   UNL     1      37.165 -20.354 -17.938  0.00  0.00    -0.341 N 
ATOM     15  C   UNL     1      34.663 -23.413 -15.776  0.00  0.00    +0.106 C 
ATOM     16  C   UNL     1      35.566 -22.423 -16.141  0.00  0.00    +0.027 C 
ATOM     17  C   UNL     1      35.538 -22.086 -17.491  0.00  0.00    +0.071 A 
ATOM     18  C   UNL     1      34.638 -22.754 -18.299  0.00  0.00    +0.180 A 
ATOM     19  C   UNL     1      36.194 -21.201 -18.370  0.00  0.00    +0.148 A 
ATOM     20  H   UNL     1      34.282 -22.556 -20.331  0.00  0.00    +0.191 HD
ATOM     21  H   UNL     1      37.606 -19.746 -18.575  0.00  0.00    +0.144 HD
ATOM     22  H   UNL     1      37.427 -20.348 -16.990  0.00  0.00    +0.144 HD
ENDBRANCH   3  15
BRANCH   5  23
ATOM     23  C   UNL     1      32.099 -23.996 -13.924  0.00  0.00    +0.019 C 
ATOM     24  C   UNL     1      31.287 -25.129 -13.920  0.00  0.00    +0.002 C 
ATOM     25  C   UNL     1      31.562 -22.753 -14.259  0.00  0.00    +0.002 C 
ATOM     26  C   UNL     1      29.936 -25.020 -14.252  0.00  0.00    +0.000 C 
ATOM     27  C   UNL     1      30.211 -22.644 -14.591  0.00  0.00    +0.000 C 
ATOM     28  C   UNL     1      29.399 -23.777 -14.587  0.00  0.00    +0.000 C 
ENDBRANCH   5  23
TORSDOF 2
ENDMDL
MODEL 6
REMARK VINA RESULT:     -10.0      2.665      6.355
REMARK  Name = 53338808
REMARK  2 active torsions:
REMARK  status: ('A' for Active; 'I' for Inactive)
REMARK    1  A    between atoms: C_3  and  C_15
REMARK    2  A    between atoms: C_5  and  C_23
REMARK                            x       y       z     vdW  Elec       q    Type
REMARK                         _______ _______ _______ _____ _____    ______ ____
ROOT
ATOM      1  N   UNL     1      35.641 -21.934 -18.054  0.00  0.00    -0.228 N 
ATOM      2  N   UNL     1      36.255 -22.508 -16.984  0.00  0.00    -0.165 NA
ATOM      3  C   UNL     1      33.990 -22.735 -16.791  0.00  0.00    +0.056 A 
ATOM      4  C   UNL     1      34.252 -22.061 -17.958  0.00  0.00    +0.086 A 
ATOM      5  C   UNL     1      35.256 -22.982 -16.238  0.00  0.00    +0.104 A 
ATOM      6  C   UNL     1      33.454 -21.513 -19.001  0.00  0.00    +0.019 C 
ATOM      7  C   UNL     1      36.249 -21.291 -19.138  0.00  0.00    +0.100 C 
ATOM      8  C   UNL     1      34.048 -20.895 -20.039  0.00  0.00    +0.003 C 
ATOM      9  C   UNL     1      35.493 -20.775 -20.120  0.00  0.00    +0.021 C 
ENDROOT
BRANCH   3  15
ATOM     10  N   UNL     1      31.653 -22.571 -17.070  0.00  0.00    -0.146 NA
ATOM     11  N   UNL     1      29.025 -23.959 -15.092  0.00  0.00    -0.257 N 
ATOM     12  N   UNL     1      30.396 -22.818 -16.733  0.00  0.00    -0.129 NA
ATOM     13  N   UNL     1      29.166 -24.714 -13.986  0.00  0.00    -0.157 NA
ATOM     14  N   UNL     1      31.132 -25.473 -12.844  0.00  0.00    -0.341 N 
ATOM     15  C   UNL     1      32.675 -23.068 -16.325  0.00  0.00    +0.106 C 
ATOM     16  C   UNL     1      32.523 -23.848 -15.186  0.00  0.00    +0.027 C 
ATOM     17  C   UNL     1      31.201 -24.105 -14.836  0.00  0.00    +0.071 A 
ATOM     18  C   UNL     1      30.210 -23.571 -15.638  0.00  0.00    +0.180 A 
ATOM     19  C   UNL     1      30.492 -24.799 -13.835  0.00  0.00    +0.148 A 
ATOM     20  H   UNL     1      28.150 -23.713 -15.470  0.00  0.00    +0.191 HD
ATOM     21  H   UNL     1      30.610 -25.949 -12.157  0.00  0.00    +0.144 HD
ATOM     22  H   UNL     1      32.115 -25.485 -12.811  0.00  0.00    +0.144 HD
ENDBRANCH   3  15
BRANCH   5  23
ATOM     23  C   UNL     1      35.546 -23.665 -15.003  0.00  0.00    +0.019 C 
ATOM     24  C   UNL     1      35.485 -22.973 -13.793  0.00  0.00    +0.002 C 
ATOM     25  C   UNL     1      35.887 -25.017 -15.016  0.00  0.00    +0.002 C 
ATOM     26  C   UNL     1      35.764 -23.634 -12.597  0.00  0.00    +0.000 C 
ATOM     27  C   UNL     1      36.167 -25.678 -13.820  0.00  0.00    +0.000 C 
ATOM     28  C   UNL     1      36.106 -24.986 -12.611  0.00  0.00    +0.000 C 
ENDBRANCH   5  23
TORSDOF 2
ENDMDL
MODEL 7
REMARK VINA RESULT:      -9.4      2.412      6.227
REMARK  Name = 53338808
REMARK  2 active torsions:
REMARK  status: ('A' for Active; 'I' for Inactive)
REMARK    1  A    between atoms: C_3  and  C_15
REMARK    2  A    between atoms: C_5  and  C_23
REMARK                            x       y       z     vdW  Elec       q    Type
REMARK                         _______ _______ _______ _____ _____    ______ ____
ROOT
ATOM      1  N   UNL     1      35.944 -24.920 -13.069  0.00  0.00    -0.228 N 
ATOM      2  N   UNL     1      34.595 -24.746 -13.027  0.00  0.00    -0.165 NA
ATOM      3  C   UNL     1      35.463 -23.641 -14.829  0.00  0.00    +0.056 A 
ATOM      4  C   UNL     1      36.498 -24.252 -14.166  0.00  0.00    +0.086 A 
ATOM      5  C   UNL     1      34.323 -23.980 -14.085  0.00  0.00    +0.104 A 
ATOM      6  C   UNL     1      37.906 -24.332 -14.359  0.00  0.00    +0.019 C 
ATOM      7  C   UNL     1      36.735 -25.654 -12.177  0.00  0.00    +0.100 C 
ATOM      8  C   UNL     1      38.657 -25.039 -13.495  0.00  0.00    +0.003 C 
ATOM      9  C   UNL     1      38.062 -25.727 -12.363  0.00  0.00    +0.021 C 
ENDROOT
BRANCH   3  15
ATOM     10  N   UNL     1      36.808 -22.211 -16.137  0.00  0.00    -0.146 NA
ATOM     11  N   UNL     1      36.096 -20.661 -19.273  0.00  0.00    -0.257 N 
ATOM     12  N   UNL     1      37.058 -21.454 -17.195  0.00  0.00    -0.129 NA
ATOM     13  N   UNL     1      34.957 -20.773 -19.984  0.00  0.00    -0.157 NA
ATOM     14  N   UNL     1      32.945 -21.999 -19.541  0.00  0.00    -0.341 N 
ATOM     15  C   UNL     1      35.615 -22.851 -16.016  0.00  0.00    +0.106 C 
ATOM     16  C   UNL     1      34.580 -22.786 -16.939  0.00  0.00    +0.027 C 
ATOM     17  C   UNL     1      34.847 -21.990 -18.049  0.00  0.00    +0.071 A 
ATOM     18  C   UNL     1      36.080 -21.369 -18.111  0.00  0.00    +0.180 A 
ATOM     19  C   UNL     1      34.201 -21.583 -19.234  0.00  0.00    +0.148 A 
ATOM     20  H   UNL     1      36.864 -20.120 -19.567  0.00  0.00    +0.191 HD
ATOM     21  H   UNL     1      32.518 -21.698 -20.377  0.00  0.00    +0.144 HD
ATOM     22  H   UNL     1      32.461 -22.600 -18.930  0.00  0.00    +0.144 HD
ENDBRANCH   3  15
BRANCH   5  23
ATOM     23  C   UNL     1      32.962 -23.589 -14.354  0.00  0.00    +0.019 C 
ATOM     24  C   UNL     1      32.238 -22.880 -13.396  0.00  0.00    +0.002 C 
ATOM     25  C   UNL     1      32.369 -23.920 -15.572  0.00  0.00    +0.002 C 
ATOM     26  C   UNL     1      30.922 -22.500 -13.656  0.00  0.00    +0.000 C 
ATOM     27  C   UNL     1      31.052 -23.540 -15.832  0.00  0.00    +0.000 C 
ATOM     28  C   UNL     1      30.329 -22.831 -14.874  0.00  0.00    +0.000 C 
ENDBRANCH   5  23
TORSDOF 2
ENDMDL
MODEL 8
REMARK VINA RESULT:      -9.3      2.102      5.591
REMARK  Name = 53338808
REMARK  2 active torsions:
REMARK  status: ('A' for Active; 'I' for Inactive)
REMARK    1  A    between atoms: C_3  and  C_15
REMARK    2  A    between atoms: C_5  and  C_23
REMARK                            x       y       z     vdW  Elec       q    Type
REMARK                         _______ _______ _______ _____ _____    ______ ____
ROOT
ATOM      1  N   UNL     1      36.538 -23.274 -13.264  0.00  0.00    -0.228 N 
ATOM      2  N   UNL     1      36.610 -22.881 -14.565  0.00  0.00    -0.165 NA
ATOM      3  C   UNL     1      34.506 -23.639 -14.101  0.00  0.00    +0.056 A 
ATOM      4  C   UNL     1      35.257 -23.742 -12.956  0.00  0.00    +0.086 A 
ATOM      5  C   UNL     1      35.389 -23.105 -15.051  0.00  0.00    +0.104 A 
ATOM      6  C   UNL     1      35.007 -24.193 -11.630  0.00  0.00    +0.019 C 
ATOM      7  C   UNL     1      37.559 -23.241 -12.308  0.00  0.00    +0.100 C 
ATOM      8  C   UNL     1      35.996 -24.158 -10.718  0.00  0.00    +0.003 C 
ATOM      9  C   UNL     1      37.320 -23.667 -11.057  0.00  0.00    +0.021 C 
ENDROOT
BRANCH   3  15
ATOM     10  N   UNL     1      32.778 -25.130 -13.500  0.00  0.00    -0.146 NA
ATOM     11  N   UNL     1      29.333 -25.113 -14.438  0.00  0.00    -0.257 N 
ATOM     12  N   UNL     1      31.529 -25.571 -13.520  0.00  0.00    -0.129 NA
ATOM     13  N   UNL     1      28.725 -24.220 -15.242  0.00  0.00    -0.157 NA
ATOM     14  N   UNL     1      29.584 -22.297 -16.386  0.00  0.00    -0.341 N 
ATOM     15  C   UNL     1      33.126 -24.019 -14.202  0.00  0.00    +0.106 C 
ATOM     16  C   UNL     1      32.258 -23.263 -14.978  0.00  0.00    +0.027 C 
ATOM     17  C   UNL     1      30.946 -23.731 -14.996  0.00  0.00    +0.071 A 
ATOM     18  C   UNL     1      30.660 -24.864 -14.259  0.00  0.00    +0.180 A 
ATOM     19  C   UNL     1      29.712 -23.382 -15.579  0.00  0.00    +0.148 A 
ATOM     20  H   UNL     1      28.864 -25.871 -14.021  0.00  0.00    +0.191 HD
ATOM     21  H   UNL     1      28.708 -22.077 -16.780  0.00  0.00    +0.144 HD
ATOM     22  H   UNL     1      30.366 -21.731 -16.579  0.00  0.00    +0.144 HD
ENDBRANCH   3  15
BRANCH   5  23
ATOM     23  C   UNL     1      35.100 -22.799 -16.430  0.00  0.00    +0.019 C 
ATOM     24  C   UNL     1      35.987 -22.017 -17.170  0.00  0.00    +0.002 C 
ATOM     25  C   UNL     1      33.936 -23.285 -17.024  0.00  0.00    +0.002 C 
ATOM     26  C   UNL     1      35.709 -21.721 -18.504  0.00  0.00    +0.000 C 
ATOM     27  C   UNL     1      33.658 -22.989 -18.359  0.00  0.00    +0.000 C 
ATOM     28  C   UNL     1      34.544 -22.207 -19.098  0.00  0.00    +0.000 C 
ENDBRANCH   5  23
TORSDOF 2
ENDMDL
MODEL 9
REMARK VINA RESULT:      -9.2      1.758      5.642
REMARK  Name = 53338808
REMARK  2 active torsions:
REMARK  status: ('A' for Active; 'I' for Inactive)
REMARK    1  A    between atoms: C_3  and  C_15
REMARK    2  A    between atoms: C_5  and  C_23
REMARK                            x       y       z     vdW  Elec       q    Type
REMARK                         _______ _______ _______ _____ _____    ______ ____
ROOT
ATOM      1  N   UNL     1      36.507 -23.900 -13.519  0.00  0.00    -0.228 N 
ATOM      2  N   UNL     1      36.673 -23.457 -14.795  0.00  0.00    -0.165 NA
ATOM      3  C   UNL     1      34.448 -23.524 -14.281  0.00  0.00    +0.056 A 
ATOM      4  C   UNL     1      35.151 -23.949 -13.181  0.00  0.00    +0.086 A 
ATOM      5  C   UNL     1      35.433 -23.236 -15.237  0.00  0.00    +0.104 A 
ATOM      6  C   UNL     1      34.800 -24.393 -11.875  0.00  0.00    +0.019 C 
ATOM      7  C   UNL     1      37.507 -24.272 -12.612  0.00  0.00    +0.100 C 
ATOM      8  C   UNL     1      35.768 -24.748 -11.011  0.00  0.00    +0.003 C 
ATOM      9  C   UNL     1      37.172 -24.689 -11.381  0.00  0.00    +0.021 C 
ENDROOT
BRANCH   3  15
ATOM     10  N   UNL     1      32.525 -22.162 -14.401  0.00  0.00    -0.146 NA
ATOM     11  N   UNL     1      29.081 -23.098 -14.515  0.00  0.00    -0.257 N 
ATOM     12  N   UNL     1      31.218 -21.955 -14.462  0.00  0.00    -0.129 NA
ATOM     13  N   UNL     1      28.589 -24.351 -14.495  0.00  0.00    -0.157 NA
ATOM     14  N   UNL     1      29.700 -26.473 -14.384  0.00  0.00    -0.341 N 
ATOM     15  C   UNL     1      33.018 -23.427 -14.341  0.00  0.00    +0.106 C 
ATOM     16  C   UNL     1      32.247 -24.582 -14.336  0.00  0.00    +0.027 C 
ATOM     17  C   UNL     1      30.875 -24.360 -14.399  0.00  0.00    +0.071 A 
ATOM     18  C   UNL     1      30.440 -23.049 -14.460  0.00  0.00    +0.180 A 
ATOM     19  C   UNL     1      29.685 -25.115 -14.425  0.00  0.00    +0.148 A 
ATOM     20  H   UNL     1      28.513 -22.296 -14.564  0.00  0.00    +0.191 HD
ATOM     21  H   UNL     1      28.852 -26.975 -14.403  0.00  0.00    +0.144 HD
ATOM     22  H   UNL     1      30.556 -26.955 -14.336  0.00  0.00    +0.144 HD
ENDBRANCH   3  15
BRANCH   5  23
ATOM     23  C   UNL     1      35.227 -22.752 -16.579  0.00  0.00    +0.019 C 
ATOM     24  C   UNL     1      36.235 -22.034 -17.222  0.00  0.00    +0.002 C 
ATOM     25  C   UNL     1      34.022 -23.001 -17.233  0.00  0.00    +0.002 C 
ATOM     26  C   UNL     1      36.037 -21.565 -18.521  0.00  0.00    +0.000 C 
ATOM     27  C   UNL     1      33.823 -22.532 -18.532  0.00  0.00    +0.000 C 
ATOM     28  C   UNL     1      34.831 -21.814 -19.175  0.00  0.00    +0.000 C 
ENDBRANCH   5  23
TORSDOF 2
ENDMDL
