MODEL 1
REMARK VINA RESULT:     -11.6      0.000      0.000
REMARK  Name = 54766013
REMARK  5 active torsions:
REMARK  status: ('A' for Active; 'I' for Inactive)
REMARK    1  A    between atoms: C_3  and  C_11
REMARK    2  A    between atoms: C_4  and  C_18
REMARK    3  A    between atoms: C_5  and  C_24
REMARK    4  A    between atoms: C_24  and  N_25
REMARK    5  A    between atoms: N_25  and  C_28
REMARK                            x       y       z     vdW  Elec       q    Type
REMARK                         _______ _______ _______ _____ _____    ______ ____
ROOT
ATOM      1  N   UNL     1      33.227 -22.843 -14.557  0.00  0.00    -0.315 N 
ATOM      2  N   UNL     1      33.949 -24.422 -13.173  0.00  0.00    -0.317 N 
ATOM      3  C   UNL     1      34.863 -24.220 -14.176  0.00  0.00    +0.063 C 
ATOM      4  C   UNL     1      34.437 -23.245 -15.047  0.00  0.00    +0.085 C 
ATOM      5  C   UNL     1      32.976 -23.577 -13.431  0.00  0.00    +0.164 C 
ATOM      6  H   UNL     1      32.643 -22.151 -14.943  0.00  0.00    +0.148 HD
ATOM      7  H   UNL     1      34.009 -25.059 -12.424  0.00  0.00    +0.148 HD
ENDROOT
BRANCH   3  11
ATOM      8  N   UNL     1      38.456 -25.163 -13.815  0.00  0.00    -0.170 N 
ATOM      9  N   UNL     1      39.689 -24.780 -13.397  0.00  0.00    -0.150 NA
ATOM     10  N   UNL     1      39.777 -26.892 -14.266  0.00  0.00    -0.206 NA
ATOM     11  C   UNL     1      36.116 -24.998 -14.232  0.00  0.00    +0.031 C 
ATOM     12  C   UNL     1      37.257 -24.448 -13.764  0.00  0.00    +0.092 C 
ATOM     13  C   UNL     1      36.193 -26.351 -14.789  0.00  0.00    +0.006 C 
ATOM     14  C   UNL     1      38.540 -26.455 -14.341  0.00  0.00    +0.157 C 
ATOM     15  C   UNL     1      37.346 -27.042 -14.838  0.00  0.00    +0.036 C 
ATOM     16  C   UNL     1      40.431 -25.847 -13.690  0.00  0.00    +0.219 C 
ENDBRANCH   3  11
BRANCH   4  18
ATOM     17  N   UNL     1      34.181 -22.573 -17.286  0.00  0.00    -0.409 NA
ATOM     18  C   UNL     1      35.025 -22.681 -16.236  0.00  0.00    +0.127 C 
ATOM     19  C   UNL     1      36.354 -22.286 -16.265  0.00  0.00    +0.086 C 
ATOM     20  C   UNL     1      34.696 -22.045 -18.419  0.00  0.00    +0.109 C 
ATOM     21  C   UNL     1      36.846 -21.747 -17.449  0.00  0.00    -0.016 C 
ATOM     22  C   UNL     1      36.009 -21.621 -18.550  0.00  0.00    +0.023 C 
ATOM     23  C   UNL     1      33.769 -21.926 -19.583  0.00  0.00    +0.066 C 
ENDBRANCH   4  18
BRANCH   5  24
ATOM     24  C   UNL     1      31.739 -23.388 -12.652  0.00  0.00    +0.128 C 
BRANCH  24  25
ATOM     25  N   UNL     1      30.678 -24.270 -13.110  0.00  0.00    -0.328 N 
ATOM     26  H   UNL     1      30.516 -25.102 -12.610  0.00  0.00    +0.147 HD
BRANCH  25  28
ATOM     27  F   UNL     1      29.805 -26.308 -14.766  0.00  0.00    -0.203 F 
ATOM     28  C   UNL     1      29.889 -24.001 -14.210  0.00  0.00    +0.073 C 
ATOM     29  C   UNL     1      29.458 -25.040 -15.034  0.00  0.00    +0.153 C 
ATOM     30  C   UNL     1      29.523 -22.685 -14.498  0.00  0.00    +0.017 C 
ATOM     31  C   UNL     1      28.661 -24.767 -16.144  0.00  0.00    +0.031 C 
ATOM     32  C   UNL     1      28.725 -22.411 -15.609  0.00  0.00    +0.001 C 
ATOM     33  C   UNL     1      28.294 -23.452 -16.432  0.00  0.00    +0.002 C 
ENDBRANCH  25  28
ENDBRANCH  24  25
ENDBRANCH   5  24
TORSDOF 5
ENDMDL
MODEL 2
REMARK VINA RESULT:     -11.4      3.017      6.686
REMARK  Name = 54766013
REMARK  5 active torsions:
REMARK  status: ('A' for Active; 'I' for Inactive)
REMARK    1  A    between atoms: C_3  and  C_11
REMARK    2  A    between atoms: C_4  and  C_18
REMARK    3  A    between atoms: C_5  and  C_24
REMARK    4  A    between atoms: C_24  and  N_25
REMARK    5  A    between atoms: N_25  and  C_28
REMARK                            x       y       z     vdW  Elec       q    Type
REMARK                         _______ _______ _______ _____ _____    ______ ____
ROOT
ATOM      1  N   UNL     1      32.299 -22.777 -17.553  0.00  0.00    -0.315 N 
ATOM      2  N   UNL     1      34.466 -22.797 -17.068  0.00  0.00    -0.317 N 
ATOM      3  C   UNL     1      33.747 -23.353 -16.040  0.00  0.00    +0.063 C 
ATOM      4  C   UNL     1      32.400 -23.351 -16.318  0.00  0.00    +0.085 C 
ATOM      5  C   UNL     1      33.564 -22.460 -17.964  0.00  0.00    +0.164 C 
ATOM      6  H   UNL     1      31.467 -22.619 -18.057  0.00  0.00    +0.148 HD
ATOM      7  H   UNL     1      35.442 -22.676 -17.123  0.00  0.00    +0.148 HD
ENDROOT
BRANCH   3  11
ATOM      8  N   UNL     1      36.063 -25.258 -13.820  0.00  0.00    -0.170 N 
ATOM      9  N   UNL     1      37.078 -26.156 -13.749  0.00  0.00    -0.150 NA
ATOM     10  N   UNL     1      36.477 -25.487 -11.649  0.00  0.00    -0.206 NA
ATOM     11  C   UNL     1      34.419 -23.860 -14.828  0.00  0.00    +0.031 C 
ATOM     12  C   UNL     1      35.419 -24.758 -14.954  0.00  0.00    +0.092 C 
ATOM     13  C   UNL     1      34.045 -23.446 -13.473  0.00  0.00    +0.006 C 
ATOM     14  C   UNL     1      35.716 -24.868 -12.524  0.00  0.00    +0.157 C 
ATOM     15  C   UNL     1      34.664 -23.926 -12.380  0.00  0.00    +0.036 C 
ATOM     16  C   UNL     1      37.281 -26.252 -12.437  0.00  0.00    +0.219 C 
ENDBRANCH   3  11
BRANCH   4  18
ATOM     17  N   UNL     1      30.131 -23.086 -15.762  0.00  0.00    -0.409 NA
ATOM     18  C   UNL     1      31.254 -23.813 -15.576  0.00  0.00    +0.127 C 
ATOM     19  C   UNL     1      31.333 -24.922 -14.748  0.00  0.00    +0.086 C 
ATOM     20  C   UNL     1      29.034 -23.492 -15.083  0.00  0.00    +0.109 C 
ATOM     21  C   UNL     1      30.183 -25.308 -14.067  0.00  0.00    -0.016 C 
ATOM     22  C   UNL     1      29.007 -24.585 -14.233  0.00  0.00    +0.023 C 
ATOM     23  C   UNL     1      27.790 -22.691 -15.284  0.00  0.00    +0.066 C 
ENDBRANCH   4  18
BRANCH   5  24
ATOM     24  C   UNL     1      33.811 -21.820 -19.269  0.00  0.00    +0.128 C 
BRANCH  24  25
ATOM     25  N   UNL     1      35.032 -21.031 -19.254  0.00  0.00    -0.328 N 
ATOM     26  H   UNL     1      35.631 -21.113 -18.479  0.00  0.00    +0.147 HD
BRANCH  25  28
ATOM     27  F   UNL     1      37.475 -19.732 -19.222  0.00  0.00    -0.203 F 
ATOM     28  C   UNL     1      35.392 -20.171 -20.273  0.00  0.00    +0.073 C 
ATOM     29  C   UNL     1      36.628 -19.525 -20.240  0.00  0.00    +0.153 C 
ATOM     30  C   UNL     1      34.517 -19.948 -21.337  0.00  0.00    +0.017 C 
ATOM     31  C   UNL     1      36.990 -18.657 -21.269  0.00  0.00    +0.031 C 
ATOM     32  C   UNL     1      34.879 -19.079 -22.367  0.00  0.00    +0.001 C 
ATOM     33  C   UNL     1      36.115 -18.434 -22.333  0.00  0.00    +0.002 C 
ENDBRANCH  25  28
ENDBRANCH  24  25
ENDBRANCH   5  24
TORSDOF 5
ENDMDL
MODEL 3
REMARK VINA RESULT:     -11.3      2.730      7.546
REMARK  Name = 54766013
REMARK  5 active torsions:
REMARK  status: ('A' for Active; 'I' for Inactive)
REMARK    1  A    between atoms: C_3  and  C_11
REMARK    2  A    between atoms: C_4  and  C_18
REMARK    3  A    between atoms: C_5  and  C_24
REMARK    4  A    between atoms: C_24  and  N_25
REMARK    5  A    between atoms: N_25  and  C_28
REMARK                            x       y       z     vdW  Elec       q    Type
REMARK                         _______ _______ _______ _____ _____    ______ ____
ROOT
ATOM      1  N   UNL     1      36.790 -22.987 -15.811  0.00  0.00    -0.315 N 
ATOM      2  N   UNL     1      34.762 -22.557 -16.606  0.00  0.00    -0.317 N 
ATOM      3  C   UNL     1      34.675 -23.382 -15.513  0.00  0.00    +0.063 C 
ATOM      4  C   UNL     1      35.921 -23.663 -15.002  0.00  0.00    +0.085 C 
ATOM      5  C   UNL     1      36.049 -22.338 -16.759  0.00  0.00    +0.164 C 
ATOM      6  H   UNL     1      37.771 -22.970 -15.727  0.00  0.00    +0.148 HD
ATOM      7  H   UNL     1      34.023 -22.206 -17.155  0.00  0.00    +0.148 HD
ENDROOT
BRANCH   3  11
ATOM      8  N   UNL     1      30.999 -23.966 -15.247  0.00  0.00    -0.170 N 
ATOM      9  N   UNL     1      29.776 -23.743 -15.792  0.00  0.00    -0.150 NA
ATOM     10  N   UNL     1      29.571 -25.003 -13.897  0.00  0.00    -0.206 NA
ATOM     11  C   UNL     1      33.367 -23.857 -15.020  0.00  0.00    +0.031 C 
ATOM     12  C   UNL     1      32.248 -23.534 -15.701  0.00  0.00    +0.092 C 
ATOM     13  C   UNL     1      33.216 -24.663 -13.805  0.00  0.00    +0.006 C 
ATOM     14  C   UNL     1      30.843 -24.736 -14.092  0.00  0.00    +0.157 C 
ATOM     15  C   UNL     1      32.015 -25.079 -13.367  0.00  0.00    +0.036 C 
ATOM     16  C   UNL     1      28.969 -24.383 -14.947  0.00  0.00    +0.219 C 
ENDBRANCH   3  11
BRANCH   4  18
ATOM     17  N   UNL     1      36.153 -23.899 -12.674  0.00  0.00    -0.409 NA
ATOM     18  C   UNL     1      36.354 -24.464 -13.886  0.00  0.00    +0.127 C 
ATOM     19  C   UNL     1      36.925 -25.713 -14.074  0.00  0.00    +0.086 C 
ATOM     20  C   UNL     1      36.544 -24.623 -11.602  0.00  0.00    +0.109 C 
ATOM     21  C   UNL     1      37.315 -26.426 -12.945  0.00  0.00    -0.016 C 
ATOM     22  C   UNL     1      37.124 -25.879 -11.683  0.00  0.00    +0.023 C 
ATOM     23  C   UNL     1      36.325 -24.003 -10.261  0.00  0.00    +0.066 C 
ENDBRANCH   4  18
BRANCH   5  24
ATOM     24  C   UNL     1      36.688 -21.508 -17.797  0.00  0.00    +0.128 C 
BRANCH  24  25
ATOM     25  N   UNL     1      35.938 -21.540 -19.043  0.00  0.00    -0.328 N 
ATOM     26  H   UNL     1      35.444 -22.361 -19.269  0.00  0.00    +0.147 HD
BRANCH  25  28
ATOM     27  F   UNL     1      33.559 -20.818 -20.257  0.00  0.00    -0.203 F 
ATOM     28  C   UNL     1      35.885 -20.479 -19.924  0.00  0.00    +0.073 C 
ATOM     29  C   UNL     1      34.677 -20.130 -20.527  0.00  0.00    +0.153 C 
ATOM     30  C   UNL     1      37.043 -19.756 -20.213  0.00  0.00    +0.017 C 
ATOM     31  C   UNL     1      34.625 -19.058 -21.418  0.00  0.00    +0.031 C 
ATOM     32  C   UNL     1      36.992 -18.684 -21.104  0.00  0.00    +0.001 C 
ATOM     33  C   UNL     1      35.783 -18.335 -21.706  0.00  0.00    +0.002 C 
ENDBRANCH  25  28
ENDBRANCH  24  25
ENDBRANCH   5  24
TORSDOF 5
ENDMDL
MODEL 4
REMARK VINA RESULT:     -11.0      2.828      6.639
REMARK  Name = 54766013
REMARK  5 active torsions:
REMARK  status: ('A' for Active; 'I' for Inactive)
REMARK    1  A    between atoms: C_3  and  C_11
REMARK    2  A    between atoms: C_4  and  C_18
REMARK    3  A    between atoms: C_5  and  C_24
REMARK    4  A    between atoms: C_24  and  N_25
REMARK    5  A    between atoms: N_25  and  C_28
REMARK                            x       y       z     vdW  Elec       q    Type
REMARK                         _______ _______ _______ _____ _____    ______ ____
ROOT
ATOM      1  N   UNL     1      32.392 -22.747 -17.411  0.00  0.00    -0.315 N 
ATOM      2  N   UNL     1      34.576 -22.818 -17.013  0.00  0.00    -0.317 N 
ATOM      3  C   UNL     1      33.890 -23.424 -15.991  0.00  0.00    +0.063 C 
ATOM      4  C   UNL     1      32.533 -23.393 -16.216  0.00  0.00    +0.085 C 
ATOM      5  C   UNL     1      33.644 -22.421 -17.852  0.00  0.00    +0.164 C 
ATOM      6  H   UNL     1      31.544 -22.553 -17.872  0.00  0.00    +0.148 HD
ATOM      7  H   UNL     1      35.550 -22.704 -17.099  0.00  0.00    +0.148 HD
ENDROOT
BRANCH   3  11
ATOM      8  N   UNL     1      35.016 -24.074 -12.493  0.00  0.00    -0.170 N 
ATOM      9  N   UNL     1      34.892 -23.736 -11.184  0.00  0.00    -0.150 NA
ATOM     10  N   UNL     1      36.437 -25.404 -11.420  0.00  0.00    -0.206 NA
ATOM     11  C   UNL     1      34.602 -24.008 -14.838  0.00  0.00    +0.031 C 
ATOM     12  C   UNL     1      34.346 -23.541 -13.597  0.00  0.00    +0.092 C 
ATOM     13  C   UNL     1      35.599 -25.075 -14.970  0.00  0.00    +0.006 C 
ATOM     14  C   UNL     1      35.965 -25.092 -12.607  0.00  0.00    +0.157 C 
ATOM     15  C   UNL     1      36.244 -25.589 -13.908  0.00  0.00    +0.036 C 
ATOM     16  C   UNL     1      35.759 -24.559 -10.597  0.00  0.00    +0.219 C 
ENDBRANCH   3  11
BRANCH   4  18
ATOM     17  N   UNL     1      30.245 -23.248 -15.695  0.00  0.00    -0.409 NA
ATOM     18  C   UNL     1      31.412 -23.886 -15.456  0.00  0.00    +0.127 C 
ATOM     19  C   UNL     1      31.553 -24.936 -14.563  0.00  0.00    +0.086 C 
ATOM     20  C   UNL     1      29.169 -23.684 -15.003  0.00  0.00    +0.109 C 
ATOM     21  C   UNL     1      30.423 -25.356 -13.870  0.00  0.00    -0.016 C 
ATOM     22  C   UNL     1      29.204 -24.725 -14.088  0.00  0.00    +0.023 C 
ATOM     23  C   UNL     1      27.877 -22.981 -15.262  0.00  0.00    +0.066 C 
ENDBRANCH   4  18
BRANCH   5  24
ATOM     24  C   UNL     1      33.848 -21.708 -19.127  0.00  0.00    +0.128 C 
BRANCH  24  25
ATOM     25  N   UNL     1      35.220 -21.250 -19.269  0.00  0.00    -0.328 N 
ATOM     26  H   UNL     1      35.909 -21.652 -18.692  0.00  0.00    +0.147 HD
BRANCH  25  28
ATOM     27  F   UNL     1      33.429 -20.234 -21.118  0.00  0.00    -0.203 F 
ATOM     28  C   UNL     1      35.606 -20.279 -20.171  0.00  0.00    +0.073 C 
ATOM     29  C   UNL     1      34.690 -19.779 -21.097  0.00  0.00    +0.153 C 
ATOM     30  C   UNL     1      36.917 -19.799 -20.159  0.00  0.00    +0.017 C 
ATOM     31  C   UNL     1      35.082 -18.799 -22.007  0.00  0.00    +0.031 C 
ATOM     32  C   UNL     1      37.309 -18.819 -21.070  0.00  0.00    +0.001 C 
ATOM     33  C   UNL     1      36.392 -18.318 -21.994  0.00  0.00    +0.002 C 
ENDBRANCH  25  28
ENDBRANCH  24  25
ENDBRANCH   5  24
TORSDOF 5
ENDMDL
MODEL 5
REMARK VINA RESULT:     -10.9      2.844      7.400
REMARK  Name = 54766013
REMARK  5 active torsions:
REMARK  status: ('A' for Active; 'I' for Inactive)
REMARK    1  A    between atoms: C_3  and  C_11
REMARK    2  A    between atoms: C_4  and  C_18
REMARK    3  A    between atoms: C_5  and  C_24
REMARK    4  A    between atoms: C_24  and  N_25
REMARK    5  A    between atoms: N_25  and  C_28
REMARK                            x       y       z     vdW  Elec       q    Type
REMARK                         _______ _______ _______ _____ _____    ______ ____
ROOT
ATOM      1  N   UNL     1      36.951 -22.476 -16.879  0.00  0.00    -0.315 N 
ATOM      2  N   UNL     1      34.903 -22.192 -17.690  0.00  0.00    -0.317 N 
ATOM      3  C   UNL     1      34.844 -22.808 -16.465  0.00  0.00    +0.063 C 
ATOM      4  C   UNL     1      36.103 -22.994 -15.942  0.00  0.00    +0.085 C 
ATOM      5  C   UNL     1      36.186 -22.005 -17.910  0.00  0.00    +0.164 C 
ATOM      6  H   UNL     1      37.933 -22.445 -16.822  0.00  0.00    +0.148 HD
ATOM      7  H   UNL     1      34.150 -21.945 -18.275  0.00  0.00    +0.148 HD
ENDROOT
BRANCH   3  11
ATOM      8  N   UNL     1      32.322 -24.235 -14.113  0.00  0.00    -0.170 N 
ATOM      9  N   UNL     1      32.111 -24.909 -12.955  0.00  0.00    -0.150 NA
ATOM     10  N   UNL     1      30.113 -24.406 -13.943  0.00  0.00    -0.206 NA
ATOM     11  C   UNL     1      33.550 -23.186 -15.864  0.00  0.00    +0.031 C 
ATOM     12  C   UNL     1      33.536 -23.860 -14.695  0.00  0.00    +0.092 C 
ATOM     13  C   UNL     1      32.260 -22.875 -16.486  0.00  0.00    +0.006 C 
ATOM     14  C   UNL     1      31.087 -23.942 -14.695  0.00  0.00    +0.157 C 
ATOM     15  C   UNL     1      31.090 -23.236 -15.927  0.00  0.00    +0.036 C 
ATOM     16  C   UNL     1      30.782 -24.980 -12.907  0.00  0.00    +0.219 C 
ENDBRANCH   3  11
BRANCH   4  18
ATOM     17  N   UNL     1      36.785 -24.915 -14.769  0.00  0.00    -0.409 NA
ATOM     18  C   UNL     1      36.565 -23.583 -14.710  0.00  0.00    +0.127 C 
ATOM     19  C   UNL     1      36.762 -22.813 -13.574  0.00  0.00    +0.086 C 
ATOM     20  C   UNL     1      37.223 -25.502 -13.633  0.00  0.00    +0.109 C 
ATOM     21  C   UNL     1      37.213 -23.454 -12.425  0.00  0.00    -0.016 C 
ATOM     22  C   UNL     1      37.451 -24.823 -12.447  0.00  0.00    +0.023 C 
ATOM     23  C   UNL     1      37.466 -26.974 -13.692  0.00  0.00    +0.066 C 
ENDBRANCH   4  18
BRANCH   5  24
ATOM     24  C   UNL     1      36.797 -21.376 -19.095  0.00  0.00    +0.128 C 
BRANCH  24  25
ATOM     25  N   UNL     1      36.309 -20.021 -19.291  0.00  0.00    -0.328 N 
ATOM     26  H   UNL     1      36.287 -19.416 -18.515  0.00  0.00    +0.147 HD
BRANCH  25  28
ATOM     27  F   UNL     1      33.862 -20.786 -20.332  0.00  0.00    -0.203 F 
ATOM     28  C   UNL     1      35.875 -19.539 -20.509  0.00  0.00    +0.073 C 
ATOM     29  C   UNL     1      34.639 -19.936 -21.019  0.00  0.00    +0.153 C 
ATOM     30  C   UNL     1      36.676 -18.654 -21.233  0.00  0.00    +0.017 C 
ATOM     31  C   UNL     1      34.202 -19.449 -22.250  0.00  0.00    +0.031 C 
ATOM     32  C   UNL     1      36.239 -18.167 -22.465  0.00  0.00    +0.001 C 
ATOM     33  C   UNL     1      35.002 -18.564 -22.974  0.00  0.00    +0.002 C 
ENDBRANCH  25  28
ENDBRANCH  24  25
ENDBRANCH   5  24
TORSDOF 5
ENDMDL
MODEL 6
REMARK VINA RESULT:     -10.8      3.377      7.927
REMARK  Name = 54766013
REMARK  5 active torsions:
REMARK  status: ('A' for Active; 'I' for Inactive)
REMARK    1  A    between atoms: C_3  and  C_11
REMARK    2  A    between atoms: C_4  and  C_18
REMARK    3  A    between atoms: C_5  and  C_24
REMARK    4  A    between atoms: C_24  and  N_25
REMARK    5  A    between atoms: N_25  and  C_28
REMARK                            x       y       z     vdW  Elec       q    Type
REMARK                         _______ _______ _______ _____ _____    ______ ____
ROOT
ATOM      1  N   UNL     1      36.499 -22.620 -16.888  0.00  0.00    -0.315 N 
ATOM      2  N   UNL     1      34.499 -22.240 -17.776  0.00  0.00    -0.317 N 
ATOM      3  C   UNL     1      34.365 -22.854 -16.556  0.00  0.00    +0.063 C 
ATOM      4  C   UNL     1      35.592 -23.099 -15.986  0.00  0.00    +0.085 C 
ATOM      5  C   UNL     1      35.797 -22.114 -17.947  0.00  0.00    +0.164 C 
ATOM      6  H   UNL     1      37.479 -22.636 -16.793  0.00  0.00    +0.148 HD
ATOM      7  H   UNL     1      33.782 -21.957 -18.389  0.00  0.00    +0.148 HD
ENDROOT
BRANCH   3  11
ATOM      8  N   UNL     1      30.661 -22.978 -16.119  0.00  0.00    -0.170 N 
ATOM      9  N   UNL     1      29.452 -22.594 -16.602  0.00  0.00    -0.150 NA
ATOM     10  N   UNL     1      29.178 -23.854 -14.715  0.00  0.00    -0.206 NA
ATOM     11  C   UNL     1      33.032 -23.171 -16.007  0.00  0.00    +0.031 C 
ATOM     12  C   UNL     1      31.931 -22.697 -16.628  0.00  0.00    +0.092 C 
ATOM     13  C   UNL     1      32.838 -23.974 -14.796  0.00  0.00    +0.006 C 
ATOM     14  C   UNL     1      30.463 -23.744 -14.968  0.00  0.00    +0.157 C 
ATOM     15  C   UNL     1      31.615 -24.245 -14.305  0.00  0.00    +0.036 C 
ATOM     16  C   UNL     1      28.611 -23.143 -15.727  0.00  0.00    +0.219 C 
ENDBRANCH   3  11
BRANCH   4  18
ATOM     17  N   UNL     1      36.406 -24.987 -14.844  0.00  0.00    -0.409 NA
ATOM     18  C   UNL     1      35.978 -23.710 -14.739  0.00  0.00    +0.127 C 
ATOM     19  C   UNL     1      35.908 -23.011 -13.543  0.00  0.00    +0.086 C 
ATOM     20  C   UNL     1      36.780 -25.592 -13.695  0.00  0.00    +0.109 C 
ATOM     21  C   UNL     1      36.302 -23.669 -12.383  0.00  0.00    -0.016 C 
ATOM     22  C   UNL     1      36.748 -24.983 -12.451  0.00  0.00    +0.023 C 
ATOM     23  C   UNL     1      37.252 -27.004 -13.806  0.00  0.00    +0.066 C 
ENDBRANCH   4  18
BRANCH   5  24
ATOM     24  C   UNL     1      36.482 -21.513 -19.105  0.00  0.00    +0.128 C 
BRANCH  24  25
ATOM     25  N   UNL     1      36.046 -20.145 -19.334  0.00  0.00    -0.328 N 
ATOM     26  H   UNL     1      36.030 -19.527 -18.568  0.00  0.00    +0.147 HD
BRANCH  25  28
ATOM     27  F   UNL     1      37.750 -18.598 -20.871  0.00  0.00    -0.203 F 
ATOM     28  C   UNL     1      35.653 -19.670 -20.569  0.00  0.00    +0.073 C 
ATOM     29  C   UNL     1      36.525 -18.891 -21.329  0.00  0.00    +0.153 C 
ATOM     30  C   UNL     1      34.379 -19.968 -21.055  0.00  0.00    +0.017 C 
ATOM     31  C   UNL     1      36.126 -18.412 -22.576  0.00  0.00    +0.031 C 
ATOM     32  C   UNL     1      33.980 -19.489 -22.303  0.00  0.00    +0.001 C 
ATOM     33  C   UNL     1      34.853 -18.711 -23.064  0.00  0.00    +0.002 C 
ENDBRANCH  25  28
ENDBRANCH  24  25
ENDBRANCH   5  24
TORSDOF 5
ENDMDL
MODEL 7
REMARK VINA RESULT:     -10.8      1.655      5.039
REMARK  Name = 54766013
REMARK  5 active torsions:
REMARK  status: ('A' for Active; 'I' for Inactive)
REMARK    1  A    between atoms: C_3  and  C_11
REMARK    2  A    between atoms: C_4  and  C_18
REMARK    3  A    between atoms: C_5  and  C_24
REMARK    4  A    between atoms: C_24  and  N_25
REMARK    5  A    between atoms: N_25  and  C_28
REMARK                            x       y       z     vdW  Elec       q    Type
REMARK                         _______ _______ _______ _____ _____    ______ ____
ROOT
ATOM      1  N   UNL     1      33.724 -25.114 -13.336  0.00  0.00    -0.315 N 
ATOM      2  N   UNL     1      32.838 -23.775 -14.870  0.00  0.00    -0.317 N 
ATOM      3  C   UNL     1      34.203 -23.814 -15.009  0.00  0.00    +0.063 C 
ATOM      4  C   UNL     1      34.775 -24.638 -14.068  0.00  0.00    +0.085 C 
ATOM      5  C   UNL     1      32.582 -24.569 -13.854  0.00  0.00    +0.164 C 
ATOM      6  H   UNL     1      33.779 -25.737 -12.575  0.00  0.00    +0.148 HD
ATOM      7  H   UNL     1      32.193 -23.265 -15.412  0.00  0.00    +0.148 HD
ENDROOT
BRANCH   3  11
ATOM      8  N   UNL     1      34.851 -22.025 -18.219  0.00  0.00    -0.170 N 
ATOM      9  N   UNL     1      34.353 -21.649 -19.424  0.00  0.00    -0.150 NA
ATOM     10  N   UNL     1      36.504 -20.911 -19.201  0.00  0.00    -0.206 NA
ATOM     11  C   UNL     1      34.883 -23.036 -16.063  0.00  0.00    +0.031 C 
ATOM     12  C   UNL     1      34.223 -22.753 -17.205  0.00  0.00    +0.092 C 
ATOM     13  C   UNL     1      36.263 -22.557 -15.938  0.00  0.00    +0.006 C 
ATOM     14  C   UNL     1      36.165 -21.563 -18.111  0.00  0.00    +0.157 C 
ATOM     15  C   UNL     1      36.869 -21.857 -16.913  0.00  0.00    +0.036 C 
ATOM     16  C   UNL     1      35.380 -20.991 -19.961  0.00  0.00    +0.219 C 
ENDBRANCH   3  11
BRANCH   4  18
ATOM     17  N   UNL     1      36.720 -24.330 -12.784  0.00  0.00    -0.409 NA
ATOM     18  C   UNL     1      36.143 -25.005 -13.802  0.00  0.00    +0.127 C 
ATOM     19  C   UNL     1      36.784 -25.982 -14.548  0.00  0.00    +0.086 C 
ATOM     20  C   UNL     1      38.003 -24.649 -12.502  0.00  0.00    +0.109 C 
ATOM     21  C   UNL     1      38.104 -26.282 -14.227  0.00  0.00    -0.016 C 
ATOM     22  C   UNL     1      38.732 -25.608 -13.186  0.00  0.00    +0.023 C 
ATOM     23  C   UNL     1      38.646 -23.904 -11.379  0.00  0.00    +0.066 C 
ENDBRANCH   4  18
BRANCH   5  24
ATOM     24  C   UNL     1      31.257 -24.881 -13.288  0.00  0.00    +0.128 C 
BRANCH  24  25
ATOM     25  N   UNL     1      30.320 -23.788 -13.486  0.00  0.00    -0.328 N 
ATOM     26  H   UNL     1      30.286 -23.074 -12.810  0.00  0.00    +0.147 HD
BRANCH  25  28
ATOM     27  F   UNL     1      28.943 -21.450 -14.034  0.00  0.00    -0.203 F 
ATOM     28  C   UNL     1      29.475 -23.700 -14.574  0.00  0.00    +0.073 C 
ATOM     29  C   UNL     1      28.789 -22.514 -14.835  0.00  0.00    +0.153 C 
ATOM     30  C   UNL     1      29.306 -24.802 -15.414  0.00  0.00    +0.017 C 
ATOM     31  C   UNL     1      27.935 -22.428 -15.934  0.00  0.00    +0.031 C 
ATOM     32  C   UNL     1      28.452 -24.716 -16.514  0.00  0.00    +0.001 C 
ATOM     33  C   UNL     1      27.767 -23.529 -16.774  0.00  0.00    +0.002 C 
ENDBRANCH  25  28
ENDBRANCH  24  25
ENDBRANCH   5  24
TORSDOF 5
ENDMDL
MODEL 8
REMARK VINA RESULT:     -10.1     12.535     16.485
REMARK  Name = 54766013
REMARK  5 active torsions:
REMARK  status: ('A' for Active; 'I' for Inactive)
REMARK    1  A    between atoms: C_3  and  C_11
REMARK    2  A    between atoms: C_4  and  C_18
REMARK    3  A    between atoms: C_5  and  C_24
REMARK    4  A    between atoms: C_24  and  N_25
REMARK    5  A    between atoms: N_25  and  C_28
REMARK                            x       y       z     vdW  Elec       q    Type
REMARK                         _______ _______ _______ _____ _____    ______ ____
ROOT
ATOM      1  N   UNL     1      32.585 -12.619 -22.345  0.00  0.00    -0.315 N 
ATOM      2  N   UNL     1      33.458 -11.782 -24.207  0.00  0.00    -0.317 N 
ATOM      3  C   UNL     1      33.218 -10.777 -23.306  0.00  0.00    +0.063 C 
ATOM      4  C   UNL     1      32.677 -11.271 -22.142  0.00  0.00    +0.085 C 
ATOM      5  C   UNL     1      33.066 -12.880 -23.598  0.00  0.00    +0.164 C 
ATOM      6  H   UNL     1      32.238 -13.282 -21.705  0.00  0.00    +0.148 HD
ATOM      7  H   UNL     1      33.839 -11.701 -25.112  0.00  0.00    +0.148 HD
ENDROOT
BRANCH   3  11
ATOM      8  N   UNL     1      32.845  -7.246 -24.457  0.00  0.00    -0.170 N 
ATOM      9  N   UNL     1      32.010  -6.306 -24.968  0.00  0.00    -0.150 NA
ATOM     10  N   UNL     1      34.095  -5.421 -24.664  0.00  0.00    -0.206 NA
ATOM     11  C   UNL     1      33.533  -9.372 -23.631  0.00  0.00    +0.031 C 
ATOM     12  C   UNL     1      32.566  -8.577 -24.135  0.00  0.00    +0.092 C 
ATOM     13  C   UNL     1      34.865  -8.788 -23.446  0.00  0.00    +0.006 C 
ATOM     14  C   UNL     1      34.110  -6.679 -24.283  0.00  0.00    +0.157 C 
ATOM     15  C   UNL     1      35.136  -7.508 -23.756  0.00  0.00    +0.036 C 
ATOM     16  C   UNL     1      32.808  -5.244 -25.068  0.00  0.00    +0.219 C 
ENDBRANCH   3  11
BRANCH   4  18
ATOM     17  N   UNL     1      32.274  -9.284 -20.952  0.00  0.00    -0.409 NA
ATOM     18  C   UNL     1      32.257 -10.634 -20.919  0.00  0.00    +0.127 C 
ATOM     19  C   UNL     1      31.870 -11.379 -19.816  0.00  0.00    +0.086 C 
ATOM     20  C   UNL     1      31.884  -8.651 -19.823  0.00  0.00    +0.109 C 
ATOM     21  C   UNL     1      31.475 -10.691 -18.674  0.00  0.00    -0.016 C 
ATOM     22  C   UNL     1      31.478  -9.302 -18.669  0.00  0.00    +0.023 C 
ATOM     23  C   UNL     1      31.901  -7.158 -19.853  0.00  0.00    +0.066 C 
ENDBRANCH   4  18
BRANCH   5  24
ATOM     24  C   UNL     1      33.108 -14.252 -24.134  0.00  0.00    +0.128 C 
BRANCH  24  25
ATOM     25  N   UNL     1      34.441 -14.824 -24.032  0.00  0.00    -0.328 N 
ATOM     26  H   UNL     1      35.172 -14.395 -24.532  0.00  0.00    +0.147 HD
BRANCH  25  28
ATOM     27  F   UNL     1      34.910 -14.607 -21.313  0.00  0.00    -0.203 F 
ATOM     28  C   UNL     1      34.733 -15.938 -23.271  0.00  0.00    +0.073 C 
ATOM     29  C   UNL     1      34.967 -15.810 -21.902  0.00  0.00    +0.153 C 
ATOM     30  C   UNL     1      34.795 -17.196 -23.875  0.00  0.00    +0.017 C 
ATOM     31  C   UNL     1      35.262 -16.936 -21.136  0.00  0.00    +0.031 C 
ATOM     32  C   UNL     1      35.091 -18.323 -23.107  0.00  0.00    +0.001 C 
ATOM     33  C   UNL     1      35.324 -18.194 -21.738  0.00  0.00    +0.002 C 
ENDBRANCH  25  28
ENDBRANCH  24  25
ENDBRANCH   5  24
TORSDOF 5
ENDMDL
MODEL 9
REMARK VINA RESULT:      -9.7     12.272     16.175
REMARK  Name = 54766013
REMARK  5 active torsions:
REMARK  status: ('A' for Active; 'I' for Inactive)
REMARK    1  A    between atoms: C_3  and  C_11
REMARK    2  A    between atoms: C_4  and  C_18
REMARK    3  A    between atoms: C_5  and  C_24
REMARK    4  A    between atoms: C_24  and  N_25
REMARK    5  A    between atoms: N_25  and  C_28
REMARK                            x       y       z     vdW  Elec       q    Type
REMARK                         _______ _______ _______ _____ _____    ______ ____
ROOT
ATOM      1  N   UNL     1      32.869 -12.829 -22.028  0.00  0.00    -0.315 N 
ATOM      2  N   UNL     1      33.405 -12.068 -24.044  0.00  0.00    -0.317 N 
ATOM      3  C   UNL     1      33.062 -11.024 -23.221  0.00  0.00    +0.063 C 
ATOM      4  C   UNL     1      32.726 -11.472 -21.965  0.00  0.00    +0.085 C 
ATOM      5  C   UNL     1      33.278 -13.141 -23.295  0.00  0.00    +0.164 C 
ATOM      6  H   UNL     1      32.708 -13.466 -21.294  0.00  0.00    +0.148 HD
ATOM      7  H   UNL     1      33.684 -12.023 -24.987  0.00  0.00    +0.148 HD
ENDROOT
BRANCH   3  11
ATOM      8  N   UNL     1      34.246  -7.580 -24.036  0.00  0.00    -0.170 N 
ATOM      9  N   UNL     1      35.279  -6.701 -23.997  0.00  0.00    -0.150 NA
ATOM     10  N   UNL     1      33.449  -5.718 -24.950  0.00  0.00    -0.206 NA
ATOM     11  C   UNL     1      33.080  -9.632 -23.711  0.00  0.00    +0.031 C 
ATOM     12  C   UNL     1      34.209  -8.903 -23.587  0.00  0.00    +0.092 C 
ATOM     13  C   UNL     1      31.915  -8.984 -24.321  0.00  0.00    +0.006 C 
ATOM     14  C   UNL     1      33.143  -6.953 -24.621  0.00  0.00    +0.157 C 
ATOM     15  C   UNL     1      31.949  -7.711 -24.753  0.00  0.00    +0.036 C 
ATOM     16  C   UNL     1      34.746  -5.615 -24.553  0.00  0.00    +0.219 C 
ENDBRANCH   3  11
BRANCH   4  18
ATOM     17  N   UNL     1      32.248  -9.439 -20.883  0.00  0.00    -0.409 NA
ATOM     18  C   UNL     1      32.304 -10.785 -20.770  0.00  0.00    +0.127 C 
ATOM     19  C   UNL     1      31.983 -11.481 -19.615  0.00  0.00    +0.086 C 
ATOM     20  C   UNL     1      31.853  -8.761 -19.783  0.00  0.00    +0.109 C 
ATOM     21  C   UNL     1      31.581 -10.747 -18.505  0.00  0.00    -0.016 C 
ATOM     22  C   UNL     1      31.512  -9.361 -18.581  0.00  0.00    +0.023 C 
ATOM     23  C   UNL     1      31.792  -7.273 -19.901  0.00  0.00    +0.066 C 
ENDBRANCH   4  18
BRANCH   5  24
ATOM     24  C   UNL     1      33.529 -14.536 -23.699  0.00  0.00    +0.128 C 
BRANCH  24  25
ATOM     25  N   UNL     1      34.770 -15.041 -23.136  0.00  0.00    -0.328 N 
ATOM     26  H   UNL     1      35.523 -14.416 -23.031  0.00  0.00    +0.147 HD
BRANCH  25  28
ATOM     27  F   UNL     1      34.524 -17.117 -24.949  0.00  0.00    -0.203 F 
ATOM     28  C   UNL     1      34.947 -16.352 -22.742  0.00  0.00    +0.073 C 
ATOM     29  C   UNL     1      34.819 -17.385 -23.669  0.00  0.00    +0.153 C 
ATOM     30  C   UNL     1      35.253 -16.643 -21.411  0.00  0.00    +0.017 C 
ATOM     31  C   UNL     1      34.998 -18.709 -23.269  0.00  0.00    +0.031 C 
ATOM     32  C   UNL     1      35.432 -17.968 -21.011  0.00  0.00    +0.001 C 
ATOM     33  C   UNL     1      35.305 -19.000 -21.940  0.00  0.00    +0.002 C 
ENDBRANCH  25  28
ENDBRANCH  24  25
ENDBRANCH   5  24
TORSDOF 5
ENDMDL
