MODEL 1
REMARK VINA RESULT:     -11.8      0.000      0.000
REMARK  Name = 16048422
REMARK  11 active torsions:
REMARK  status: ('A' for Active; 'I' for Inactive)
REMARK    1  A    between atoms: C_1  and  C_4
REMARK    2  A    between atoms: C_1  and  N_18
REMARK    3  A    between atoms: C_1  and  C_33
REMARK    4  A    between atoms: N_3  and  C_6
REMARK    5  A    between atoms: C_6  and  C_9
REMARK    6  A    between atoms: C_9  and  C_11
REMARK    7  A    between atoms: C_19  and  C_21
REMARK    8  A    between atoms: C_24  and  C_27
REMARK    9  A    between atoms: C_33  and  C_34
REMARK   10  A    between atoms: C_34  and  C_36
REMARK   11  A    between atoms: C_36  and  O_37
REMARK                            x       y       z     vdW  Elec       q    Type
REMARK                         _______ _______ _______ _____ _____    ______ ____
ROOT
ATOM      1  C   UNL     1      34.799 -23.937 -15.526  0.00  0.00    +0.149 C 
ENDROOT
BRANCH   1   4
ATOM      2  O   UNL     1      33.653 -22.828 -13.707  0.00  0.00    -0.273 OA
ATOM      3  N   UNL     1      32.437 -24.240 -15.093  0.00  0.00    -0.306 N 
ATOM      4  C   UNL     1      33.586 -23.586 -14.673  0.00  0.00    +0.240 C 
ATOM      5  H   UNL     1      32.495 -24.827 -15.881  0.00  0.00    +0.149 HD
BRANCH   3   6
ATOM      6  C   UNL     1      31.161 -24.102 -14.429  0.00  0.00    +0.061 C 
ATOM      7  C   UNL     1      31.245 -24.740 -13.034  0.00  0.00    +0.020 C 
ATOM      8  C   UNL     1      30.871 -22.600 -14.264  0.00  0.00    +0.020 C 
BRANCH   6   9
ATOM      9  C   UNL     1      30.030 -24.731 -15.283  0.00  0.00    +0.044 C 
BRANCH   9  11
ATOM     10  F   UNL     1      25.721 -21.324 -16.566  0.00  0.00    -0.204 F 
ATOM     11  C   UNL     1      28.874 -23.818 -15.627  0.00  0.00    -0.020 C 
ATOM     12  C   UNL     1      28.213 -23.119 -14.617  0.00  0.00    -0.002 C 
ATOM     13  C   UNL     1      28.470 -23.674 -16.954  0.00  0.00    -0.002 C 
ATOM     14  C   UNL     1      27.148 -22.276 -14.934  0.00  0.00    +0.029 C 
ATOM     15  C   UNL     1      27.405 -22.831 -17.272  0.00  0.00    +0.029 C 
ATOM     16  C   UNL     1      26.744 -22.133 -16.261  0.00  0.00    +0.140 C 
ENDBRANCH   9  11
ENDBRANCH   6   9
ENDBRANCH   3   6
ENDBRANCH   1   4
BRANCH   1  18
ATOM     17  O   UNL     1      33.493 -24.069 -18.080  0.00  0.00    -0.270 OA
ATOM     18  N   UNL     1      34.842 -22.940 -16.568  0.00  0.00    -0.295 N 
ATOM     19  C   UNL     1      34.174 -23.093 -17.774  0.00  0.00    +0.246 C 
ATOM     20  H   UNL     1      35.364 -22.120 -16.417  0.00  0.00    +0.150 HD
BRANCH  19  21
ATOM     21  C   UNL     1      34.341 -21.989 -18.754  0.00  0.00    +0.053 C 
ATOM     22  C   UNL     1      35.619 -21.573 -19.126  0.00  0.00    +0.005 C 
ATOM     23  C   UNL     1      33.218 -21.369 -19.302  0.00  0.00    +0.005 C 
ATOM     24  C   UNL     1      34.653 -19.916 -20.594  0.00  0.00    +0.000 C 
ATOM     25  C   UNL     1      35.775 -20.535 -20.045  0.00  0.00    +0.000 C 
ATOM     26  C   UNL     1      33.374 -20.332 -20.223  0.00  0.00    +0.000 C 
BRANCH  24  27
ATOM     27  C   UNL     1      34.814 -18.840 -21.548  0.00  0.00    +0.000 C 
ATOM     28  C   UNL     1      34.555 -19.063 -22.900  0.00  0.00    +0.000 C 
ATOM     29  C   UNL     1      35.227 -17.580 -21.116  0.00  0.00    +0.000 C 
ATOM     30  C   UNL     1      34.709 -18.025 -23.820  0.00  0.00    +0.000 C 
ATOM     31  C   UNL     1      35.381 -16.543 -22.036  0.00  0.00    +0.000 C 
ATOM     32  C   UNL     1      35.123 -16.766 -23.388  0.00  0.00    +0.000 C 
ENDBRANCH  24  27
ENDBRANCH  19  21
ENDBRANCH   1  18
BRANCH   1  33
ATOM     33  C   UNL     1      36.095 -23.921 -14.707  0.00  0.00    +0.041 C 
BRANCH  33  34
ATOM     34  C   UNL     1      36.395 -25.232 -13.977  0.00  0.00    +0.112 C 
BRANCH  34  36
ATOM     35  O   UNL     1      36.398 -27.204 -15.408  0.00  0.00    -0.250 OA
ATOM     36  C   UNL     1      37.006 -26.288 -14.872  0.00  0.00    +0.314 C 
BRANCH  36  37
ATOM     37  O   UNL     1      38.339 -26.085 -15.042  0.00  0.00    -0.480 OA
ATOM     38  H   UNL     1      38.684 -25.935 -15.900  0.00  0.00    +0.295 HD
ENDBRANCH  36  37
ENDBRANCH  34  36
ENDBRANCH  33  34
ENDBRANCH   1  33
TORSDOF 11
ENDMDL
MODEL 2
REMARK VINA RESULT:     -11.5      1.335      2.180
REMARK  Name = 16048422
REMARK  11 active torsions:
REMARK  status: ('A' for Active; 'I' for Inactive)
REMARK    1  A    between atoms: C_1  and  C_4
REMARK    2  A    between atoms: C_1  and  N_18
REMARK    3  A    between atoms: C_1  and  C_33
REMARK    4  A    between atoms: N_3  and  C_6
REMARK    5  A    between atoms: C_6  and  C_9
REMARK    6  A    between atoms: C_9  and  C_11
REMARK    7  A    between atoms: C_19  and  C_21
REMARK    8  A    between atoms: C_24  and  C_27
REMARK    9  A    between atoms: C_33  and  C_34
REMARK   10  A    between atoms: C_34  and  C_36
REMARK   11  A    between atoms: C_36  and  O_37
REMARK                            x       y       z     vdW  Elec       q    Type
REMARK                         _______ _______ _______ _____ _____    ______ ____
ROOT
ATOM      1  C   UNL     1      34.391 -23.764 -15.234  0.00  0.00    +0.149 C 
ENDROOT
BRANCH   1   4
ATOM      2  O   UNL     1      32.848 -22.440 -13.924  0.00  0.00    -0.273 OA
ATOM      3  N   UNL     1      32.159 -24.522 -14.687  0.00  0.00    -0.306 N 
ATOM      4  C   UNL     1      33.061 -23.477 -14.549  0.00  0.00    +0.240 C 
ATOM      5  H   UNL     1      32.432 -25.310 -15.210  0.00  0.00    +0.149 HD
BRANCH   3   6
ATOM      6  C   UNL     1      30.838 -24.509 -14.100  0.00  0.00    +0.061 C 
ATOM      7  C   UNL     1      29.925 -25.459 -14.890  0.00  0.00    +0.020 C 
ATOM      8  C   UNL     1      30.954 -25.027 -12.657  0.00  0.00    +0.020 C 
BRANCH   6   9
ATOM      9  C   UNL     1      30.271 -23.066 -14.061  0.00  0.00    +0.044 C 
BRANCH   9  11
ATOM     10  F   UNL     1      25.854 -22.057 -17.421  0.00  0.00    -0.204 F 
ATOM     11  C   UNL     1      29.087 -22.795 -14.962  0.00  0.00    -0.020 C 
ATOM     12  C   UNL     1      29.205 -22.972 -16.341  0.00  0.00    -0.002 C 
ATOM     13  C   UNL     1      27.877 -22.369 -14.414  0.00  0.00    -0.002 C 
ATOM     14  C   UNL     1      28.113 -22.723 -17.171  0.00  0.00    +0.029 C 
ATOM     15  C   UNL     1      26.785 -22.120 -15.245  0.00  0.00    +0.029 C 
ATOM     16  C   UNL     1      26.903 -22.297 -16.623  0.00  0.00    +0.140 C 
ENDBRANCH   9  11
ENDBRANCH   6   9
ENDBRANCH   3   6
ENDBRANCH   1   4
BRANCH   1  18
ATOM     17  O   UNL     1      33.597 -24.207 -17.958  0.00  0.00    -0.270 OA
ATOM     18  N   UNL     1      34.479 -22.820 -16.321  0.00  0.00    -0.295 N 
ATOM     19  C   UNL     1      34.067 -23.127 -17.610  0.00  0.00    +0.246 C 
ATOM     20  H   UNL     1      34.844 -21.924 -16.142  0.00  0.00    +0.150 HD
BRANCH  19  21
ATOM     21  C   UNL     1      34.249 -22.055 -18.623  0.00  0.00    +0.053 C 
ATOM     22  C   UNL     1      33.136 -21.433 -19.188  0.00  0.00    +0.005 C 
ATOM     23  C   UNL     1      35.533 -21.670 -19.007  0.00  0.00    +0.005 C 
ATOM     24  C   UNL     1      34.591 -20.042 -20.524  0.00  0.00    +0.000 C 
ATOM     25  C   UNL     1      33.307 -20.427 -20.139  0.00  0.00    +0.000 C 
ATOM     26  C   UNL     1      35.705 -20.663 -19.958  0.00  0.00    +0.000 C 
BRANCH  24  27
ATOM     27  C   UNL     1      34.769 -18.999 -21.509  0.00  0.00    +0.000 C 
ATOM     28  C   UNL     1      35.249 -17.747 -21.122  0.00  0.00    +0.000 C 
ATOM     29  C   UNL     1      34.463 -19.243 -22.848  0.00  0.00    +0.000 C 
ATOM     30  C   UNL     1      35.422 -16.741 -22.073  0.00  0.00    +0.000 C 
ATOM     31  C   UNL     1      34.636 -18.237 -23.799  0.00  0.00    +0.000 C 
ATOM     32  C   UNL     1      35.115 -16.986 -23.411  0.00  0.00    +0.000 C 
ENDBRANCH  24  27
ENDBRANCH  19  21
ENDBRANCH   1  18
BRANCH   1  33
ATOM     33  C   UNL     1      35.574 -23.597 -14.274  0.00  0.00    +0.041 C 
BRANCH  33  34
ATOM     34  C   UNL     1      35.810 -24.794 -13.350  0.00  0.00    +0.112 C 
BRANCH  34  36
ATOM     35  O   UNL     1      36.388 -24.874 -10.985  0.00  0.00    -0.250 OA
ATOM     36  C   UNL     1      35.671 -24.455 -11.883  0.00  0.00    +0.314 C 
BRANCH  36  37
ATOM     37  O   UNL     1      34.650 -23.584 -11.669  0.00  0.00    -0.480 OA
ATOM     38  H   UNL     1      34.814 -22.762 -11.252  0.00  0.00    +0.295 HD
ENDBRANCH  36  37
ENDBRANCH  34  36
ENDBRANCH  33  34
ENDBRANCH   1  33
TORSDOF 11
ENDMDL
MODEL 3
REMARK VINA RESULT:     -11.3      1.225      2.053
REMARK  Name = 16048422
REMARK  11 active torsions:
REMARK  status: ('A' for Active; 'I' for Inactive)
REMARK    1  A    between atoms: C_1  and  C_4
REMARK    2  A    between atoms: C_1  and  N_18
REMARK    3  A    between atoms: C_1  and  C_33
REMARK    4  A    between atoms: N_3  and  C_6
REMARK    5  A    between atoms: C_6  and  C_9
REMARK    6  A    between atoms: C_9  and  C_11
REMARK    7  A    between atoms: C_19  and  C_21
REMARK    8  A    between atoms: C_24  and  C_27
REMARK    9  A    between atoms: C_33  and  C_34
REMARK   10  A    between atoms: C_34  and  C_36
REMARK   11  A    between atoms: C_36  and  O_37
REMARK                            x       y       z     vdW  Elec       q    Type
REMARK                         _______ _______ _______ _____ _____    ______ ____
ROOT
ATOM      1  C   UNL     1      36.027 -23.526 -15.778  0.00  0.00    +0.149 C 
ENDROOT
BRANCH   1   4
ATOM      2  O   UNL     1      34.958 -22.035 -14.201  0.00  0.00    -0.273 OA
ATOM      3  N   UNL     1      34.094 -24.173 -14.473  0.00  0.00    -0.306 N 
ATOM      4  C   UNL     1      34.978 -23.139 -14.743  0.00  0.00    +0.240 C 
ATOM      5  H   UNL     1      34.200 -25.019 -14.966  0.00  0.00    +0.149 HD
BRANCH   3   6
ATOM      6  C   UNL     1      33.027 -24.069 -13.505  0.00  0.00    +0.061 C 
ATOM      7  C   UNL     1      32.099 -25.285 -13.643  0.00  0.00    +0.020 C 
ATOM      8  C   UNL     1      33.655 -24.088 -12.101  0.00  0.00    +0.020 C 
BRANCH   6   9
ATOM      9  C   UNL     1      32.257 -22.734 -13.681  0.00  0.00    +0.044 C 
BRANCH   9  11
ATOM     10  F   UNL     1      27.812 -22.889 -17.150  0.00  0.00    -0.204 F 
ATOM     11  C   UNL     1      31.065 -22.776 -14.611  0.00  0.00    -0.020 C 
ATOM     12  C   UNL     1      31.259 -22.882 -15.988  0.00  0.00    -0.002 C 
ATOM     13  C   UNL     1      29.773 -22.708 -14.091  0.00  0.00    -0.002 C 
ATOM     14  C   UNL     1      30.160 -22.921 -16.846  0.00  0.00    +0.029 C 
ATOM     15  C   UNL     1      28.674 -22.747 -14.949  0.00  0.00    +0.029 C 
ATOM     16  C   UNL     1      28.868 -22.853 -16.326  0.00  0.00    +0.140 C 
ENDBRANCH   9  11
ENDBRANCH   6   9
ENDBRANCH   3   6
ENDBRANCH   1   4
BRANCH   1  18
ATOM     17  O   UNL     1      34.006 -23.542 -17.817  0.00  0.00    -0.270 OA
ATOM     18  N   UNL     1      35.881 -22.576 -16.853  0.00  0.00    -0.295 N 
ATOM     19  C   UNL     1      34.867 -22.666 -17.795  0.00  0.00    +0.246 C 
ATOM     20  H   UNL     1      36.525 -21.835 -16.921  0.00  0.00    +0.150 HD
BRANCH  19  21
ATOM     21  C   UNL     1      34.870 -21.625 -18.855  0.00  0.00    +0.053 C 
ATOM     22  C   UNL     1      33.665 -21.168 -19.388  0.00  0.00    +0.005 C 
ATOM     23  C   UNL     1      36.079 -21.104 -19.316  0.00  0.00    +0.005 C 
ATOM     24  C   UNL     1      34.877 -19.671 -20.845  0.00  0.00    +0.000 C 
ATOM     25  C   UNL     1      33.668 -20.191 -20.384  0.00  0.00    +0.000 C 
ATOM     26  C   UNL     1      36.083 -20.127 -20.312  0.00  0.00    +0.000 C 
BRANCH  24  27
ATOM     27  C   UNL     1      34.881 -18.657 -21.878  0.00  0.00    +0.000 C 
ATOM     28  C   UNL     1      34.474 -18.979 -23.173  0.00  0.00    +0.000 C 
ATOM     29  C   UNL     1      35.290 -17.357 -21.578  0.00  0.00    +0.000 C 
ATOM     30  C   UNL     1      34.477 -18.001 -24.168  0.00  0.00    +0.000 C 
ATOM     31  C   UNL     1      35.293 -16.380 -22.574  0.00  0.00    +0.000 C 
ATOM     32  C   UNL     1      34.887 -16.702 -23.868  0.00  0.00    +0.000 C 
ENDBRANCH  24  27
ENDBRANCH  19  21
ENDBRANCH   1  18
BRANCH   1  33
ATOM     33  C   UNL     1      37.445 -23.474 -15.197  0.00  0.00    +0.041 C 
BRANCH  33  34
ATOM     34  C   UNL     1      37.650 -24.343 -13.954  0.00  0.00    +0.112 C 
BRANCH  34  36
ATOM     35  O   UNL     1      38.358 -26.536 -14.744  0.00  0.00    -0.250 OA
ATOM     36  C   UNL     1      37.508 -25.824 -14.229  0.00  0.00    +0.314 C 
BRANCH  36  37
ATOM     37  O   UNL     1      36.307 -26.296 -13.802  0.00  0.00    -0.480 OA
ATOM     38  H   UNL     1      35.516 -25.857 -14.048  0.00  0.00    +0.295 HD
ENDBRANCH  36  37
ENDBRANCH  34  36
ENDBRANCH  33  34
ENDBRANCH   1  33
TORSDOF 11
ENDMDL
MODEL 4
REMARK VINA RESULT:     -10.9      3.458      6.770
REMARK  Name = 16048422
REMARK  11 active torsions:
REMARK  status: ('A' for Active; 'I' for Inactive)
REMARK    1  A    between atoms: C_1  and  C_4
REMARK    2  A    between atoms: C_1  and  N_18
REMARK    3  A    between atoms: C_1  and  C_33
REMARK    4  A    between atoms: N_3  and  C_6
REMARK    5  A    between atoms: C_6  and  C_9
REMARK    6  A    between atoms: C_9  and  C_11
REMARK    7  A    between atoms: C_19  and  C_21
REMARK    8  A    between atoms: C_24  and  C_27
REMARK    9  A    between atoms: C_33  and  C_34
REMARK   10  A    between atoms: C_34  and  C_36
REMARK   11  A    between atoms: C_36  and  O_37
REMARK                            x       y       z     vdW  Elec       q    Type
REMARK                         _______ _______ _______ _____ _____    ______ ____
ROOT
ATOM      1  C   UNL     1      31.356 -23.482 -14.696  0.00  0.00    +0.149 C 
ENDROOT
BRANCH   1   4
ATOM      2  O   UNL     1      32.279 -25.318 -13.420  0.00  0.00    -0.273 OA
ATOM      3  N   UNL     1      33.660 -23.531 -13.959  0.00  0.00    -0.306 N 
ATOM      4  C   UNL     1      32.463 -24.230 -13.964  0.00  0.00    +0.240 C 
ATOM      5  H   UNL     1      33.699 -22.665 -14.427  0.00  0.00    +0.149 HD
BRANCH   3   6
ATOM      6  C   UNL     1      34.854 -24.011 -13.302  0.00  0.00    +0.061 C 
ATOM      7  C   UNL     1      34.646 -23.967 -11.780  0.00  0.00    +0.020 C 
ATOM      8  C   UNL     1      35.076 -25.472 -13.725  0.00  0.00    +0.020 C 
BRANCH   6   9
ATOM      9  C   UNL     1      36.090 -23.180 -13.737  0.00  0.00    +0.044 C 
BRANCH   9  11
ATOM     10  F   UNL     1      40.973 -25.988 -14.034  0.00  0.00    -0.204 F 
ATOM     11  C   UNL     1      37.399 -23.932 -13.817  0.00  0.00    -0.020 C 
ATOM     12  C   UNL     1      37.854 -24.658 -12.716  0.00  0.00    -0.002 C 
ATOM     13  C   UNL     1      38.151 -23.900 -14.991  0.00  0.00    -0.002 C 
ATOM     14  C   UNL     1      39.061 -25.353 -12.790  0.00  0.00    +0.029 C 
ATOM     15  C   UNL     1      39.358 -24.595 -15.065  0.00  0.00    +0.029 C 
ATOM     16  C   UNL     1      39.813 -25.321 -13.964  0.00  0.00    +0.140 C 
ENDBRANCH   9  11
ENDBRANCH   6   9
ENDBRANCH   3   6
ENDBRANCH   1   4
BRANCH   1  18
ATOM     17  O   UNL     1      33.086 -24.594 -16.700  0.00  0.00    -0.270 OA
ATOM     18  N   UNL     1      32.013 -22.765 -15.762  0.00  0.00    -0.295 N 
ATOM     19  C   UNL     1      32.834 -23.392 -16.687  0.00  0.00    +0.246 C 
ATOM     20  H   UNL     1      31.873 -21.794 -15.835  0.00  0.00    +0.150 HD
BRANCH  19  21
ATOM     21  C   UNL     1      33.458 -22.509 -17.706  0.00  0.00    +0.053 C 
ATOM     22  C   UNL     1      32.656 -21.717 -18.528  0.00  0.00    +0.005 C 
ATOM     23  C   UNL     1      34.846 -22.471 -17.839  0.00  0.00    +0.005 C 
ATOM     24  C   UNL     1      34.630 -20.851 -19.618  0.00  0.00    +0.000 C 
ATOM     25  C   UNL     1      33.243 -20.888 -19.485  0.00  0.00    +0.000 C 
ATOM     26  C   UNL     1      35.433 -21.642 -18.795  0.00  0.00    +0.000 C 
BRANCH  24  27
ATOM     27  C   UNL     1      35.239 -19.991 -20.610  0.00  0.00    +0.000 C 
ATOM     28  C   UNL     1      34.541 -19.663 -21.772  0.00  0.00    +0.000 C 
ATOM     29  C   UNL     1      36.524 -19.488 -20.404  0.00  0.00    +0.000 C 
ATOM     30  C   UNL     1      35.127 -18.833 -22.728  0.00  0.00    +0.000 C 
ATOM     31  C   UNL     1      37.110 -18.658 -21.360  0.00  0.00    +0.000 C 
ATOM     32  C   UNL     1      36.411 -18.331 -22.522  0.00  0.00    +0.000 C 
ENDBRANCH  24  27
ENDBRANCH  19  21
ENDBRANCH   1  18
BRANCH   1  33
ATOM     33  C   UNL     1      30.298 -24.439 -15.259  0.00  0.00    +0.041 C 
BRANCH  33  34
ATOM     34  C   UNL     1      28.860 -23.933 -15.133  0.00  0.00    +0.112 C 
BRANCH  34  36
ATOM     35  O   UNL     1      27.498 -23.855 -17.151  0.00  0.00    -0.250 OA
ATOM     36  C   UNL     1      28.322 -23.333 -16.413  0.00  0.00    +0.314 C 
BRANCH  36  37
ATOM     37  O   UNL     1      28.848 -22.102 -16.644  0.00  0.00    -0.480 OA
ATOM     38  H   UNL     1      28.974 -21.803 -17.523  0.00  0.00    +0.295 HD
ENDBRANCH  36  37
ENDBRANCH  34  36
ENDBRANCH  33  34
ENDBRANCH   1  33
TORSDOF 11
ENDMDL
MODEL 5
REMARK VINA RESULT:     -10.9      3.423      6.824
REMARK  Name = 16048422
REMARK  11 active torsions:
REMARK  status: ('A' for Active; 'I' for Inactive)
REMARK    1  A    between atoms: C_1  and  C_4
REMARK    2  A    between atoms: C_1  and  N_18
REMARK    3  A    between atoms: C_1  and  C_33
REMARK    4  A    between atoms: N_3  and  C_6
REMARK    5  A    between atoms: C_6  and  C_9
REMARK    6  A    between atoms: C_9  and  C_11
REMARK    7  A    between atoms: C_19  and  C_21
REMARK    8  A    between atoms: C_24  and  C_27
REMARK    9  A    between atoms: C_33  and  C_34
REMARK   10  A    between atoms: C_34  and  C_36
REMARK   11  A    between atoms: C_36  and  O_37
REMARK                            x       y       z     vdW  Elec       q    Type
REMARK                         _______ _______ _______ _____ _____    ______ ____
ROOT
ATOM      1  C   UNL     1      31.828 -23.311 -15.056  0.00  0.00    +0.149 C 
ENDROOT
BRANCH   1   4
ATOM      2  O   UNL     1      33.099 -25.024 -13.914  0.00  0.00    -0.273 OA
ATOM      3  N   UNL     1      34.191 -23.087 -14.583  0.00  0.00    -0.306 N 
ATOM      4  C   UNL     1      33.091 -23.923 -14.461  0.00  0.00    +0.240 C 
ATOM      5  H   UNL     1      34.074 -22.223 -15.041  0.00  0.00    +0.149 HD
BRANCH   3   6
ATOM      6  C   UNL     1      35.500 -23.422 -14.070  0.00  0.00    +0.061 C 
ATOM      7  C   UNL     1      36.484 -22.297 -14.422  0.00  0.00    +0.020 C 
ATOM      8  C   UNL     1      35.399 -23.523 -12.539  0.00  0.00    +0.020 C 
BRANCH   6   9
ATOM      9  C   UNL     1      35.970 -24.792 -14.624  0.00  0.00    +0.044 C 
BRANCH   9  11
ATOM     10  F   UNL     1      41.294 -26.237 -13.447  0.00  0.00    -0.204 F 
ATOM     11  C   UNL     1      37.397 -25.180 -14.309  0.00  0.00    -0.020 C 
ATOM     12  C   UNL     1      38.450 -24.588 -15.006  0.00  0.00    -0.002 C 
ATOM     13  C   UNL     1      37.660 -26.128 -13.320  0.00  0.00    -0.002 C 
ATOM     14  C   UNL     1      39.767 -24.945 -14.715  0.00  0.00    +0.029 C 
ATOM     15  C   UNL     1      38.976 -26.484 -13.028  0.00  0.00    +0.029 C 
ATOM     16  C   UNL     1      40.029 -25.893 -13.726  0.00  0.00    +0.140 C 
ENDBRANCH   9  11
ENDBRANCH   6   9
ENDBRANCH   3   6
ENDBRANCH   1   4
BRANCH   1  18
ATOM     17  O   UNL     1      33.505 -24.187 -17.216  0.00  0.00    -0.270 OA
ATOM     18  N   UNL     1      32.272 -22.520 -16.177  0.00  0.00    -0.295 N 
ATOM     19  C   UNL     1      33.084 -23.034 -17.177  0.00  0.00    +0.246 C 
ATOM     20  H   UNL     1      31.987 -21.580 -16.236  0.00  0.00    +0.150 HD
BRANCH  19  21
ATOM     21  C   UNL     1      33.476 -22.083 -18.249  0.00  0.00    +0.053 C 
ATOM     22  C   UNL     1      32.505 -21.307 -18.883  0.00  0.00    +0.005 C 
ATOM     23  C   UNL     1      34.815 -21.965 -18.621  0.00  0.00    +0.005 C 
ATOM     24  C   UNL     1      34.212 -20.297 -20.262  0.00  0.00    +0.000 C 
ATOM     25  C   UNL     1      32.873 -20.415 -19.890  0.00  0.00    +0.000 C 
ATOM     26  C   UNL     1      35.184 -21.072 -19.628  0.00  0.00    +0.000 C 
BRANCH  24  27
ATOM     27  C   UNL     1      34.594 -19.371 -21.306  0.00  0.00    +0.000 C 
ATOM     28  C   UNL     1      34.262 -19.641 -22.633  0.00  0.00    +0.000 C 
ATOM     29  C   UNL     1      35.294 -18.208 -20.985  0.00  0.00    +0.000 C 
ATOM     30  C   UNL     1      34.629 -18.747 -23.640  0.00  0.00    +0.000 C 
ATOM     31  C   UNL     1      35.662 -17.315 -21.992  0.00  0.00    +0.000 C 
ATOM     32  C   UNL     1      35.330 -17.585 -23.319  0.00  0.00    +0.000 C 
ENDBRANCH  24  27
ENDBRANCH  19  21
ENDBRANCH   1  18
BRANCH   1  33
ATOM     33  C   UNL     1      30.834 -24.387 -15.510  0.00  0.00    +0.041 C 
BRANCH  33  34
ATOM     34  C   UNL     1      29.371 -24.065 -15.198  0.00  0.00    +0.112 C 
BRANCH  34  36
ATOM     35  O   UNL     1      28.899 -22.136 -16.609  0.00  0.00    -0.250 OA
ATOM     36  C   UNL     1      28.678 -23.300 -16.304  0.00  0.00    +0.314 C 
BRANCH  36  37
ATOM     37  O   UNL     1      27.779 -24.078 -16.959  0.00  0.00    -0.480 OA
ATOM     38  H   UNL     1      26.871 -24.044 -16.727  0.00  0.00    +0.295 HD
ENDBRANCH  36  37
ENDBRANCH  34  36
ENDBRANCH  33  34
ENDBRANCH   1  33
TORSDOF 11
ENDMDL
MODEL 6
REMARK VINA RESULT:     -10.3      3.255      5.946
REMARK  Name = 16048422
REMARK  11 active torsions:
REMARK  status: ('A' for Active; 'I' for Inactive)
REMARK    1  A    between atoms: C_1  and  C_4
REMARK    2  A    between atoms: C_1  and  N_18
REMARK    3  A    between atoms: C_1  and  C_33
REMARK    4  A    between atoms: N_3  and  C_6
REMARK    5  A    between atoms: C_6  and  C_9
REMARK    6  A    between atoms: C_9  and  C_11
REMARK    7  A    between atoms: C_19  and  C_21
REMARK    8  A    between atoms: C_24  and  C_27
REMARK    9  A    between atoms: C_33  and  C_34
REMARK   10  A    between atoms: C_34  and  C_36
REMARK   11  A    between atoms: C_36  and  O_37
REMARK                            x       y       z     vdW  Elec       q    Type
REMARK                         _______ _______ _______ _____ _____    ______ ____
ROOT
ATOM      1  C   UNL     1      34.570 -23.265 -15.147  0.00  0.00    +0.149 C 
ENDROOT
BRANCH   1   4
ATOM      2  O   UNL     1      36.947 -23.456 -15.552  0.00  0.00    -0.273 OA
ATOM      3  N   UNL     1      35.842 -25.233 -14.544  0.00  0.00    -0.306 N 
ATOM      4  C   UNL     1      35.921 -23.967 -15.105  0.00  0.00    +0.240 C 
ATOM      5  H   UNL     1      34.968 -25.546 -14.216  0.00  0.00    +0.149 HD
BRANCH   3   6
ATOM      6  C   UNL     1      36.980 -26.115 -14.419  0.00  0.00    +0.061 C 
ATOM      7  C   UNL     1      36.733 -27.380 -15.255  0.00  0.00    +0.020 C 
ATOM      8  C   UNL     1      38.211 -25.387 -14.983  0.00  0.00    +0.020 C 
BRANCH   6   9
ATOM      9  C   UNL     1      37.248 -26.454 -12.929  0.00  0.00    +0.044 C 
BRANCH   9  11
ATOM     10  F   UNL     1      36.633 -22.196  -9.281  0.00  0.00    -0.204 F 
ATOM     11  C   UNL     1      37.083 -25.312 -11.951  0.00  0.00    -0.020 C 
ATOM     12  C   UNL     1      36.031 -25.325 -11.035  0.00  0.00    -0.002 C 
ATOM     13  C   UNL     1      37.983 -24.247 -11.966  0.00  0.00    -0.002 C 
ATOM     14  C   UNL     1      35.880 -24.273 -10.133  0.00  0.00    +0.029 C 
ATOM     15  C   UNL     1      37.831 -23.194 -11.063  0.00  0.00    +0.029 C 
ATOM     16  C   UNL     1      36.779 -23.207 -10.147  0.00  0.00    +0.140 C 
ENDBRANCH   9  11
ENDBRANCH   6   9
ENDBRANCH   3   6
ENDBRANCH   1   4
BRANCH   1  18
ATOM     17  O   UNL     1      33.784 -23.935 -17.826  0.00  0.00    -0.270 OA
ATOM     18  N   UNL     1      34.618 -22.400 -16.300  0.00  0.00    -0.295 N 
ATOM     19  C   UNL     1      34.214 -22.816 -17.561  0.00  0.00    +0.246 C 
ATOM     20  H   UNL     1      34.949 -21.481 -16.189  0.00  0.00    +0.150 HD
BRANCH  19  21
ATOM     21  C   UNL     1      34.351 -21.815 -18.650  0.00  0.00    +0.053 C 
ATOM     22  C   UNL     1      33.213 -21.260 -19.236  0.00  0.00    +0.005 C 
ATOM     23  C   UNL     1      35.619 -21.429 -19.086  0.00  0.00    +0.005 C 
ATOM     24  C   UNL     1      34.610 -19.935 -20.695  0.00  0.00    +0.000 C 
ATOM     25  C   UNL     1      33.343 -20.321 -20.259  0.00  0.00    +0.000 C 
ATOM     26  C   UNL     1      35.748 -20.488 -20.109  0.00  0.00    +0.000 C 
BRANCH  24  27
ATOM     27  C   UNL     1      34.745 -18.960 -21.755  0.00  0.00    +0.000 C 
ATOM     28  C   UNL     1      34.364 -19.288 -23.057  0.00  0.00    +0.000 C 
ATOM     29  C   UNL     1      35.253 -17.691 -21.477  0.00  0.00    +0.000 C 
ATOM     30  C   UNL     1      34.493 -18.348 -24.079  0.00  0.00    +0.000 C 
ATOM     31  C   UNL     1      35.383 -16.752 -22.500  0.00  0.00    +0.000 C 
ATOM     32  C   UNL     1      35.002 -17.080 -23.801  0.00  0.00    +0.000 C 
ENDBRANCH  24  27
ENDBRANCH  19  21
ENDBRANCH   1  18
BRANCH   1  33
ATOM     33  C   UNL     1      33.413 -24.265 -15.267  0.00  0.00    +0.041 C 
BRANCH  33  34
ATOM     34  C   UNL     1      32.154 -23.868 -14.493  0.00  0.00    +0.112 C 
BRANCH  34  36
ATOM     35  O   UNL     1      30.895 -24.846 -12.651  0.00  0.00    -0.250 OA
ATOM     36  C   UNL     1      31.963 -24.657 -13.216  0.00  0.00    +0.314 C 
BRANCH  36  37
ATOM     37  O   UNL     1      33.138 -25.173 -12.770  0.00  0.00    -0.480 OA
ATOM     38  H   UNL     1      33.907 -25.117 -13.302  0.00  0.00    +0.295 HD
ENDBRANCH  36  37
ENDBRANCH  34  36
ENDBRANCH  33  34
ENDBRANCH   1  33
TORSDOF 11
ENDMDL
MODEL 7
REMARK VINA RESULT:     -10.2      1.491      2.332
REMARK  Name = 16048422
REMARK  11 active torsions:
REMARK  status: ('A' for Active; 'I' for Inactive)
REMARK    1  A    between atoms: C_1  and  C_4
REMARK    2  A    between atoms: C_1  and  N_18
REMARK    3  A    between atoms: C_1  and  C_33
REMARK    4  A    between atoms: N_3  and  C_6
REMARK    5  A    between atoms: C_6  and  C_9
REMARK    6  A    between atoms: C_9  and  C_11
REMARK    7  A    between atoms: C_19  and  C_21
REMARK    8  A    between atoms: C_24  and  C_27
REMARK    9  A    between atoms: C_33  and  C_34
REMARK   10  A    between atoms: C_34  and  C_36
REMARK   11  A    between atoms: C_36  and  O_37
REMARK                            x       y       z     vdW  Elec       q    Type
REMARK                         _______ _______ _______ _____ _____    ______ ____
ROOT
ATOM      1  C   UNL     1      35.706 -22.847 -16.587  0.00  0.00    +0.149 C 
ENDROOT
BRANCH   1   4
ATOM      2  O   UNL     1      33.346 -23.236 -16.952  0.00  0.00    -0.273 OA
ATOM      3  N   UNL     1      34.189 -23.443 -14.798  0.00  0.00    -0.306 N 
ATOM      4  C   UNL     1      34.287 -23.202 -16.161  0.00  0.00    +0.240 C 
ATOM      5  H   UNL     1      35.008 -23.389 -14.253  0.00  0.00    +0.149 HD
BRANCH   3   6
ATOM      6  C   UNL     1      32.945 -23.767 -14.139  0.00  0.00    +0.061 C 
ATOM      7  C   UNL     1      33.244 -24.547 -12.850  0.00  0.00    +0.020 C 
ATOM      8  C   UNL     1      32.247 -22.449 -13.764  0.00  0.00    +0.020 C 
BRANCH   6   9
ATOM      9  C   UNL     1      32.014 -24.563 -15.091  0.00  0.00    +0.044 C 
BRANCH   9  11
ATOM     10  F   UNL     1      26.732 -22.638 -15.556  0.00  0.00    -0.204 F 
ATOM     11  C   UNL     1      30.598 -24.047 -15.216  0.00  0.00    -0.020 C 
ATOM     12  C   UNL     1      29.566 -24.663 -14.507  0.00  0.00    -0.002 C 
ATOM     13  C   UNL     1      30.324 -22.955 -16.039  0.00  0.00    -0.002 C 
ATOM     14  C   UNL     1      28.260 -24.186 -14.622  0.00  0.00    +0.029 C 
ATOM     15  C   UNL     1      29.018 -22.478 -16.153  0.00  0.00    +0.029 C 
ATOM     16  C   UNL     1      27.986 -23.095 -15.445  0.00  0.00    +0.140 C 
ENDBRANCH   9  11
ENDBRANCH   6   9
ENDBRANCH   3   6
ENDBRANCH   1   4
BRANCH   1  18
ATOM     17  O   UNL     1      35.237 -23.136 -19.405  0.00  0.00    -0.270 OA
ATOM     18  N   UNL     1      35.566 -21.782 -17.551  0.00  0.00    -0.295 N 
ATOM     19  C   UNL     1      35.339 -22.022 -18.898  0.00  0.00    +0.246 C 
ATOM     20  H   UNL     1      35.633 -20.851 -17.241  0.00  0.00    +0.150 HD
BRANCH  19  21
ATOM     21  C   UNL     1      35.246 -20.820 -19.766  0.00  0.00    +0.053 C 
ATOM     22  C   UNL     1      34.007 -20.407 -20.256  0.00  0.00    +0.005 C 
ATOM     23  C   UNL     1      36.398 -20.103 -20.089  0.00  0.00    +0.005 C 
ATOM     24  C   UNL     1      35.072 -18.561 -21.394  0.00  0.00    +0.000 C 
ATOM     25  C   UNL     1      33.920 -19.278 -21.071  0.00  0.00    +0.000 C 
ATOM     26  C   UNL     1      36.311 -18.973 -20.903  0.00  0.00    +0.000 C 
BRANCH  24  27
ATOM     27  C   UNL     1      34.982 -17.390 -22.238  0.00  0.00    +0.000 C 
ATOM     28  C   UNL     1      34.984 -16.117 -21.668  0.00  0.00    +0.000 C 
ATOM     29  C   UNL     1      34.895 -17.533 -23.623  0.00  0.00    +0.000 C 
ATOM     30  C   UNL     1      34.899 -14.988 -22.483  0.00  0.00    +0.000 C 
ATOM     31  C   UNL     1      34.809 -16.403 -24.437  0.00  0.00    +0.000 C 
ATOM     32  C   UNL     1      34.811 -15.131 -23.867  0.00  0.00    +0.000 C 
ENDBRANCH  24  27
ENDBRANCH  19  21
ENDBRANCH   1  18
BRANCH   1  33
ATOM     33  C   UNL     1      36.561 -22.392 -15.398  0.00  0.00    +0.041 C 
BRANCH  33  34
ATOM     34  C   UNL     1      37.949 -23.033 -15.338  0.00  0.00    +0.112 C 
BRANCH  34  36
ATOM     35  O   UNL     1      38.456 -24.287 -13.313  0.00  0.00    -0.250 OA
ATOM     36  C   UNL     1      38.006 -24.256 -14.449  0.00  0.00    +0.314 C 
BRANCH  36  37
ATOM     37  O   UNL     1      37.459 -25.340 -15.059  0.00  0.00    -0.480 OA
ATOM     38  H   UNL     1      36.762 -25.809 -14.645  0.00  0.00    +0.295 HD
ENDBRANCH  36  37
ENDBRANCH  34  36
ENDBRANCH  33  34
ENDBRANCH   1  33
TORSDOF 11
ENDMDL
MODEL 8
REMARK VINA RESULT:     -10.1      9.427     14.598
REMARK  Name = 16048422
REMARK  11 active torsions:
REMARK  status: ('A' for Active; 'I' for Inactive)
REMARK    1  A    between atoms: C_1  and  C_4
REMARK    2  A    between atoms: C_1  and  N_18
REMARK    3  A    between atoms: C_1  and  C_33
REMARK    4  A    between atoms: N_3  and  C_6
REMARK    5  A    between atoms: C_6  and  C_9
REMARK    6  A    between atoms: C_9  and  C_11
REMARK    7  A    between atoms: C_19  and  C_21
REMARK    8  A    between atoms: C_24  and  C_27
REMARK    9  A    between atoms: C_33  and  C_34
REMARK   10  A    between atoms: C_34  and  C_36
REMARK   11  A    between atoms: C_36  and  O_37
REMARK                            x       y       z     vdW  Elec       q    Type
REMARK                         _______ _______ _______ _____ _____    ______ ____
ROOT
ATOM      1  C   UNL     1      32.375 -11.101 -23.288  0.00  0.00    +0.149 C 
ENDROOT
BRANCH   1   4
ATOM      2  O   UNL     1      34.695 -10.421 -23.368  0.00  0.00    -0.273 OA
ATOM      3  N   UNL     1      33.063  -8.786 -23.131  0.00  0.00    -0.306 N 
ATOM      4  C   UNL     1      33.514 -10.089 -23.280  0.00  0.00    +0.240 C 
ATOM      5  H   UNL     1      32.092  -8.631 -23.069  0.00  0.00    +0.149 HD
BRANCH   3   6
ATOM      6  C   UNL     1      33.947  -7.646 -23.060  0.00  0.00    +0.061 C 
ATOM      7  C   UNL     1      34.199  -7.291 -21.587  0.00  0.00    +0.020 C 
ATOM      8  C   UNL     1      35.287  -8.042 -23.705  0.00  0.00    +0.020 C 
BRANCH   6   9
ATOM      9  C   UNL     1      33.358  -6.447 -23.849  0.00  0.00    +0.044 C 
BRANCH   9  11
ATOM     10  F   UNL     1      29.596  -3.284 -21.082  0.00  0.00    -0.204 F 
ATOM     11  C   UNL     1      32.349  -5.599 -23.107  0.00  0.00    -0.020 C 
ATOM     12  C   UNL     1      31.408  -6.204 -22.273  0.00  0.00    -0.002 C 
ATOM     13  C   UNL     1      32.360  -4.213 -23.257  0.00  0.00    -0.002 C 
ATOM     14  C   UNL     1      30.479  -5.422 -21.588  0.00  0.00    +0.029 C 
ATOM     15  C   UNL     1      31.430  -3.430 -22.572  0.00  0.00    +0.029 C 
ATOM     16  C   UNL     1      30.489  -4.035 -21.738  0.00  0.00    +0.140 C 
ENDBRANCH   9  11
ENDBRANCH   6   9
ENDBRANCH   3   6
ENDBRANCH   1   4
BRANCH   1  18
ATOM     17  O   UNL     1      33.429 -13.200 -24.939  0.00  0.00    -0.270 OA
ATOM     18  N   UNL     1      32.956 -12.342 -22.837  0.00  0.00    -0.295 N 
ATOM     19  C   UNL     1      33.441 -13.300 -23.715  0.00  0.00    +0.246 C 
ATOM     20  H   UNL     1      33.010 -12.516 -21.870  0.00  0.00    +0.150 HD
BRANCH  19  21
ATOM     21  C   UNL     1      33.983 -14.536 -23.094  0.00  0.00    +0.053 C 
ATOM     22  C   UNL     1      34.182 -14.594 -21.714  0.00  0.00    +0.005 C 
ATOM     23  C   UNL     1      34.291 -15.639 -23.890  0.00  0.00    +0.005 C 
ATOM     24  C   UNL     1      35.000 -16.857 -21.928  0.00  0.00    +0.000 C 
ATOM     25  C   UNL     1      34.692 -15.755 -21.131  0.00  0.00    +0.000 C 
ATOM     26  C   UNL     1      34.800 -16.800 -23.307  0.00  0.00    +0.000 C 
BRANCH  24  27
ATOM     27  C   UNL     1      35.528 -18.061 -21.323  0.00  0.00    +0.000 C 
ATOM     28  C   UNL     1      36.907 -18.242 -21.217  0.00  0.00    +0.000 C 
ATOM     29  C   UNL     1      34.657 -19.041 -20.845  0.00  0.00    +0.000 C 
ATOM     30  C   UNL     1      37.415 -19.402 -20.634  0.00  0.00    +0.000 C 
ATOM     31  C   UNL     1      35.167 -20.202 -20.262  0.00  0.00    +0.000 C 
ATOM     32  C   UNL     1      36.546 -20.382 -20.156  0.00  0.00    +0.000 C 
ENDBRANCH  24  27
ENDBRANCH  19  21
ENDBRANCH   1  18
BRANCH   1  33
ATOM     33  C   UNL     1      31.227 -10.673 -22.365  0.00  0.00    +0.041 C 
BRANCH  33  34
ATOM     34  C   UNL     1      31.222 -11.367 -21.002  0.00  0.00    +0.112 C 
BRANCH  34  36
ATOM     35  O   UNL     1      32.038 -10.848 -18.766  0.00  0.00    -0.250 OA
ATOM     36  C   UNL     1      31.677 -10.470 -19.872  0.00  0.00    +0.314 C 
BRANCH  36  37
ATOM     37  O   UNL     1      31.667  -9.163 -20.241  0.00  0.00    -0.480 OA
ATOM     38  H   UNL     1      30.867  -8.757 -20.511  0.00  0.00    +0.295 HD
ENDBRANCH  36  37
ENDBRANCH  34  36
ENDBRANCH  33  34
ENDBRANCH   1  33
TORSDOF 11
ENDMDL
MODEL 9
REMARK VINA RESULT:      -9.6      9.462     15.114
REMARK  Name = 16048422
REMARK  11 active torsions:
REMARK  status: ('A' for Active; 'I' for Inactive)
REMARK    1  A    between atoms: C_1  and  C_4
REMARK    2  A    between atoms: C_1  and  N_18
REMARK    3  A    between atoms: C_1  and  C_33
REMARK    4  A    between atoms: N_3  and  C_6
REMARK    5  A    between atoms: C_6  and  C_9
REMARK    6  A    between atoms: C_9  and  C_11
REMARK    7  A    between atoms: C_19  and  C_21
REMARK    8  A    between atoms: C_24  and  C_27
REMARK    9  A    between atoms: C_33  and  C_34
REMARK   10  A    between atoms: C_34  and  C_36
REMARK   11  A    between atoms: C_36  and  O_37
REMARK                            x       y       z     vdW  Elec       q    Type
REMARK                         _______ _______ _______ _____ _____    ______ ____
ROOT
ATOM      1  C   UNL     1      32.383 -11.017 -23.260  0.00  0.00    +0.149 C 
ENDROOT
BRANCH   1   4
ATOM      2  O   UNL     1      34.699 -10.323 -23.338  0.00  0.00    -0.273 OA
ATOM      3  N   UNL     1      33.063  -8.710 -22.998  0.00  0.00    -0.306 N 
ATOM      4  C   UNL     1      33.518 -10.002 -23.218  0.00  0.00    +0.240 C 
ATOM      5  H   UNL     1      32.093  -8.563 -22.916  0.00  0.00    +0.149 HD
BRANCH   3   6
ATOM      6  C   UNL     1      33.944  -7.570 -22.883  0.00  0.00    +0.061 C 
ATOM      7  C   UNL     1      34.235  -7.304 -21.399  0.00  0.00    +0.020 C 
ATOM      8  C   UNL     1      35.266  -7.918 -23.588  0.00  0.00    +0.020 C 
BRANCH   6   9
ATOM      9  C   UNL     1      33.326  -6.330 -23.580  0.00  0.00    +0.044 C 
BRANCH   9  11
ATOM     10  F   UNL     1      35.341  -5.122 -28.709  0.00  0.00    -0.204 F 
ATOM     11  C   UNL     1      33.866  -6.006 -24.955  0.00  0.00    -0.020 C 
ATOM     12  C   UNL     1      35.156  -5.493 -25.095  0.00  0.00    -0.002 C 
ATOM     13  C   UNL     1      33.075  -6.220 -26.083  0.00  0.00    -0.002 C 
ATOM     14  C   UNL     1      35.654  -5.195 -26.363  0.00  0.00    +0.029 C 
ATOM     15  C   UNL     1      33.573  -5.922 -27.351  0.00  0.00    +0.029 C 
ATOM     16  C   UNL     1      34.863  -5.409 -27.491  0.00  0.00    +0.140 C 
ENDBRANCH   9  11
ENDBRANCH   6   9
ENDBRANCH   3   6
ENDBRANCH   1   4
BRANCH   1  18
ATOM     17  O   UNL     1      33.460 -13.092 -24.928  0.00  0.00    -0.270 OA
ATOM     18  N   UNL     1      32.961 -12.263 -22.820  0.00  0.00    -0.295 N 
ATOM     19  C   UNL     1      33.458 -13.209 -23.706  0.00  0.00    +0.246 C 
ATOM     20  H   UNL     1      33.005 -12.451 -21.855  0.00  0.00    +0.150 HD
BRANCH  19  21
ATOM     21  C   UNL     1      33.996 -14.452 -23.095  0.00  0.00    +0.053 C 
ATOM     22  C   UNL     1      34.238 -14.507 -21.723  0.00  0.00    +0.005 C 
ATOM     23  C   UNL     1      34.257 -15.564 -23.895  0.00  0.00    +0.005 C 
ATOM     24  C   UNL     1      35.004 -16.787 -21.950  0.00  0.00    +0.000 C 
ATOM     25  C   UNL     1      34.743 -15.674 -21.150  0.00  0.00    +0.000 C 
ATOM     26  C   UNL     1      34.761 -16.732 -23.322  0.00  0.00    +0.000 C 
BRANCH  24  27
ATOM     27  C   UNL     1      35.527 -17.998 -21.356  0.00  0.00    +0.000 C 
ATOM     28  C   UNL     1      36.906 -18.180 -21.242  0.00  0.00    +0.000 C 
ATOM     29  C   UNL     1      34.654 -18.983 -20.895  0.00  0.00    +0.000 C 
ATOM     30  C   UNL     1      37.410 -19.348 -20.669  0.00  0.00    +0.000 C 
ATOM     31  C   UNL     1      35.159 -20.151 -20.322  0.00  0.00    +0.000 C 
ATOM     32  C   UNL     1      36.537 -20.333 -20.209  0.00  0.00    +0.000 C 
ENDBRANCH  24  27
ENDBRANCH  19  21
ENDBRANCH   1  18
BRANCH   1  33
ATOM     33  C   UNL     1      31.219 -10.608 -22.350  0.00  0.00    +0.041 C 
BRANCH  33  34
ATOM     34  C   UNL     1      31.180 -11.343 -21.008  0.00  0.00    +0.112 C 
BRANCH  34  36
ATOM     35  O   UNL     1      31.772 -10.854 -18.696  0.00  0.00    -0.250 OA
ATOM     36  C   UNL     1      31.551 -10.464 -19.834  0.00  0.00    +0.314 C 
BRANCH  36  37
ATOM     37  O   UNL     1      31.643  -9.159 -20.200  0.00  0.00    -0.480 OA
ATOM     38  H   UNL     1      31.197  -8.853 -20.966  0.00  0.00    +0.295 HD
ENDBRANCH  36  37
ENDBRANCH  34  36
ENDBRANCH  33  34
ENDBRANCH   1  33
TORSDOF 11
ENDMDL
