MODEL 1
REMARK VINA RESULT:     -14.0      0.000      0.000
REMARK  Name = 67335295
REMARK  6 active torsions:
REMARK  status: ('A' for Active; 'I' for Inactive)
REMARK    1  A    between atoms: N_2  and  C_14
REMARK    2  A    between atoms: C_7  and  O_20
REMARK    3  A    between atoms: O_20  and  C_21
REMARK    4  A    between atoms: C_21  and  C_23
REMARK    5  A    between atoms: C_22  and  C_28
REMARK    6  A    between atoms: C_28  and  N_30
REMARK                            x       y       z     vdW  Elec       q    Type
REMARK                         _______ _______ _______ _____ _____    ______ ____
ROOT
ATOM      1  O   UNL     1      33.818 -24.605 -12.147  0.00  0.00    -0.270 OA
ATOM      2  N   UNL     1      34.851 -24.276 -14.247  0.00  0.00    -0.265 N 
ATOM      3  C   UNL     1      34.445 -23.794 -15.561  0.00  0.00    +0.124 C 
ATOM      4  C   UNL     1      33.004 -23.481 -15.343  0.00  0.00    +0.036 C 
ATOM      5  C   UNL     1      33.817 -24.271 -13.318  0.00  0.00    +0.249 C 
ATOM      6  C   UNL     1      32.637 -23.762 -14.026  0.00  0.00    +0.054 C 
ATOM      7  C   UNL     1      32.073 -22.983 -16.235  0.00  0.00    +0.137 C 
ATOM      8  C   UNL     1      31.356 -23.564 -13.550  0.00  0.00    +0.004 C 
ATOM      9  C   UNL     1      30.768 -22.774 -15.779  0.00  0.00    +0.037 C 
ATOM     10  C   UNL     1      30.413 -23.061 -14.447  0.00  0.00    +0.003 C 
ENDROOT
BRANCH   2  14
ATOM     11  O   UNL     1      36.887 -22.524 -14.696  0.00  0.00    -0.273 OA
ATOM     12  O   UNL     1      40.008 -25.893 -15.018  0.00  0.00    -0.275 OA
ATOM     13  N   UNL     1      38.410 -24.240 -14.871  0.00  0.00    -0.254 N 
ATOM     14  C   UNL     1      36.188 -24.711 -13.941  0.00  0.00    +0.153 C 
ATOM     15  C   UNL     1      36.440 -26.119 -14.460  0.00  0.00    +0.039 C 
ATOM     16  C   UNL     1      37.869 -26.522 -14.144  0.00  0.00    +0.088 C 
ATOM     17  C   UNL     1      37.156 -23.717 -14.556  0.00  0.00    +0.246 C 
ATOM     18  C   UNL     1      38.862 -25.549 -14.733  0.00  0.00    +0.228 C 
ATOM     19  H   UNL     1      39.060 -23.598 -15.239  0.00  0.00    +0.158 HD
ENDBRANCH   2  14
BRANCH   7  20
ATOM     20  O   UNL     1      32.406 -22.704 -17.522  0.00  0.00    -0.471 OA
BRANCH  20  21
ATOM     21  C   UNL     1      33.706 -23.103 -17.960  0.00  0.00    +0.232 C 
BRANCH  21  23
ATOM     22  C   UNL     1      35.402 -19.963 -20.343  0.00  0.00    -0.043 C 
ATOM     23  C   UNL     1      34.299 -22.007 -18.795  0.00  0.00    +0.021 C 
ATOM     24  C   UNL     1      36.236 -20.830 -19.633  0.00  0.00    -0.007 C 
ATOM     25  C   UNL     1      34.018 -20.119 -20.278  0.00  0.00    -0.007 C 
ATOM     26  C   UNL     1      35.684 -21.851 -18.859  0.00  0.00    -0.001 C 
ATOM     27  C   UNL     1      33.466 -21.141 -19.505  0.00  0.00    -0.001 C 
BRANCH  22  28
ATOM     28  C   UNL     1      35.993 -18.872 -21.169  0.00  0.00    -0.050 C 
BRANCH  28  30
ATOM     29  O   UNL     1      34.427 -17.522 -24.822  0.00  0.00    -0.358 OA
ATOM     30  N   UNL     1      35.063 -18.376 -22.182  0.00  0.00    +0.393 N 
ATOM     31  C   UNL     1      35.496 -17.068 -22.692  0.00  0.00    -0.044 C 
ATOM     32  C   UNL     1      34.940 -19.333 -23.291  0.00  0.00    -0.044 C 
ATOM     33  C   UNL     1      33.975 -18.789 -24.341  0.00  0.00    +0.119 C 
ATOM     34  C   UNL     1      34.518 -16.577 -23.755  0.00  0.00    +0.119 C 
ATOM     35  H   UNL     1      34.149 -18.268 -21.742  0.00  0.00    -0.079 HD
ENDBRANCH  28  30
ENDBRANCH  22  28
ENDBRANCH  21  23
ENDBRANCH  20  21
ENDBRANCH   7  20
TORSDOF 6
ENDMDL
MODEL 2
REMARK VINA RESULT:     -13.6      1.295      1.491
REMARK  Name = 67335295
REMARK  6 active torsions:
REMARK  status: ('A' for Active; 'I' for Inactive)
REMARK    1  A    between atoms: N_2  and  C_14
REMARK    2  A    between atoms: C_7  and  O_20
REMARK    3  A    between atoms: O_20  and  C_21
REMARK    4  A    between atoms: C_21  and  C_23
REMARK    5  A    between atoms: C_22  and  C_28
REMARK    6  A    between atoms: C_28  and  N_30
REMARK                            x       y       z     vdW  Elec       q    Type
REMARK                         _______ _______ _______ _____ _____    ______ ____
ROOT
ATOM      1  O   UNL     1      33.301 -24.693 -12.383  0.00  0.00    -0.270 OA
ATOM      2  N   UNL     1      34.474 -23.902 -14.276  0.00  0.00    -0.265 N 
ATOM      3  C   UNL     1      34.128 -23.312 -15.563  0.00  0.00    +0.124 C 
ATOM      4  C   UNL     1      32.640 -23.275 -15.496  0.00  0.00    +0.036 C 
ATOM      5  C   UNL     1      33.363 -24.200 -13.495  0.00  0.00    +0.249 C 
ATOM      6  C   UNL     1      32.192 -23.797 -14.282  0.00  0.00    +0.054 C 
ATOM      7  C   UNL     1      31.734 -22.815 -16.434  0.00  0.00    +0.137 C 
ATOM      8  C   UNL     1      30.854 -23.882 -13.954  0.00  0.00    +0.004 C 
ATOM      9  C   UNL     1      30.372 -22.891 -16.127  0.00  0.00    +0.037 C 
ATOM     10  C   UNL     1      29.936 -23.420 -14.897  0.00  0.00    +0.003 C 
ENDROOT
BRANCH   2  14
ATOM     11  O   UNL     1      35.666 -26.193 -15.138  0.00  0.00    -0.273 OA
ATOM     12  O   UNL     1      38.679 -26.195 -11.657  0.00  0.00    -0.275 OA
ATOM     13  N   UNL     1      37.139 -26.168 -13.370  0.00  0.00    -0.254 N 
ATOM     14  C   UNL     1      35.828 -24.151 -13.856  0.00  0.00    +0.153 C 
ATOM     15  C   UNL     1      36.004 -23.867 -12.372  0.00  0.00    +0.039 C 
ATOM     16  C   UNL     1      37.434 -24.174 -11.967  0.00  0.00    +0.088 C 
ATOM     17  C   UNL     1      36.160 -25.595 -14.183  0.00  0.00    +0.246 C 
ATOM     18  C   UNL     1      37.805 -25.602 -12.288  0.00  0.00    +0.228 C 
ATOM     19  H   UNL     1      37.390 -27.094 -13.593  0.00  0.00    +0.158 HD
ENDBRANCH   2  14
BRANCH   7  20
ATOM     20  O   UNL     1      32.145 -22.305 -17.623  0.00  0.00    -0.471 OA
BRANCH  20  21
ATOM     21  C   UNL     1      33.347 -22.838 -18.180  0.00  0.00    +0.232 C 
BRANCH  21  23
ATOM     22  C   UNL     1      35.269 -19.799 -20.523  0.00  0.00    -0.043 C 
ATOM     23  C   UNL     1      34.019 -21.777 -19.001  0.00  0.00    +0.021 C 
ATOM     24  C   UNL     1      36.037 -20.715 -19.801  0.00  0.00    -0.007 C 
ATOM     25  C   UNL     1      33.877 -19.873 -20.483  0.00  0.00    -0.007 C 
ATOM     26  C   UNL     1      35.412 -21.703 -19.041  0.00  0.00    -0.001 C 
ATOM     27  C   UNL     1      33.252 -20.862 -19.722  0.00  0.00    -0.001 C 
BRANCH  22  28
ATOM     28  C   UNL     1      35.937 -18.743 -21.335  0.00  0.00    -0.050 C 
BRANCH  28  30
ATOM     29  O   UNL     1      34.477 -17.109 -24.915  0.00  0.00    -0.358 OA
ATOM     30  N   UNL     1      35.040 -18.154 -22.328  0.00  0.00    +0.393 N 
ATOM     31  C   UNL     1      35.522 -16.829 -22.744  0.00  0.00    -0.044 C 
ATOM     32  C   UNL     1      34.909 -19.032 -23.499  0.00  0.00    -0.044 C 
ATOM     33  C   UNL     1      33.980 -18.391 -24.526  0.00  0.00    +0.119 C 
ATOM     34  C   UNL     1      34.577 -16.240 -23.787  0.00  0.00    +0.119 C 
ATOM     35  H   UNL     1      34.123 -18.047 -21.896  0.00  0.00    -0.079 HD
ENDBRANCH  28  30
ENDBRANCH  22  28
ENDBRANCH  21  23
ENDBRANCH  20  21
ENDBRANCH   7  20
TORSDOF 6
ENDMDL
MODEL 3
REMARK VINA RESULT:     -13.1      3.362     11.629
REMARK  Name = 67335295
REMARK  6 active torsions:
REMARK  status: ('A' for Active; 'I' for Inactive)
REMARK    1  A    between atoms: N_2  and  C_14
REMARK    2  A    between atoms: C_7  and  O_20
REMARK    3  A    between atoms: O_20  and  C_21
REMARK    4  A    between atoms: C_21  and  C_23
REMARK    5  A    between atoms: C_22  and  C_28
REMARK    6  A    between atoms: C_28  and  N_30
REMARK                            x       y       z     vdW  Elec       q    Type
REMARK                         _______ _______ _______ _____ _____    ______ ____
ROOT
ATOM      1  O   UNL     1      33.403 -14.531 -25.066  0.00  0.00    -0.270 OA
ATOM      2  N   UNL     1      34.216 -14.339 -22.855  0.00  0.00    -0.265 N 
ATOM      3  C   UNL     1      34.799 -15.233 -21.862  0.00  0.00    +0.124 C 
ATOM      4  C   UNL     1      34.807 -16.536 -22.586  0.00  0.00    +0.036 C 
ATOM      5  C   UNL     1      33.896 -14.979 -24.047  0.00  0.00    +0.249 C 
ATOM      6  C   UNL     1      34.277 -16.385 -23.868  0.00  0.00    +0.054 C 
ATOM      7  C   UNL     1      35.249 -17.772 -22.155  0.00  0.00    +0.137 C 
ATOM      8  C   UNL     1      34.166 -17.436 -24.758  0.00  0.00    +0.004 C 
ATOM      9  C   UNL     1      35.148 -18.853 -23.036  0.00  0.00    +0.037 C 
ATOM     10  C   UNL     1      34.610 -18.686 -24.326  0.00  0.00    +0.003 C 
ENDROOT
BRANCH   2  14
ATOM     11  O   UNL     1      32.038 -13.627 -21.384  0.00  0.00    -0.273 OA
ATOM     12  O   UNL     1      31.919  -9.398 -23.202  0.00  0.00    -0.275 OA
ATOM     13  N   UNL     1      32.002 -11.532 -22.334  0.00  0.00    -0.254 N 
ATOM     14  C   UNL     1      33.993 -12.936 -22.626  0.00  0.00    +0.153 C 
ATOM     15  C   UNL     1      34.182 -12.133 -23.903  0.00  0.00    +0.039 C 
ATOM     16  C   UNL     1      33.906 -10.667 -23.622  0.00  0.00    +0.088 C 
ATOM     17  C   UNL     1      32.589 -12.770 -22.074  0.00  0.00    +0.246 C 
ATOM     18  C   UNL     1      32.518 -10.464 -23.061  0.00  0.00    +0.228 C 
ATOM     19  H   UNL     1      31.104 -11.397 -21.952  0.00  0.00    +0.158 HD
ENDBRANCH   2  14
BRANCH   7  20
ATOM     20  O   UNL     1      35.767 -17.943 -20.911  0.00  0.00    -0.471 OA
BRANCH  20  21
ATOM     21  C   UNL     1      36.597 -19.087 -20.701  0.00  0.00    +0.232 C 
BRANCH  21  23
ATOM     22  C   UNL     1      34.336 -22.102 -18.649  0.00  0.00    -0.043 C 
ATOM     23  C   UNL     1      35.806 -20.140 -19.982  0.00  0.00    +0.021 C 
ATOM     24  C   UNL     1      35.718 -22.018 -18.464  0.00  0.00    -0.007 C 
ATOM     25  C   UNL     1      33.691 -21.205 -19.500  0.00  0.00    -0.007 C 
ATOM     26  C   UNL     1      36.452 -21.037 -19.131  0.00  0.00    -0.001 C 
ATOM     27  C   UNL     1      34.426 -20.224 -20.166  0.00  0.00    -0.001 C 
BRANCH  22  28
ATOM     28  C   UNL     1      33.552 -23.151 -17.936  0.00  0.00    -0.050 C 
BRANCH  28  30
ATOM     29  O   UNL     1      32.756 -23.618 -13.841  0.00  0.00    -0.358 OA
ATOM     30  N   UNL     1      33.420 -22.872 -16.507  0.00  0.00    +0.393 N 
ATOM     31  C   UNL     1      32.023 -23.017 -16.075  0.00  0.00    -0.044 C 
ATOM     32  C   UNL     1      34.286 -23.762 -15.721  0.00  0.00    -0.044 C 
ATOM     33  C   UNL     1      34.121 -23.462 -14.233  0.00  0.00    +0.119 C 
ATOM     34  C   UNL     1      31.913 -22.733 -14.580  0.00  0.00    +0.119 C 
ATOM     35  H   UNL     1      33.713 -21.908 -16.348  0.00  0.00    -0.079 HD
ENDBRANCH  28  30
ENDBRANCH  22  28
ENDBRANCH  21  23
ENDBRANCH  20  21
ENDBRANCH   7  20
TORSDOF 6
ENDMDL
MODEL 4
REMARK VINA RESULT:     -12.6      2.313      5.329
REMARK  Name = 67335295
REMARK  6 active torsions:
REMARK  status: ('A' for Active; 'I' for Inactive)
REMARK    1  A    between atoms: N_2  and  C_14
REMARK    2  A    between atoms: C_7  and  O_20
REMARK    3  A    between atoms: O_20  and  C_21
REMARK    4  A    between atoms: C_21  and  C_23
REMARK    5  A    between atoms: C_22  and  C_28
REMARK    6  A    between atoms: C_28  and  N_30
REMARK                            x       y       z     vdW  Elec       q    Type
REMARK                         _______ _______ _______ _____ _____    ______ ____
ROOT
ATOM      1  O   UNL     1      32.337 -25.261 -12.789  0.00  0.00    -0.270 OA
ATOM      2  N   UNL     1      31.888 -23.662 -14.470  0.00  0.00    -0.265 N 
ATOM      3  C   UNL     1      32.667 -22.901 -15.440  0.00  0.00    +0.124 C 
ATOM      4  C   UNL     1      34.053 -23.371 -15.159  0.00  0.00    +0.036 C 
ATOM      5  C   UNL     1      32.667 -24.501 -13.680  0.00  0.00    +0.249 C 
ATOM      6  C   UNL     1      34.052 -24.309 -14.126  0.00  0.00    +0.054 C 
ATOM      7  C   UNL     1      35.240 -23.003 -15.766  0.00  0.00    +0.137 C 
ATOM      8  C   UNL     1      35.205 -24.910 -13.662  0.00  0.00    +0.004 C 
ATOM      9  C   UNL     1      36.422 -23.596 -15.314  0.00  0.00    +0.037 C 
ATOM     10  C   UNL     1      36.405 -24.542 -14.271  0.00  0.00    +0.003 C 
ENDROOT
BRANCH   2  14
ATOM     11  O   UNL     1      30.369 -25.614 -15.608  0.00  0.00    -0.273 OA
ATOM     12  O   UNL     1      26.670 -22.886 -15.873  0.00  0.00    -0.275 OA
ATOM     13  N   UNL     1      28.551 -24.210 -15.742  0.00  0.00    -0.254 N 
ATOM     14  C   UNL     1      30.459 -23.556 -14.342  0.00  0.00    +0.153 C 
ATOM     15  C   UNL     1      29.984 -22.140 -14.628  0.00  0.00    +0.039 C 
ATOM     16  C   UNL     1      28.471 -22.084 -14.515  0.00  0.00    +0.088 C 
ATOM     17  C   UNL     1      29.830 -24.551 -15.301  0.00  0.00    +0.246 C 
ATOM     18  C   UNL     1      27.810 -23.069 -15.449  0.00  0.00    +0.228 C 
ATOM     19  H   UNL     1      28.117 -24.863 -16.337  0.00  0.00    +0.158 HD
ENDBRANCH   2  14
BRANCH   7  20
ATOM     20  O   UNL     1      35.266 -22.091 -16.771  0.00  0.00    -0.471 OA
BRANCH  20  21
ATOM     21  C   UNL     1      34.580 -22.429 -17.977  0.00  0.00    +0.232 C 
BRANCH  21  23
ATOM     22  C   UNL     1      35.521 -19.522 -20.990  0.00  0.00    -0.043 C 
ATOM     23  C   UNL     1      34.909 -21.411 -19.029  0.00  0.00    +0.021 C 
ATOM     24  C   UNL     1      34.198 -19.925 -20.797  0.00  0.00    -0.007 C 
ATOM     25  C   UNL     1      36.536 -20.065 -20.204  0.00  0.00    -0.007 C 
ATOM     26  C   UNL     1      33.893 -20.869 -19.816  0.00  0.00    -0.001 C 
ATOM     27  C   UNL     1      36.230 -21.009 -19.223  0.00  0.00    -0.001 C 
BRANCH  22  28
ATOM     28  C   UNL     1      35.847 -18.513 -22.039  0.00  0.00    -0.050 C 
BRANCH  28  30
ATOM     29  O   UNL     1      34.659 -14.493 -21.821  0.00  0.00    -0.358 OA
ATOM     30  N   UNL     1      35.015 -17.316 -21.935  0.00  0.00    +0.393 N 
ATOM     31  C   UNL     1      35.361 -16.545 -20.732  0.00  0.00    -0.044 C 
ATOM     32  C   UNL     1      35.161 -16.474 -23.131  0.00  0.00    -0.044 C 
ATOM     33  C   UNL     1      34.295 -15.225 -22.994  0.00  0.00    +0.119 C 
ATOM     34  C   UNL     1      34.489 -15.295 -20.652  0.00  0.00    +0.119 C 
ATOM     35  H   UNL     1      34.043 -17.614 -21.862  0.00  0.00    -0.079 HD
ENDBRANCH  28  30
ENDBRANCH  22  28
ENDBRANCH  21  23
ENDBRANCH  20  21
ENDBRANCH   7  20
TORSDOF 6
ENDMDL
MODEL 5
REMARK VINA RESULT:     -12.5      5.429      9.692
REMARK  Name = 67335295
REMARK  6 active torsions:
REMARK  status: ('A' for Active; 'I' for Inactive)
REMARK    1  A    between atoms: N_2  and  C_14
REMARK    2  A    between atoms: C_7  and  O_20
REMARK    3  A    between atoms: O_20  and  C_21
REMARK    4  A    between atoms: C_21  and  C_23
REMARK    5  A    between atoms: C_22  and  C_28
REMARK    6  A    between atoms: C_28  and  N_30
REMARK                            x       y       z     vdW  Elec       q    Type
REMARK                         _______ _______ _______ _____ _____    ______ ____
ROOT
ATOM      1  O   UNL     1      34.943 -20.127 -23.671  0.00  0.00    -0.270 OA
ATOM      2  N   UNL     1      35.125 -19.230 -21.492  0.00  0.00    -0.265 N 
ATOM      3  C   UNL     1      35.096 -17.902 -20.890  0.00  0.00    +0.124 C 
ATOM      4  C   UNL     1      34.897 -17.028 -22.080  0.00  0.00    +0.036 C 
ATOM      5  C   UNL     1      34.967 -19.208 -22.873  0.00  0.00    +0.249 C 
ATOM      6  C   UNL     1      34.822 -17.795 -23.244  0.00  0.00    +0.054 C 
ATOM      7  C   UNL     1      34.789 -15.651 -22.145  0.00  0.00    +0.137 C 
ATOM      8  C   UNL     1      34.640 -17.239 -24.494  0.00  0.00    +0.004 C 
ATOM      9  C   UNL     1      34.604 -15.062 -23.399  0.00  0.00    +0.037 C 
ATOM     10  C   UNL     1      34.530 -15.849 -24.564  0.00  0.00    +0.003 C 
ENDROOT
BRANCH   2  14
ATOM     11  O   UNL     1      32.894 -20.429 -20.494  0.00  0.00    -0.273 OA
ATOM     12  O   UNL     1      35.270 -22.607 -17.206  0.00  0.00    -0.275 OA
ATOM     13  N   UNL     1      34.116 -21.481 -18.852  0.00  0.00    -0.254 N 
ATOM     14  C   UNL     1      35.299 -20.441 -20.735  0.00  0.00    +0.153 C 
ATOM     15  C   UNL     1      36.443 -20.308 -19.741  0.00  0.00    +0.039 C 
ATOM     16  C   UNL     1      36.568 -21.593 -18.943  0.00  0.00    +0.088 C 
ATOM     17  C   UNL     1      33.990 -20.742 -20.029  0.00  0.00    +0.246 C 
ATOM     18  C   UNL     1      35.279 -21.931 -18.234  0.00  0.00    +0.228 C 
ATOM     19  H   UNL     1      33.273 -21.714 -18.402  0.00  0.00    +0.158 HD
ENDBRANCH   2  14
BRANCH   7  20
ATOM     20  O   UNL     1      34.861 -14.884 -21.027  0.00  0.00    -0.471 OA
BRANCH  20  21
ATOM     21  C   UNL     1      33.677 -14.771 -20.236  0.00  0.00    +0.232 C 
BRANCH  21  23
ATOM     22  C   UNL     1      31.812 -10.992 -21.046  0.00  0.00    -0.043 C 
ATOM     23  C   UNL     1      33.023 -13.450 -20.519  0.00  0.00    +0.021 C 
ATOM     24  C   UNL     1      32.304 -11.768 -22.097  0.00  0.00    -0.007 C 
ATOM     25  C   UNL     1      31.926 -11.446 -19.732  0.00  0.00    -0.007 C 
ATOM     26  C   UNL     1      32.910 -12.996 -21.833  0.00  0.00    -0.001 C 
ATOM     27  C   UNL     1      32.531 -12.676 -19.469  0.00  0.00    -0.001 C 
BRANCH  22  28
ATOM     28  C   UNL     1      31.166  -9.678 -21.329  0.00  0.00    -0.050 C 
BRANCH  28  30
ATOM     29  O   UNL     1      32.931  -6.186 -22.849  0.00  0.00    -0.358 OA
ATOM     30  N   UNL     1      32.041  -8.778 -22.078  0.00  0.00    +0.393 N 
ATOM     31  C   UNL     1      31.260  -7.940 -22.998  0.00  0.00    -0.044 C 
ATOM     32  C   UNL     1      32.822  -7.931 -21.165  0.00  0.00    -0.044 C 
ATOM     33  C   UNL     1      33.717  -6.992 -21.969  0.00  0.00    +0.119 C 
ATOM     34  C   UNL     1      32.193  -7.002 -23.759  0.00  0.00    +0.119 C 
ATOM     35  H   UNL     1      32.685  -9.350 -22.624  0.00  0.00    -0.079 HD
ENDBRANCH  28  30
ENDBRANCH  22  28
ENDBRANCH  21  23
ENDBRANCH  20  21
ENDBRANCH   7  20
TORSDOF 6
ENDMDL
MODEL 6
REMARK VINA RESULT:     -12.4      6.831     13.911
REMARK  Name = 67335295
REMARK  6 active torsions:
REMARK  status: ('A' for Active; 'I' for Inactive)
REMARK    1  A    between atoms: N_2  and  C_14
REMARK    2  A    between atoms: C_7  and  O_20
REMARK    3  A    between atoms: O_20  and  C_21
REMARK    4  A    between atoms: C_21  and  C_23
REMARK    5  A    between atoms: C_22  and  C_28
REMARK    6  A    between atoms: C_28  and  N_30
REMARK                            x       y       z     vdW  Elec       q    Type
REMARK                         _______ _______ _______ _____ _____    ______ ____
ROOT
ATOM      1  O   UNL     1      31.622  -8.314 -20.710  0.00  0.00    -0.270 OA
ATOM      2  N   UNL     1      32.225  -9.338 -22.753  0.00  0.00    -0.265 N 
ATOM      3  C   UNL     1      32.524 -10.690 -23.210  0.00  0.00    +0.124 C 
ATOM      4  C   UNL     1      32.364 -11.482 -21.957  0.00  0.00    +0.036 C 
ATOM      5  C   UNL     1      31.916  -9.274 -21.399  0.00  0.00    +0.249 C 
ATOM      6  C   UNL     1      32.007 -10.650 -20.896  0.00  0.00    +0.054 C 
ATOM      7  C   UNL     1      32.519 -12.841 -21.757  0.00  0.00    +0.137 C 
ATOM      8  C   UNL     1      31.793 -11.123 -19.616  0.00  0.00    +0.004 C 
ATOM      9  C   UNL     1      32.309 -13.346 -20.471  0.00  0.00    +0.037 C 
ATOM     10  C   UNL     1      31.949 -12.494 -19.409  0.00  0.00    +0.003 C 
ENDROOT
BRANCH   2  14
ATOM     11  O   UNL     1      34.494  -7.835 -22.800  0.00  0.00    -0.273 OA
ATOM     12  O   UNL     1      32.253  -4.102 -24.298  0.00  0.00    -0.275 OA
ATOM     13  N   UNL     1      33.332  -5.987 -23.527  0.00  0.00    -0.254 N 
ATOM     14  C   UNL     1      32.246  -8.186 -23.616  0.00  0.00    +0.153 C 
ATOM     15  C   UNL     1      30.960  -7.384 -23.494  0.00  0.00    +0.039 C 
ATOM     16  C   UNL     1      31.041  -6.165 -24.394  0.00  0.00    +0.088 C 
ATOM     17  C   UNL     1      33.455  -7.347 -23.244  0.00  0.00    +0.246 C 
ATOM     18  C   UNL     1      32.239  -5.309 -24.060  0.00  0.00    +0.228 C 
ATOM     19  H   UNL     1      34.122  -5.435 -23.324  0.00  0.00    +0.158 HD
ENDBRANCH   2  14
BRANCH   7  20
ATOM     20  O   UNL     1      32.867 -13.669 -22.775  0.00  0.00    -0.471 OA
BRANCH  20  21
ATOM     21  C   UNL     1      34.263 -13.845 -23.024  0.00  0.00    +0.232 C 
BRANCH  21  23
ATOM     22  C   UNL     1      35.372 -17.872 -22.039  0.00  0.00    -0.043 C 
ATOM     23  C   UNL     1      34.648 -15.254 -22.679  0.00  0.00    +0.021 C 
ATOM     24  C   UNL     1      35.302 -16.902 -21.037  0.00  0.00    -0.007 C 
ATOM     25  C   UNL     1      35.080 -17.532 -23.360  0.00  0.00    -0.007 C 
ATOM     26  C   UNL     1      34.940 -15.593 -21.358  0.00  0.00    -0.001 C 
ATOM     27  C   UNL     1      34.718 -16.223 -23.680  0.00  0.00    -0.001 C 
BRANCH  22  28
ATOM     28  C   UNL     1      35.759 -19.270 -21.696  0.00  0.00    -0.050 C 
BRANCH  28  30
ATOM     29  O   UNL     1      33.634 -21.766 -19.073  0.00  0.00    -0.358 OA
ATOM     30  N   UNL     1      35.061 -19.765 -20.510  0.00  0.00    +0.393 N 
ATOM     31  C   UNL     1      33.663 -20.089 -20.826  0.00  0.00    -0.044 C 
ATOM     32  C   UNL     1      35.740 -20.947 -19.961  0.00  0.00    -0.044 C 
ATOM     33  C   UNL     1      34.987 -21.453 -18.734  0.00  0.00    +0.119 C 
ATOM     34  C   UNL     1      32.959 -20.614 -19.578  0.00  0.00    +0.119 C 
ATOM     35  H   UNL     1      35.074 -19.025 -19.808  0.00  0.00    -0.079 HD
ENDBRANCH  28  30
ENDBRANCH  22  28
ENDBRANCH  21  23
ENDBRANCH  20  21
ENDBRANCH   7  20
TORSDOF 6
ENDMDL
MODEL 7
REMARK VINA RESULT:     -12.2      7.583     14.597
REMARK  Name = 67335295
REMARK  6 active torsions:
REMARK  status: ('A' for Active; 'I' for Inactive)
REMARK    1  A    between atoms: N_2  and  C_14
REMARK    2  A    between atoms: C_7  and  O_20
REMARK    3  A    between atoms: O_20  and  C_21
REMARK    4  A    between atoms: C_21  and  C_23
REMARK    5  A    between atoms: C_22  and  C_28
REMARK    6  A    between atoms: C_28  and  N_30
REMARK                            x       y       z     vdW  Elec       q    Type
REMARK                         _______ _______ _______ _____ _____    ______ ____
ROOT
ATOM      1  O   UNL     1      32.883  -6.797 -20.038  0.00  0.00    -0.270 OA
ATOM      2  N   UNL     1      33.112  -7.824 -22.154  0.00  0.00    -0.265 N 
ATOM      3  C   UNL     1      32.882  -9.149 -22.717  0.00  0.00    +0.124 C 
ATOM      4  C   UNL     1      32.388  -9.906 -21.532  0.00  0.00    +0.036 C 
ATOM      5  C   UNL     1      32.807  -7.743 -20.801  0.00  0.00    +0.249 C 
ATOM      6  C   UNL     1      32.345  -9.080 -20.408  0.00  0.00    +0.054 C 
ATOM      7  C   UNL     1      32.002 -11.230 -21.439  0.00  0.00    +0.137 C 
ATOM      8  C   UNL     1      31.924  -9.524 -19.170  0.00  0.00    +0.004 C 
ATOM      9  C   UNL     1      31.571 -11.706 -20.197  0.00  0.00    +0.037 C 
ATOM     10  C   UNL     1      31.533 -10.860 -19.072  0.00  0.00    +0.003 C 
ENDROOT
BRANCH   2  14
ATOM     11  O   UNL     1      31.309  -6.404 -23.620  0.00  0.00    -0.273 OA
ATOM     12  O   UNL     1      34.548  -4.837 -26.493  0.00  0.00    -0.275 OA
ATOM     13  N   UNL     1      32.956  -5.662 -25.046  0.00  0.00    -0.254 N 
ATOM     14  C   UNL     1      33.603  -6.710 -22.923  0.00  0.00    +0.153 C 
ATOM     15  C   UNL     1      34.876  -7.077 -23.671  0.00  0.00    +0.039 C 
ATOM     16  C   UNL     1      35.338  -5.887 -24.491  0.00  0.00    +0.088 C 
ATOM     17  C   UNL     1      32.506  -6.284 -23.881  0.00  0.00    +0.246 C 
ATOM     18  C   UNL     1      34.266  -5.427 -25.451  0.00  0.00    +0.228 C 
ATOM     19  H   UNL     1      32.254  -5.349 -25.661  0.00  0.00    +0.158 HD
ENDBRANCH   2  14
BRANCH   7  20
ATOM     20  O   UNL     1      32.037 -12.053 -22.519  0.00  0.00    -0.471 OA
BRANCH  20  21
ATOM     21  C   UNL     1      33.258 -12.106 -23.258  0.00  0.00    +0.232 C 
BRANCH  21  23
ATOM     22  C   UNL     1      34.636 -16.168 -23.405  0.00  0.00    -0.043 C 
ATOM     23  C   UNL     1      33.738 -13.527 -23.309  0.00  0.00    +0.021 C 
ATOM     24  C   UNL     1      34.849 -15.399 -22.259  0.00  0.00    -0.007 C 
ATOM     25  C   UNL     1      33.975 -15.615 -24.501  0.00  0.00    -0.007 C 
ATOM     26  C   UNL     1      34.400 -14.079 -22.212  0.00  0.00    -0.001 C 
ATOM     27  C   UNL     1      33.525 -14.295 -24.453  0.00  0.00    -0.001 C 
BRANCH  22  28
ATOM     28  C   UNL     1      35.117 -17.578 -23.455  0.00  0.00    -0.050 C 
BRANCH  28  30
ATOM     29  O   UNL     1      35.999 -20.275 -20.362  0.00  0.00    -0.358 OA
ATOM     30  N   UNL     1      35.258 -18.165 -22.124  0.00  0.00    +0.393 N 
ATOM     31  C   UNL     1      34.450 -19.386 -22.005  0.00  0.00    -0.044 C 
ATOM     32  C   UNL     1      36.668 -18.463 -21.833  0.00  0.00    -0.044 C 
ATOM     33  C   UNL     1      36.789 -19.087 -20.445  0.00  0.00    +0.119 C 
ATOM     34  C   UNL     1      34.623 -19.987 -20.613  0.00  0.00    +0.119 C 
ATOM     35  H   UNL     1      34.922 -17.483 -21.444  0.00  0.00    -0.079 HD
ENDBRANCH  28  30
ENDBRANCH  22  28
ENDBRANCH  21  23
ENDBRANCH  20  21
ENDBRANCH   7  20
TORSDOF 6
ENDMDL
MODEL 8
REMARK VINA RESULT:     -11.7      3.081     11.429
REMARK  Name = 67335295
REMARK  6 active torsions:
REMARK  status: ('A' for Active; 'I' for Inactive)
REMARK    1  A    between atoms: N_2  and  C_14
REMARK    2  A    between atoms: C_7  and  O_20
REMARK    3  A    between atoms: O_20  and  C_21
REMARK    4  A    between atoms: C_21  and  C_23
REMARK    5  A    between atoms: C_22  and  C_28
REMARK    6  A    between atoms: C_28  and  N_30
REMARK                            x       y       z     vdW  Elec       q    Type
REMARK                         _______ _______ _______ _____ _____    ______ ____
ROOT
ATOM      1  O   UNL     1      33.613 -15.380 -24.867  0.00  0.00    -0.270 OA
ATOM      2  N   UNL     1      34.480 -15.100 -22.687  0.00  0.00    -0.265 N 
ATOM      3  C   UNL     1      35.057 -15.959 -21.660  0.00  0.00    +0.124 C 
ATOM      4  C   UNL     1      35.010 -17.297 -22.316  0.00  0.00    +0.036 C 
ATOM      5  C   UNL     1      34.115 -15.790 -23.837  0.00  0.00    +0.249 C 
ATOM      6  C   UNL     1      34.456 -17.196 -23.593  0.00  0.00    +0.054 C 
ATOM      7  C   UNL     1      35.423 -18.523 -21.829  0.00  0.00    +0.137 C 
ATOM      8  C   UNL     1      34.293 -18.287 -24.424  0.00  0.00    +0.004 C 
ATOM      9  C   UNL     1      35.268 -19.644 -22.650  0.00  0.00    +0.037 C 
ATOM     10  C   UNL     1      34.708 -19.527 -23.937  0.00  0.00    +0.003 C 
ENDROOT
BRANCH   2  14
ATOM     11  O   UNL     1      32.616 -14.248 -20.894  0.00  0.00    -0.273 OA
ATOM     12  O   UNL     1      32.164 -10.164 -22.972  0.00  0.00    -0.275 OA
ATOM     13  N   UNL     1      32.405 -12.228 -21.976  0.00  0.00    -0.254 N 
ATOM     14  C   UNL     1      34.306 -13.680 -22.527  0.00  0.00    +0.153 C 
ATOM     15  C   UNL     1      34.253 -12.977 -23.874  0.00  0.00    +0.039 C 
ATOM     16  C   UNL     1      34.036 -11.490 -23.657  0.00  0.00    +0.088 C 
ATOM     17  C   UNL     1      33.029 -13.452 -21.737  0.00  0.00    +0.246 C 
ATOM     18  C   UNL     1      32.778 -11.225 -22.865  0.00  0.00    +0.228 C 
ATOM     19  H   UNL     1      31.595 -12.052 -21.445  0.00  0.00    +0.158 HD
ENDBRANCH   2  14
BRANCH   7  20
ATOM     20  O   UNL     1      35.962 -18.646 -20.589  0.00  0.00    -0.471 OA
BRANCH  20  21
ATOM     21  C   UNL     1      36.892 -19.710 -20.385  0.00  0.00    +0.232 C 
BRANCH  21  23
ATOM     22  C   UNL     1      35.615 -22.072 -17.038  0.00  0.00    -0.043 C 
ATOM     23  C   UNL     1      36.444 -20.534 -19.214  0.00  0.00    +0.021 C 
ATOM     24  C   UNL     1      36.743 -21.257 -16.928  0.00  0.00    -0.007 C 
ATOM     25  C   UNL     1      34.903 -22.118 -18.236  0.00  0.00    -0.007 C 
ATOM     26  C   UNL     1      37.158 -20.488 -18.016  0.00  0.00    -0.001 C 
ATOM     27  C   UNL     1      35.317 -21.348 -19.324  0.00  0.00    -0.001 C 
BRANCH  22  28
ATOM     28  C   UNL     1      35.173 -22.893 -15.874  0.00  0.00    -0.050 C 
BRANCH  28  30
ATOM     29  O   UNL     1      37.415 -25.462 -13.427  0.00  0.00    -0.358 OA
ATOM     30  N   UNL     1      36.220 -23.797 -15.403  0.00  0.00    +0.393 N 
ATOM     31  C   UNL     1      36.911 -23.231 -14.236  0.00  0.00    -0.044 C 
ATOM     32  C   UNL     1      35.660 -25.114 -15.066  0.00  0.00    -0.044 C 
ATOM     33  C   UNL     1      36.768 -26.036 -14.564  0.00  0.00    +0.119 C 
ATOM     34  C   UNL     1      37.990 -24.197 -13.755  0.00  0.00    +0.119 C 
ATOM     35  H   UNL     1      36.896 -23.914 -16.157  0.00  0.00    -0.079 HD
ENDBRANCH  28  30
ENDBRANCH  22  28
ENDBRANCH  21  23
ENDBRANCH  20  21
ENDBRANCH   7  20
TORSDOF 6
ENDMDL
MODEL 9
REMARK VINA RESULT:     -11.6      2.406      3.545
REMARK  Name = 67335295
REMARK  6 active torsions:
REMARK  status: ('A' for Active; 'I' for Inactive)
REMARK    1  A    between atoms: N_2  and  C_14
REMARK    2  A    between atoms: C_7  and  O_20
REMARK    3  A    between atoms: O_20  and  C_21
REMARK    4  A    between atoms: C_21  and  C_23
REMARK    5  A    between atoms: C_22  and  C_28
REMARK    6  A    between atoms: C_28  and  N_30
REMARK                            x       y       z     vdW  Elec       q    Type
REMARK                         _______ _______ _______ _____ _____    ______ ____
ROOT
ATOM      1  O   UNL     1      33.699 -24.286 -14.515  0.00  0.00    -0.270 OA
ATOM      2  N   UNL     1      35.778 -23.531 -15.345  0.00  0.00    -0.265 N 
ATOM      3  C   UNL     1      36.240 -22.744 -16.483  0.00  0.00    +0.124 C 
ATOM      4  C   UNL     1      34.960 -22.428 -17.179  0.00  0.00    +0.036 C 
ATOM      5  C   UNL     1      34.398 -23.694 -15.316  0.00  0.00    +0.249 C 
ATOM      6  C   UNL     1      33.880 -22.987 -16.493  0.00  0.00    +0.054 C 
ATOM      7  C   UNL     1      34.751 -21.700 -18.335  0.00  0.00    +0.137 C 
ATOM      8  C   UNL     1      32.574 -22.848 -16.918  0.00  0.00    +0.004 C 
ATOM      9  C   UNL     1      33.437 -21.545 -18.788  0.00  0.00    +0.037 C 
ATOM     10  C   UNL     1      32.358 -22.114 -18.085  0.00  0.00    +0.003 C 
ENDROOT
BRANCH   2  14
ATOM     11  O   UNL     1      36.291 -26.203 -15.450  0.00  0.00    -0.273 OA
ATOM     12  O   UNL     1      37.448 -26.378 -10.997  0.00  0.00    -0.275 OA
ATOM     13  N   UNL     1      36.840 -26.250 -13.216  0.00  0.00    -0.254 N 
ATOM     14  C   UNL     1      36.662 -24.082 -14.352  0.00  0.00    +0.153 C 
ATOM     15  C   UNL     1      36.325 -23.557 -12.964  0.00  0.00    +0.039 C 
ATOM     16  C   UNL     1      37.258 -24.189 -11.948  0.00  0.00    +0.088 C 
ATOM     17  C   UNL     1      36.546 -25.594 -14.411  0.00  0.00    +0.246 C 
ATOM     18  C   UNL     1      37.178 -25.696 -11.985  0.00  0.00    +0.228 C 
ATOM     19  H   UNL     1      36.803 -27.233 -13.248  0.00  0.00    +0.158 HD
ENDBRANCH   2  14
BRANCH   7  20
ATOM     20  O   UNL     1      35.785 -21.150 -19.020  0.00  0.00    -0.471 OA
BRANCH  20  21
ATOM     21  C   UNL     1      35.796 -21.325 -20.437  0.00  0.00    +0.232 C 
BRANCH  21  23
ATOM     22  C   UNL     1      35.449 -17.486 -22.322  0.00  0.00    -0.043 C 
ATOM     23  C   UNL     1      35.676 -19.983 -21.098  0.00  0.00    +0.021 C 
ATOM     24  C   UNL     1      36.298 -17.652 -21.226  0.00  0.00    -0.007 C 
ATOM     25  C   UNL     1      34.714 -18.568 -22.805  0.00  0.00    -0.007 C 
ATOM     26  C   UNL     1      36.411 -18.900 -20.615  0.00  0.00    -0.001 C 
ATOM     27  C   UNL     1      34.829 -19.818 -22.193  0.00  0.00    -0.001 C 
BRANCH  22  28
ATOM     28  C   UNL     1      35.328 -16.151 -22.975  0.00  0.00    -0.050 C 
BRANCH  28  30
ATOM     29  O   UNL     1      33.053 -12.954 -21.483  0.00  0.00    -0.358 OA
ATOM     30  N   UNL     1      34.212 -15.371 -22.443  0.00  0.00    +0.393 N 
ATOM     31  C   UNL     1      34.537 -14.838 -21.112  0.00  0.00    -0.044 C 
ATOM     32  C   UNL     1      33.863 -14.272 -23.354  0.00  0.00    -0.044 C 
ATOM     33  C   UNL     1      32.706 -13.464 -22.772  0.00  0.00    +0.119 C 
ATOM     34  C   UNL     1      33.364 -14.018 -20.583  0.00  0.00    +0.119 C 
ATOM     35  H   UNL     1      33.408 -15.992 -22.358  0.00  0.00    -0.079 HD
ENDBRANCH  28  30
ENDBRANCH  22  28
ENDBRANCH  21  23
ENDBRANCH  20  21
ENDBRANCH   7  20
TORSDOF 6
ENDMDL
