MODEL 1
REMARK VINA RESULT:     -11.9      0.000      0.000
REMARK  Name = 11282283
REMARK  4 active torsions:
REMARK  status: ('A' for Active; 'I' for Inactive)
REMARK    1  A    between atoms: N_3  and  C_21
REMARK    2  A    between atoms: C_21  and  N_22
REMARK    3  A    between atoms: N_22  and  C_24
REMARK    4  A    between atoms: C_24  and  C_27
REMARK                            x       y       z     vdW  Elec       q    Type
REMARK                         _______ _______ _______ _____ _____    ______ ____
ROOT
ATOM      1  O   UNL     1      32.775  -9.325 -22.079  0.00  0.00    -0.466 OA
ATOM      2  N   UNL     1      32.692 -12.129 -21.191  0.00  0.00    -0.290 N 
ATOM      3  N   UNL     1      33.638 -14.338 -22.776  0.00  0.00    -0.288 N 
ATOM      4  N   UNL     1      31.707 -11.262 -19.193  0.00  0.00    -0.230 NA
ATOM      5  N   UNL     1      31.308  -8.872 -18.886  0.00  0.00    -0.245 NA
ATOM      6  C   UNL     1      33.234 -13.333 -20.553  0.00  0.00    +0.113 C 
ATOM      7  C   UNL     1      32.644 -12.076 -22.656  0.00  0.00    +0.113 C 
ATOM      8  C   UNL     1      34.224 -14.037 -21.479  0.00  0.00    +0.114 C 
ATOM      9  C   UNL     1      32.559 -13.483 -23.245  0.00  0.00    +0.114 C 
ATOM     10  C   UNL     1      32.231 -11.061 -20.423  0.00  0.00    +0.152 C 
ATOM     11  C   UNL     1      32.295  -9.764 -20.887  0.00  0.00    +0.258 C 
ATOM     12  C   UNL     1      31.838  -8.700 -20.122  0.00  0.00    +0.106 C 
ATOM     13  C   UNL     1      32.052  -7.530 -20.895  0.00  0.00    +0.051 C 
ATOM     14  C   UNL     1      32.629  -7.968 -22.086  0.00  0.00    +0.141 C 
ATOM     15  C   UNL     1      31.284 -10.171 -18.511  0.00  0.00    +0.251 C 
ATOM     16  C   UNL     1      31.824  -6.153 -20.725  0.00  0.00    +0.004 C 
ATOM     17  C   UNL     1      32.999  -7.120 -23.129  0.00  0.00    +0.037 C 
ATOM     18  C   UNL     1      32.187  -5.278 -21.758  0.00  0.00    +0.000 C 
ATOM     19  C   UNL     1      32.763  -5.756 -22.938  0.00  0.00    +0.003 C 
ENDROOT
BRANCH   3  21
ATOM     20  S   UNL     1      33.661 -15.534 -25.134  0.00  0.00    -0.019 S 
ATOM     21  C   UNL     1      34.084 -15.380 -23.522  0.00  0.00    +0.135 C 
BRANCH  21  22
ATOM     22  N   UNL     1      34.894 -16.302 -22.909  0.00  0.00    -0.312 N 
ATOM     23  H   UNL     1      35.425 -15.990 -22.141  0.00  0.00    +0.149 HD
BRANCH  22  24
ATOM     24  C   UNL     1      35.041 -17.694 -23.288  0.00  0.00    +0.116 C 
BRANCH  24  27
ATOM     25  O   UNL     1      34.224 -21.174 -19.882  0.00  0.00    -0.435 OA
ATOM     26  O   UNL     1      36.436 -20.950 -18.955  0.00  0.00    -0.435 OA
ATOM     27  C   UNL     1      35.448 -18.552 -22.125  0.00  0.00    +0.001 C 
ATOM     28  C   UNL     1      34.542 -19.466 -21.598  0.00  0.00    +0.038 C 
ATOM     29  C   UNL     1      36.737 -18.416 -21.591  0.00  0.00    +0.001 C 
ATOM     30  C   UNL     1      34.962 -20.233 -20.531  0.00  0.00    +0.176 C 
ATOM     31  C   UNL     1      36.226 -20.105 -20.001  0.00  0.00    +0.176 C 
ATOM     32  C   UNL     1      37.139 -19.204 -20.511  0.00  0.00    +0.040 C 
ATOM     33  C   UNL     1      35.164 -21.625 -18.886  0.00  0.00    +0.429 C 
ENDBRANCH  24  27
ENDBRANCH  22  24
ENDBRANCH  21  22
ENDBRANCH   3  21
TORSDOF 4
ENDMDL
MODEL 2
REMARK VINA RESULT:     -11.4      6.069     12.292
REMARK  Name = 11282283
REMARK  4 active torsions:
REMARK  status: ('A' for Active; 'I' for Inactive)
REMARK    1  A    between atoms: N_3  and  C_21
REMARK    2  A    between atoms: C_21  and  N_22
REMARK    3  A    between atoms: N_22  and  C_24
REMARK    4  A    between atoms: C_24  and  C_27
REMARK                            x       y       z     vdW  Elec       q    Type
REMARK                         _______ _______ _______ _____ _____    ______ ____
ROOT
ATOM      1  O   UNL     1      32.952 -22.935 -15.982  0.00  0.00    -0.466 OA
ATOM      2  N   UNL     1      35.571 -22.393 -17.209  0.00  0.00    -0.290 N 
ATOM      3  N   UNL     1      35.941 -20.697 -19.505  0.00  0.00    -0.288 N 
ATOM      4  N   UNL     1      36.445 -23.828 -15.509  0.00  0.00    -0.230 NA
ATOM      5  N   UNL     1      35.001 -24.880 -13.844  0.00  0.00    -0.245 NA
ATOM      6  C   UNL     1      36.817 -21.643 -17.395  0.00  0.00    +0.113 C 
ATOM      7  C   UNL     1      34.517 -22.259 -18.221  0.00  0.00    +0.113 C 
ATOM      8  C   UNL     1      36.573 -20.388 -18.231  0.00  0.00    +0.114 C 
ATOM      9  C   UNL     1      35.114 -21.892 -19.578  0.00  0.00    +0.114 C 
ATOM     10  C   UNL     1      35.393 -23.217 -16.099  0.00  0.00    +0.152 C 
ATOM     11  C   UNL     1      34.142 -23.437 -15.562  0.00  0.00    +0.258 C 
ATOM     12  C   UNL     1      33.964 -24.255 -14.455  0.00  0.00    +0.106 C 
ATOM     13  C   UNL     1      32.573 -24.257 -14.176  0.00  0.00    +0.051 C 
ATOM     14  C   UNL     1      31.997 -23.431 -15.142  0.00  0.00    +0.141 C 
ATOM     15  C   UNL     1      36.187 -24.610 -14.433  0.00  0.00    +0.251 C 
ATOM     16  C   UNL     1      31.736 -24.859 -13.222  0.00  0.00    +0.004 C 
ATOM     17  C   UNL     1      30.632 -23.163 -15.221  0.00  0.00    +0.037 C 
ATOM     18  C   UNL     1      30.359 -24.607 -13.278  0.00  0.00    +0.000 C 
ATOM     19  C   UNL     1      29.819 -23.773 -14.261  0.00  0.00    +0.003 C 
ENDROOT
BRANCH   3  21
ATOM     20  S   UNL     1      37.569 -19.108 -20.853  0.00  0.00    -0.019 S 
ATOM     21  C   UNL     1      36.118 -19.898 -20.588  0.00  0.00    +0.135 C 
BRANCH  21  22
ATOM     22  N   UNL     1      35.066 -19.762 -21.458  0.00  0.00    -0.312 N 
ATOM     23  H   UNL     1      34.161 -19.853 -21.082  0.00  0.00    +0.149 HD
BRANCH  22  24
ATOM     24  C   UNL     1      35.164 -19.496 -22.880  0.00  0.00    +0.116 C 
BRANCH  24  27
ATOM     25  O   UNL     1      33.242 -15.946 -25.723  0.00  0.00    -0.435 OA
ATOM     26  O   UNL     1      33.930 -14.201 -24.211  0.00  0.00    -0.435 OA
ATOM     27  C   UNL     1      34.849 -18.065 -23.206  0.00  0.00    +0.001 C 
ATOM     28  C   UNL     1      34.163 -17.764 -24.379  0.00  0.00    +0.038 C 
ATOM     29  C   UNL     1      35.253 -17.055 -22.321  0.00  0.00    +0.001 C 
ATOM     30  C   UNL     1      33.896 -16.435 -24.635  0.00  0.00    +0.176 C 
ATOM     31  C   UNL     1      34.289 -15.438 -23.771  0.00  0.00    +0.176 C 
ATOM     32  C   UNL     1      34.971 -15.717 -22.603  0.00  0.00    +0.040 C 
ATOM     33  C   UNL     1      33.266 -14.531 -25.447  0.00  0.00    +0.429 C 
ENDBRANCH  24  27
ENDBRANCH  22  24
ENDBRANCH  21  22
ENDBRANCH   3  21
TORSDOF 4
ENDMDL
MODEL 3
REMARK VINA RESULT:     -11.3      3.022     10.627
REMARK  Name = 11282283
REMARK  4 active torsions:
REMARK  status: ('A' for Active; 'I' for Inactive)
REMARK    1  A    between atoms: N_3  and  C_21
REMARK    2  A    between atoms: C_21  and  N_22
REMARK    3  A    between atoms: N_22  and  C_24
REMARK    4  A    between atoms: C_24  and  C_27
REMARK                            x       y       z     vdW  Elec       q    Type
REMARK                         _______ _______ _______ _____ _____    ______ ____
ROOT
ATOM      1  O   UNL     1      34.247 -14.993 -21.987  0.00  0.00    -0.466 OA
ATOM      2  N   UNL     1      32.872 -12.605 -23.018  0.00  0.00    -0.290 N 
ATOM      3  N   UNL     1      32.183 -10.330 -21.394  0.00  0.00    -0.288 N 
ATOM      4  N   UNL     1      32.901 -13.737 -25.122  0.00  0.00    -0.230 NA
ATOM      5  N   UNL     1      33.891 -15.955 -25.378  0.00  0.00    -0.245 NA
ATOM      6  C   UNL     1      32.809 -11.259 -23.598  0.00  0.00    +0.113 C 
ATOM      7  C   UNL     1      32.576 -12.764 -21.590  0.00  0.00    +0.113 C 
ATOM      8  C   UNL     1      33.078 -10.198 -22.533  0.00  0.00    +0.114 C 
ATOM      9  C   UNL     1      31.650 -11.652 -21.102  0.00  0.00    +0.114 C 
ATOM     10  C   UNL     1      33.203 -13.707 -23.805  0.00  0.00    +0.152 C 
ATOM     11  C   UNL     1      33.850 -14.801 -23.271  0.00  0.00    +0.258 C 
ATOM     12  C   UNL     1      34.181 -15.898 -24.055  0.00  0.00    +0.106 C 
ATOM     13  C   UNL     1      34.825 -16.825 -23.196  0.00  0.00    +0.051 C 
ATOM     14  C   UNL     1      34.841 -16.222 -21.939  0.00  0.00    +0.141 C 
ATOM     15  C   UNL     1      33.259 -14.844 -25.817  0.00  0.00    +0.251 C 
ATOM     16  C   UNL     1      35.396 -18.101 -23.336  0.00  0.00    +0.004 C 
ATOM     17  C   UNL     1      35.392 -16.809 -20.801  0.00  0.00    +0.037 C 
ATOM     18  C   UNL     1      35.957 -18.715 -22.208  0.00  0.00    +0.000 C 
ATOM     19  C   UNL     1      35.954 -18.079 -20.964  0.00  0.00    +0.003 C 
ENDROOT
BRANCH   3  21
ATOM     20  S   UNL     1      31.654  -9.403 -18.975  0.00  0.00    -0.019 S 
ATOM     21  C   UNL     1      31.857  -9.257 -20.630  0.00  0.00    +0.135 C 
BRANCH  21  22
ATOM     22  N   UNL     1      31.702  -8.049 -21.261  0.00  0.00    -0.312 N 
ATOM     23  H   UNL     1      30.963  -7.974 -21.906  0.00  0.00    +0.149 HD
BRANCH  22  24
ATOM     24  C   UNL     1      32.525  -6.872 -21.063  0.00  0.00    +0.116 C 
BRANCH  24  27
ATOM     25  O   UNL     1      33.239  -4.646 -25.412  0.00  0.00    -0.435 OA
ATOM     26  O   UNL     1      35.451  -5.572 -25.654  0.00  0.00    -0.435 OA
ATOM     27  C   UNL     1      33.337  -6.543 -22.282  0.00  0.00    +0.001 C 
ATOM     28  C   UNL     1      32.802  -5.708 -23.257  0.00  0.00    +0.038 C 
ATOM     29  C   UNL     1      34.623  -7.086 -22.416  0.00  0.00    +0.001 C 
ATOM     30  C   UNL     1      33.586  -5.435 -24.359  0.00  0.00    +0.176 C 
ATOM     31  C   UNL     1      34.850  -5.963 -24.497  0.00  0.00    +0.176 C 
ATOM     32  C   UNL     1      35.397  -6.794 -23.540  0.00  0.00    +0.040 C 
ATOM     33  C   UNL     1      34.425  -4.736 -26.227  0.00  0.00    +0.429 C 
ENDBRANCH  24  27
ENDBRANCH  22  24
ENDBRANCH  21  22
ENDBRANCH   3  21
TORSDOF 4
ENDMDL
MODEL 4
REMARK VINA RESULT:     -10.8      3.120     11.499
REMARK  Name = 11282283
REMARK  4 active torsions:
REMARK  status: ('A' for Active; 'I' for Inactive)
REMARK    1  A    between atoms: N_3  and  C_21
REMARK    2  A    between atoms: C_21  and  N_22
REMARK    3  A    between atoms: N_22  and  C_24
REMARK    4  A    between atoms: C_24  and  C_27
REMARK                            x       y       z     vdW  Elec       q    Type
REMARK                         _______ _______ _______ _____ _____    ______ ____
ROOT
ATOM      1  O   UNL     1      34.229 -14.915 -21.952  0.00  0.00    -0.466 OA
ATOM      2  N   UNL     1      32.878 -12.514 -22.983  0.00  0.00    -0.290 N 
ATOM      3  N   UNL     1      32.191 -10.241 -21.355  0.00  0.00    -0.288 N 
ATOM      4  N   UNL     1      32.915 -13.637 -25.092  0.00  0.00    -0.230 NA
ATOM      5  N   UNL     1      33.892 -15.861 -25.350  0.00  0.00    -0.245 NA
ATOM      6  C   UNL     1      32.828 -11.165 -23.559  0.00  0.00    +0.113 C 
ATOM      7  C   UNL     1      32.570 -12.677 -21.558  0.00  0.00    +0.113 C 
ATOM      8  C   UNL     1      33.096 -10.110 -22.487  0.00  0.00    +0.114 C 
ATOM      9  C   UNL     1      31.647 -11.561 -21.073  0.00  0.00    +0.114 C 
ATOM     10  C   UNL     1      33.207 -13.614 -23.772  0.00  0.00    +0.152 C 
ATOM     11  C   UNL     1      33.842 -14.716 -23.238  0.00  0.00    +0.258 C 
ATOM     12  C   UNL     1      34.172 -15.811 -24.024  0.00  0.00    +0.106 C 
ATOM     13  C   UNL     1      34.803 -16.746 -23.164  0.00  0.00    +0.051 C 
ATOM     14  C   UNL     1      34.814 -16.148 -21.904  0.00  0.00    +0.141 C 
ATOM     15  C   UNL     1      33.271 -14.743 -25.789  0.00  0.00    +0.251 C 
ATOM     16  C   UNL     1      35.366 -18.026 -23.305  0.00  0.00    +0.004 C 
ATOM     17  C   UNL     1      35.352 -16.744 -20.765  0.00  0.00    +0.037 C 
ATOM     18  C   UNL     1      35.914 -18.648 -22.175  0.00  0.00    +0.000 C 
ATOM     19  C   UNL     1      35.906 -18.017 -20.929  0.00  0.00    +0.003 C 
ENDROOT
BRANCH   3  21
ATOM     20  S   UNL     1      31.634  -9.323 -18.939  0.00  0.00    -0.019 S 
ATOM     21  C   UNL     1      31.867  -9.169 -20.589  0.00  0.00    +0.135 C 
BRANCH  21  22
ATOM     22  N   UNL     1      31.739  -7.954 -21.214  0.00  0.00    -0.312 N 
ATOM     23  H   UNL     1      31.126  -7.910 -21.983  0.00  0.00    +0.149 HD
BRANCH  22  24
ATOM     24  C   UNL     1      32.422  -6.730 -20.845  0.00  0.00    +0.116 C 
BRANCH  24  27
ATOM     25  O   UNL     1      29.938  -2.630 -22.028  0.00  0.00    -0.435 OA
ATOM     26  O   UNL     1      31.027  -2.449 -24.170  0.00  0.00    -0.435 OA
ATOM     27  C   UNL     1      32.071  -5.593 -21.761  0.00  0.00    +0.001 C 
ATOM     28  C   UNL     1      31.122  -4.659 -21.362  0.00  0.00    +0.038 C 
ATOM     29  C   UNL     1      32.709  -5.495 -23.006  0.00  0.00    +0.001 C 
ATOM     30  C   UNL     1      30.834  -3.632 -22.238  0.00  0.00    +0.176 C 
ATOM     31  C   UNL     1      31.455  -3.529 -23.461  0.00  0.00    +0.176 C 
ATOM     32  C   UNL     1      32.400  -4.447 -23.875  0.00  0.00    +0.040 C 
ATOM     33  C   UNL     1      30.066  -1.884 -23.255  0.00  0.00    +0.429 C 
ENDBRANCH  24  27
ENDBRANCH  22  24
ENDBRANCH  21  22
ENDBRANCH   3  21
TORSDOF 4
ENDMDL
MODEL 5
REMARK VINA RESULT:     -10.7      6.166     12.975
REMARK  Name = 11282283
REMARK  4 active torsions:
REMARK  status: ('A' for Active; 'I' for Inactive)
REMARK    1  A    between atoms: N_3  and  C_21
REMARK    2  A    between atoms: C_21  and  N_22
REMARK    3  A    between atoms: N_22  and  C_24
REMARK    4  A    between atoms: C_24  and  C_27
REMARK                            x       y       z     vdW  Elec       q    Type
REMARK                         _______ _______ _______ _____ _____    ______ ____
ROOT
ATOM      1  O   UNL     1      36.960 -23.843 -15.447  0.00  0.00    -0.466 OA
ATOM      2  N   UNL     1      34.979 -22.375 -17.053  0.00  0.00    -0.290 N 
ATOM      3  N   UNL     1      35.640 -20.843 -19.399  0.00  0.00    -0.288 N 
ATOM      4  N   UNL     1      33.382 -23.199 -15.478  0.00  0.00    -0.230 NA
ATOM      5  N   UNL     1      34.036 -24.626 -13.607  0.00  0.00    -0.245 NA
ATOM      6  C   UNL     1      34.012 -22.219 -18.144  0.00  0.00    +0.113 C 
ATOM      7  C   UNL     1      36.291 -21.734 -17.185  0.00  0.00    +0.113 C 
ATOM      8  C   UNL     1      34.728 -21.976 -19.471  0.00  0.00    +0.114 C 
ATOM      9  C   UNL     1      36.207 -20.514 -18.100  0.00  0.00    +0.114 C 
ATOM     10  C   UNL     1      34.658 -23.114 -15.916  0.00  0.00    +0.152 C 
ATOM     11  C   UNL     1      35.626 -23.786 -15.199  0.00  0.00    +0.258 C 
ATOM     12  C   UNL     1      35.306 -24.523 -14.068  0.00  0.00    +0.106 C 
ATOM     13  C   UNL     1      36.524 -25.071 -13.589  0.00  0.00    +0.051 C 
ATOM     14  C   UNL     1      37.508 -24.624 -14.471  0.00  0.00    +0.141 C 
ATOM     15  C   UNL     1      33.153 -23.939 -14.366  0.00  0.00    +0.251 C 
ATOM     16  C   UNL     1      36.908 -25.891 -12.514  0.00  0.00    +0.004 C 
ATOM     17  C   UNL     1      38.860 -24.942 -14.353  0.00  0.00    +0.037 C 
ATOM     18  C   UNL     1      38.261 -26.226 -12.372  0.00  0.00    +0.000 C 
ATOM     19  C   UNL     1      39.218 -25.758 -13.277  0.00  0.00    +0.003 C 
ENDROOT
BRANCH   3  21
ATOM     20  S   UNL     1      37.463 -19.432 -20.692  0.00  0.00    -0.019 S 
ATOM     21  C   UNL     1      35.949 -20.121 -20.505  0.00  0.00    +0.135 C 
BRANCH  21  22
ATOM     22  N   UNL     1      34.980 -19.977 -21.465  0.00  0.00    -0.312 N 
ATOM     23  H   UNL     1      34.046 -20.104 -21.179  0.00  0.00    +0.149 HD
BRANCH  22  24
ATOM     24  C   UNL     1      35.203 -19.655 -22.861  0.00  0.00    +0.116 C 
BRANCH  24  27
ATOM     25  O   UNL     1      33.301 -16.035 -25.627  0.00  0.00    -0.435 OA
ATOM     26  O   UNL     1      34.022 -14.324 -24.090  0.00  0.00    -0.435 OA
ATOM     27  C   UNL     1      34.902 -18.215 -23.160  0.00  0.00    +0.001 C 
ATOM     28  C   UNL     1      34.211 -17.886 -24.321  0.00  0.00    +0.038 C 
ATOM     29  C   UNL     1      35.325 -17.226 -22.261  0.00  0.00    +0.001 C 
ATOM     30  C   UNL     1      33.958 -16.550 -24.552  0.00  0.00    +0.176 C 
ATOM     31  C   UNL     1      34.369 -15.573 -23.675  0.00  0.00    +0.176 C 
ATOM     32  C   UNL     1      35.057 -15.880 -22.518  0.00  0.00    +0.040 C 
ATOM     33  C   UNL     1      33.344 -14.625 -25.327  0.00  0.00    +0.429 C 
ENDBRANCH  24  27
ENDBRANCH  22  24
ENDBRANCH  21  22
ENDBRANCH   3  21
TORSDOF 4
ENDMDL
MODEL 6
REMARK VINA RESULT:     -10.7      2.221      3.632
REMARK  Name = 11282283
REMARK  4 active torsions:
REMARK  status: ('A' for Active; 'I' for Inactive)
REMARK    1  A    between atoms: N_3  and  C_21
REMARK    2  A    between atoms: C_21  and  N_22
REMARK    3  A    between atoms: N_22  and  C_24
REMARK    4  A    between atoms: C_24  and  C_27
REMARK                            x       y       z     vdW  Elec       q    Type
REMARK                         _______ _______ _______ _____ _____    ______ ____
ROOT
ATOM      1  O   UNL     1      32.688 -12.092 -20.899  0.00  0.00    -0.466 OA
ATOM      2  N   UNL     1      33.769 -13.573 -23.200  0.00  0.00    -0.290 N 
ATOM      3  N   UNL     1      34.577 -16.333 -23.089  0.00  0.00    -0.288 N 
ATOM      4  N   UNL     1      33.481 -11.527 -24.401  0.00  0.00    -0.230 NA
ATOM      5  N   UNL     1      32.579  -9.523 -23.336  0.00  0.00    -0.245 NA
ATOM      6  C   UNL     1      33.675 -14.431 -24.386  0.00  0.00    +0.113 C 
ATOM      7  C   UNL     1      34.284 -14.155 -21.955  0.00  0.00    +0.113 C 
ATOM      8  C   UNL     1      33.515 -15.895 -23.982  0.00  0.00    +0.114 C 
ATOM      9  C   UNL     1      35.215 -15.328 -22.253  0.00  0.00    +0.114 C 
ATOM     10  C   UNL     1      33.380 -12.235 -23.255  0.00  0.00    +0.152 C 
ATOM     11  C   UNL     1      32.878 -11.588 -22.145  0.00  0.00    +0.258 C 
ATOM     12  C   UNL     1      32.490 -10.257 -22.200  0.00  0.00    +0.106 C 
ATOM     13  C   UNL     1      32.030  -9.920 -20.901  0.00  0.00    +0.051 C 
ATOM     14  C   UNL     1      32.172 -11.080 -20.140  0.00  0.00    +0.141 C 
ATOM     15  C   UNL     1      33.080 -10.233 -24.372  0.00  0.00    +0.251 C 
ATOM     16  C   UNL     1      31.511  -8.771 -20.281  0.00  0.00    +0.004 C 
ATOM     17  C   UNL     1      31.830 -11.174 -18.792  0.00  0.00    +0.037 C 
ATOM     18  C   UNL     1      31.158  -8.837 -18.926  0.00  0.00    +0.000 C 
ATOM     19  C   UNL     1      31.316 -10.018 -18.197  0.00  0.00    +0.003 C 
ENDROOT
BRANCH   3  21
ATOM     20  S   UNL     1      34.603 -18.690 -24.287  0.00  0.00    -0.019 S 
ATOM     21  C   UNL     1      34.959 -17.635 -23.038  0.00  0.00    +0.135 C 
BRANCH  21  22
ATOM     22  N   UNL     1      35.649 -18.054 -21.929  0.00  0.00    -0.312 N 
ATOM     23  H   UNL     1      35.867 -17.371 -21.254  0.00  0.00    +0.149 HD
BRANCH  22  24
ATOM     24  C   UNL     1      36.084 -19.410 -21.658  0.00  0.00    +0.116 C 
BRANCH  24  27
ATOM     25  O   UNL     1      35.001 -22.720 -18.158  0.00  0.00    -0.435 OA
ATOM     26  O   UNL     1      32.655 -22.173 -18.204  0.00  0.00    -0.435 OA
ATOM     27  C   UNL     1      35.136 -20.132 -20.744  0.00  0.00    +0.001 C 
ATOM     28  C   UNL     1      35.626 -21.108 -19.882  0.00  0.00    +0.038 C 
ATOM     29  C   UNL     1      33.773 -19.808 -20.776  0.00  0.00    +0.001 C 
ATOM     30  C   UNL     1      34.716 -21.743 -19.061  0.00  0.00    +0.176 C 
ATOM     31  C   UNL     1      33.376 -21.431 -19.087  0.00  0.00    +0.176 C 
ATOM     32  C   UNL     1      32.872 -20.466 -19.936  0.00  0.00    +0.040 C 
ATOM     33  C   UNL     1      33.691 -22.987 -17.618  0.00  0.00    +0.429 C 
ENDBRANCH  24  27
ENDBRANCH  22  24
ENDBRANCH  21  22
ENDBRANCH   3  21
TORSDOF 4
ENDMDL
MODEL 7
REMARK VINA RESULT:     -10.4      2.803      4.464
REMARK  Name = 11282283
REMARK  4 active torsions:
REMARK  status: ('A' for Active; 'I' for Inactive)
REMARK    1  A    between atoms: N_3  and  C_21
REMARK    2  A    between atoms: C_21  and  N_22
REMARK    3  A    between atoms: N_22  and  C_24
REMARK    4  A    between atoms: C_24  and  C_27
REMARK                            x       y       z     vdW  Elec       q    Type
REMARK                         _______ _______ _______ _____ _____    ______ ____
ROOT
ATOM      1  O   UNL     1      33.473  -6.920 -24.298  0.00  0.00    -0.466 OA
ATOM      2  N   UNL     1      31.857  -8.440 -22.366  0.00  0.00    -0.290 N 
ATOM      3  N   UNL     1      32.250 -11.236 -21.802  0.00  0.00    -0.288 N 
ATOM      4  N   UNL     1      30.697  -6.381 -22.014  0.00  0.00    -0.230 NA
ATOM      5  N   UNL     1      31.299  -4.342 -23.214  0.00  0.00    -0.245 NA
ATOM      6  C   UNL     1      31.545  -8.990 -21.043  0.00  0.00    +0.113 C 
ATOM      7  C   UNL     1      32.376  -9.348 -23.396  0.00  0.00    +0.113 C 
ATOM      8  C   UNL     1      32.390 -10.230 -20.759  0.00  0.00    +0.114 C 
ATOM      9  C   UNL     1      31.907 -10.779 -23.140  0.00  0.00    +0.114 C 
ATOM     10  C   UNL     1      31.664  -7.088 -22.640  0.00  0.00    +0.152 C 
ATOM     11  C   UNL     1      32.452  -6.421 -23.555  0.00  0.00    +0.258 C 
ATOM     12  C   UNL     1      32.261  -5.074 -23.827  0.00  0.00    +0.106 C 
ATOM     13  C   UNL     1      33.230  -4.720 -24.802  0.00  0.00    +0.051 C 
ATOM     14  C   UNL     1      33.948  -5.888 -25.056  0.00  0.00    +0.141 C 
ATOM     15  C   UNL     1      30.575  -5.071 -22.335  0.00  0.00    +0.251 C 
ATOM     16  C   UNL     1      33.581  -3.550 -25.496  0.00  0.00    +0.004 C 
ATOM     17  C   UNL     1      35.003  -5.970 -25.964  0.00  0.00    +0.037 C 
ATOM     18  C   UNL     1      34.638  -3.605 -26.415  0.00  0.00    +0.000 C 
ATOM     19  C   UNL     1      35.335  -4.794 -26.643  0.00  0.00    +0.003 C 
ENDROOT
BRANCH   3  21
ATOM     20  S   UNL     1      32.281 -13.150 -19.979  0.00  0.00    -0.019 S 
ATOM     21  C   UNL     1      32.434 -12.553 -21.535  0.00  0.00    +0.135 C 
BRANCH  21  22
ATOM     22  N   UNL     1      32.747 -13.379 -22.585  0.00  0.00    -0.312 N 
ATOM     23  H   UNL     1      32.002 -13.857 -23.015  0.00  0.00    +0.149 HD
BRANCH  22  24
ATOM     24  C   UNL     1      34.074 -13.612 -23.120  0.00  0.00    +0.116 C 
BRANCH  24  27
ATOM     25  O   UNL     1      35.688 -17.590 -20.680  0.00  0.00    -0.435 OA
ATOM     26  O   UNL     1      35.582 -18.981 -22.645  0.00  0.00    -0.435 OA
ATOM     27  C   UNL     1      34.471 -15.057 -23.027  0.00  0.00    +0.001 C 
ATOM     28  C   UNL     1      34.896 -15.575 -21.808  0.00  0.00    +0.038 C 
ATOM     29  C   UNL     1      34.407 -15.860 -24.175  0.00  0.00    +0.001 C 
ATOM     30  C   UNL     1      35.250 -16.908 -21.773  0.00  0.00    +0.176 C 
ATOM     31  C   UNL     1      35.189 -17.703 -22.895  0.00  0.00    +0.176 C 
ATOM     32  C   UNL     1      34.771 -17.207 -24.113  0.00  0.00    +0.040 C 
ATOM     33  C   UNL     1      35.896 -18.903 -21.240  0.00  0.00    +0.429 C 
ENDBRANCH  24  27
ENDBRANCH  22  24
ENDBRANCH  21  22
ENDBRANCH   3  21
TORSDOF 4
ENDMDL
MODEL 8
REMARK VINA RESULT:     -10.3      6.653     13.377
REMARK  Name = 11282283
REMARK  4 active torsions:
REMARK  status: ('A' for Active; 'I' for Inactive)
REMARK    1  A    between atoms: N_3  and  C_21
REMARK    2  A    between atoms: C_21  and  N_22
REMARK    3  A    between atoms: N_22  and  C_24
REMARK    4  A    between atoms: C_24  and  C_27
REMARK                            x       y       z     vdW  Elec       q    Type
REMARK                         _______ _______ _______ _____ _____    ______ ____
ROOT
ATOM      1  O   UNL     1      37.508 -24.200 -15.319  0.00  0.00    -0.466 OA
ATOM      2  N   UNL     1      34.974 -22.912 -16.079  0.00  0.00    -0.290 N 
ATOM      3  N   UNL     1      34.548 -21.582 -18.597  0.00  0.00    -0.288 N 
ATOM      4  N   UNL     1      34.198 -23.620 -13.933  0.00  0.00    -0.230 NA
ATOM      5  N   UNL     1      35.626 -24.865 -12.393  0.00  0.00    -0.245 NA
ATOM      6  C   UNL     1      33.641 -22.868 -16.689  0.00  0.00    +0.113 C 
ATOM      7  C   UNL     1      36.086 -22.263 -16.783  0.00  0.00    +0.113 C 
ATOM      8  C   UNL     1      33.745 -22.731 -18.207  0.00  0.00    +0.114 C 
ATOM      9  C   UNL     1      35.575 -21.130 -17.671  0.00  0.00    +0.114 C 
ATOM     10  C   UNL     1      35.180 -23.553 -14.859  0.00  0.00    +0.152 C 
ATOM     11  C   UNL     1      36.388 -24.143 -14.553  0.00  0.00    +0.258 C 
ATOM     12  C   UNL     1      36.593 -24.783 -13.339  0.00  0.00    +0.106 C 
ATOM     13  C   UNL     1      37.927 -25.266 -13.360  0.00  0.00    +0.051 C 
ATOM     14  C   UNL     1      38.444 -24.882 -14.597  0.00  0.00    +0.141 C 
ATOM     15  C   UNL     1      34.477 -24.263 -12.774  0.00  0.00    +0.251 C 
ATOM     16  C   UNL     1      38.755 -25.982 -12.478  0.00  0.00    +0.004 C 
ATOM     17  C   UNL     1      39.742 -25.166 -15.019  0.00  0.00    +0.037 C 
ATOM     18  C   UNL     1      40.065 -26.280 -12.877  0.00  0.00    +0.000 C 
ATOM     19  C   UNL     1      40.547 -25.879 -14.125  0.00  0.00    +0.003 C 
ENDROOT
BRANCH   3  21
ATOM     20  S   UNL     1      32.814 -20.479 -20.259  0.00  0.00    -0.019 S 
ATOM     21  C   UNL     1      34.345 -20.955 -19.783  0.00  0.00    +0.135 C 
BRANCH  21  22
ATOM     22  N   UNL     1      35.440 -20.723 -20.577  0.00  0.00    -0.312 N 
ATOM     23  H   UNL     1      35.838 -21.503 -21.028  0.00  0.00    +0.149 HD
BRANCH  22  24
ATOM     24  C   UNL     1      36.064 -19.437 -20.814  0.00  0.00    +0.116 C 
BRANCH  24  27
ATOM     25  O   UNL     1      34.821 -15.405 -23.379  0.00  0.00    -0.435 OA
ATOM     26  O   UNL     1      33.880 -16.700 -25.180  0.00  0.00    -0.435 OA
ATOM     27  C   UNL     1      35.470 -18.734 -22.000  0.00  0.00    +0.001 C 
ATOM     28  C   UNL     1      35.471 -17.344 -22.044  0.00  0.00    +0.038 C 
ATOM     29  C   UNL     1      34.925 -19.494 -23.044  0.00  0.00    +0.001 C 
ATOM     30  C   UNL     1      34.915 -16.744 -23.156  0.00  0.00    +0.176 C 
ATOM     31  C   UNL     1      34.377 -17.483 -24.184  0.00  0.00    +0.176 C 
ATOM     32  C   UNL     1      34.367 -18.864 -24.158  0.00  0.00    +0.040 C 
ATOM     33  C   UNL     1      34.166 -15.384 -24.663  0.00  0.00    +0.429 C 
ENDBRANCH  24  27
ENDBRANCH  22  24
ENDBRANCH  21  22
ENDBRANCH   3  21
TORSDOF 4
ENDMDL
MODEL 9
REMARK VINA RESULT:     -10.2      3.499      5.864
REMARK  Name = 11282283
REMARK  4 active torsions:
REMARK  status: ('A' for Active; 'I' for Inactive)
REMARK    1  A    between atoms: N_3  and  C_21
REMARK    2  A    between atoms: C_21  and  N_22
REMARK    3  A    between atoms: N_22  and  C_24
REMARK    4  A    between atoms: C_24  and  C_27
REMARK                            x       y       z     vdW  Elec       q    Type
REMARK                         _______ _______ _______ _____ _____    ______ ____
ROOT
ATOM      1  O   UNL     1      31.897  -5.548 -24.643  0.00  0.00    -0.466 OA
ATOM      2  N   UNL     1      31.299  -6.939 -22.120  0.00  0.00    -0.290 N 
ATOM      3  N   UNL     1      31.840  -9.730 -21.665  0.00  0.00    -0.288 N 
ATOM      4  N   UNL     1      30.471  -4.824 -21.378  0.00  0.00    -0.230 NA
ATOM      5  N   UNL     1      30.511  -2.849 -22.815  0.00  0.00    -0.245 NA
ATOM      6  C   UNL     1      31.607  -7.434 -20.774  0.00  0.00    +0.113 C 
ATOM      7  C   UNL     1      31.273  -7.900 -23.229  0.00  0.00    +0.113 C 
ATOM      8  C   UNL     1      32.461  -8.699 -20.846  0.00  0.00    +0.114 C 
ATOM      9  C   UNL     1      30.938  -9.301 -22.722  0.00  0.00    +0.114 C 
ATOM     10  C   UNL     1      31.033  -5.589 -22.340  0.00  0.00    +0.152 C 
ATOM     11  C   UNL     1      31.336  -4.985 -23.543  0.00  0.00    +0.258 C 
ATOM     12  C   UNL     1      31.073  -3.640 -23.761  0.00  0.00    +0.106 C 
ATOM     13  C   UNL     1      31.503  -3.357 -25.084  0.00  0.00    +0.051 C 
ATOM     14  C   UNL     1      32.001  -4.562 -25.581  0.00  0.00    +0.141 C 
ATOM     15  C   UNL     1      30.248  -3.520 -21.670  0.00  0.00    +0.251 C 
ATOM     16  C   UNL     1      31.528  -2.226 -25.916  0.00  0.00    +0.004 C 
ATOM     17  C   UNL     1      32.527  -4.716 -26.862  0.00  0.00    +0.037 C 
ATOM     18  C   UNL     1      32.052  -2.352 -27.210  0.00  0.00    +0.000 C 
ATOM     19  C   UNL     1      32.541  -3.576 -27.672  0.00  0.00    +0.003 C 
ENDROOT
BRANCH   3  21
ATOM     20  S   UNL     1      32.022 -11.698 -19.909  0.00  0.00    -0.019 S 
ATOM     21  C   UNL     1      32.095 -11.045 -21.448  0.00  0.00    +0.135 C 
BRANCH  21  22
ATOM     22  N   UNL     1      32.412 -11.820 -22.535  0.00  0.00    -0.312 N 
ATOM     23  H   UNL     1      31.662 -12.212 -23.038  0.00  0.00    +0.149 HD
BRANCH  22  24
ATOM     24  C   UNL     1      33.749 -12.115 -23.012  0.00  0.00    +0.116 C 
BRANCH  24  27
ATOM     25  O   UNL     1      35.268 -16.799 -22.652  0.00  0.00    -0.435 OA
ATOM     26  O   UNL     1      34.269 -17.406 -24.759  0.00  0.00    -0.435 OA
ATOM     27  C   UNL     1      33.869 -13.526 -23.510  0.00  0.00    +0.001 C 
ATOM     28  C   UNL     1      34.557 -14.465 -22.748  0.00  0.00    +0.038 C 
ATOM     29  C   UNL     1      33.285 -13.871 -24.737  0.00  0.00    +0.001 C 
ATOM     30  C   UNL     1      34.640 -15.749 -23.248  0.00  0.00    +0.176 C 
ATOM     31  C   UNL     1      34.069 -16.096 -24.451  0.00  0.00    +0.176 C 
ATOM     32  C   UNL     1      33.384 -15.177 -25.221  0.00  0.00    +0.040 C 
ATOM     33  C   UNL     1      35.028 -17.846 -23.615  0.00  0.00    +0.429 C 
ENDBRANCH  24  27
ENDBRANCH  22  24
ENDBRANCH  21  22
ENDBRANCH   3  21
TORSDOF 4
ENDMDL
