MODEL 1
REMARK VINA RESULT:     -10.9      0.000      0.000
REMARK  Name = 16659285
REMARK  3 active torsions:
REMARK  status: ('A' for Active; 'I' for Inactive)
REMARK    1  A    between atoms: C_3  and  C_14
REMARK    2  A    between atoms: C_9  and  C_30
REMARK    3  A    between atoms: C_20  and  C_24
REMARK                            x       y       z     vdW  Elec       q    Type
REMARK                         _______ _______ _______ _____ _____    ______ ____
ROOT
ATOM      1  N   UNL     1      32.918  -8.410 -24.111  0.00  0.00    -0.315 N 
ATOM      2  N   UNL     1      31.316  -8.044 -22.615  0.00  0.00    -0.315 N 
ATOM      3  C   UNL     1      32.880 -11.884 -22.792  0.00  0.00    +0.001 C 
ATOM      4  C   UNL     1      32.728  -9.611 -23.476  0.00  0.00    +0.059 C 
ATOM      5  C   UNL     1      31.724  -9.356 -22.547  0.00  0.00    +0.059 C 
ATOM      6  C   UNL     1      33.332 -10.860 -23.630  0.00  0.00    +0.016 C 
ATOM      7  C   UNL     1      31.874 -11.660 -21.850  0.00  0.00    +0.001 C 
ATOM      8  C   UNL     1      31.282 -10.398 -21.713  0.00  0.00    +0.016 C 
ATOM      9  C   UNL     1      32.052  -7.507 -23.561  0.00  0.00    +0.168 C 
ATOM     10  H   UNL     1      33.563  -8.231 -24.833  0.00  0.00    +0.149 HD
ATOM     11  H   UNL     1      30.624  -7.603 -22.072  0.00  0.00    +0.149 HD
ENDROOT
BRANCH   3  14
ATOM     12  N   UNL     1      34.622 -16.195 -21.028  0.00  0.00    -0.315 N 
ATOM     13  N   UNL     1      35.140 -17.000 -23.033  0.00  0.00    -0.315 N 
ATOM     14  C   UNL     1      33.468 -13.203 -22.906  0.00  0.00    +0.001 C 
ATOM     15  C   UNL     1      34.266 -15.215 -21.919  0.00  0.00    +0.059 C 
ATOM     16  C   UNL     1      34.600 -15.741 -23.163  0.00  0.00    +0.059 C 
ATOM     17  C   UNL     1      33.699 -13.951 -21.748  0.00  0.00    +0.016 C 
ATOM     18  C   UNL     1      33.792 -13.704 -24.170  0.00  0.00    +0.001 C 
ATOM     19  C   UNL     1      34.360 -14.976 -24.316  0.00  0.00    +0.016 C 
ATOM     20  C   UNL     1      35.138 -17.240 -21.742  0.00  0.00    +0.168 C 
ATOM     21  H   UNL     1      34.523 -16.152 -20.049  0.00  0.00    +0.149 HD
ATOM     22  H   UNL     1      35.459 -17.592 -23.752  0.00  0.00    +0.149 HD
BRANCH  20  24
ATOM     23  N   UNL     1      36.525 -20.771 -19.853  0.00  0.00    -0.242 NA
ATOM     24  C   UNL     1      35.611 -18.443 -21.101  0.00  0.00    +0.017 C 
ATOM     25  C   UNL     1      36.972 -18.640 -20.901  0.00  0.00    +0.020 C 
ATOM     26  C   UNL     1      34.705 -19.410 -20.676  0.00  0.00    +0.020 C 
ATOM     27  C   UNL     1      37.375 -19.810 -20.278  0.00  0.00    +0.099 C 
ATOM     28  C   UNL     1      35.209 -20.545 -20.063  0.00  0.00    +0.099 C 
ENDBRANCH  20  24
ENDBRANCH   3  14
BRANCH   9  30
ATOM     29  N   UNL     1      31.877  -3.483 -24.880  0.00  0.00    -0.242 NA
ATOM     30  C   UNL     1      31.993  -6.136 -24.008  0.00  0.00    +0.017 C 
ATOM     31  C   UNL     1      33.125  -5.523 -24.532  0.00  0.00    +0.020 C 
ATOM     32  C   UNL     1      30.801  -5.423 -23.920  0.00  0.00    +0.020 C 
ATOM     33  C   UNL     1      33.016  -4.207 -24.950  0.00  0.00    +0.099 C 
ATOM     34  C   UNL     1      30.796  -4.112 -24.365  0.00  0.00    +0.099 C 
ENDBRANCH   9  30
TORSDOF 3
ENDMDL
MODEL 2
REMARK VINA RESULT:     -10.9      0.051     11.459
REMARK  Name = 16659285
REMARK  3 active torsions:
REMARK  status: ('A' for Active; 'I' for Inactive)
REMARK    1  A    between atoms: C_3  and  C_14
REMARK    2  A    between atoms: C_9  and  C_30
REMARK    3  A    between atoms: C_20  and  C_24
REMARK                            x       y       z     vdW  Elec       q    Type
REMARK                         _______ _______ _______ _____ _____    ______ ____
ROOT
ATOM      1  N   UNL     1      34.598 -16.201 -21.049  0.00  0.00    -0.315 N 
ATOM      2  N   UNL     1      35.144 -17.003 -23.048  0.00  0.00    -0.315 N 
ATOM      3  C   UNL     1      33.448 -13.216 -22.941  0.00  0.00    +0.001 C 
ATOM      4  C   UNL     1      34.246 -15.223 -21.944  0.00  0.00    +0.059 C 
ATOM      5  C   UNL     1      34.598 -15.748 -23.185  0.00  0.00    +0.059 C 
ATOM      6  C   UNL     1      33.670 -13.963 -21.780  0.00  0.00    +0.016 C 
ATOM      7  C   UNL     1      33.790 -13.716 -24.201  0.00  0.00    +0.001 C 
ATOM      8  C   UNL     1      34.367 -14.984 -24.342  0.00  0.00    +0.016 C 
ATOM      9  C   UNL     1      35.129 -17.243 -21.756  0.00  0.00    +0.168 C 
ATOM     10  H   UNL     1      34.486 -16.159 -20.071  0.00  0.00    +0.149 HD
ATOM     11  H   UNL     1      35.475 -17.593 -23.763  0.00  0.00    +0.149 HD
ENDROOT
BRANCH   3  14
ATOM     12  N   UNL     1      32.890  -8.424 -24.147  0.00  0.00    -0.315 N 
ATOM     13  N   UNL     1      31.263  -8.070 -22.676  0.00  0.00    -0.315 N 
ATOM     14  C   UNL     1      32.851 -11.901 -22.835  0.00  0.00    +0.001 C 
ATOM     15  C   UNL     1      32.697  -9.628 -23.518  0.00  0.00    +0.059 C 
ATOM     16  C   UNL     1      31.677  -9.380 -22.603  0.00  0.00    +0.059 C 
ATOM     17  C   UNL     1      33.310 -10.873 -23.664  0.00  0.00    +0.016 C 
ATOM     18  C   UNL     1      31.829 -11.683 -21.907  0.00  0.00    +0.001 C 
ATOM     19  C   UNL     1      31.229 -10.425 -21.778  0.00  0.00    +0.016 C 
ATOM     20  C   UNL     1      32.010  -7.527 -23.610  0.00  0.00    +0.168 C 
ATOM     21  H   UNL     1      33.545  -8.241 -24.860  0.00  0.00    +0.149 HD
ATOM     22  H   UNL     1      30.560  -7.634 -22.142  0.00  0.00    +0.149 HD
BRANCH  20  24
ATOM     23  N   UNL     1      31.836  -3.498 -24.912  0.00  0.00    -0.242 NA
ATOM     24  C   UNL     1      31.950  -6.156 -24.056  0.00  0.00    +0.017 C 
ATOM     25  C   UNL     1      30.757  -5.448 -23.977  0.00  0.00    +0.020 C 
ATOM     26  C   UNL     1      33.088  -5.536 -24.563  0.00  0.00    +0.020 C 
ATOM     27  C   UNL     1      30.752  -4.133 -24.414  0.00  0.00    +0.099 C 
ATOM     28  C   UNL     1      32.978  -4.218 -24.974  0.00  0.00    +0.099 C 
ENDBRANCH  20  24
ENDBRANCH   3  14
BRANCH   9  30
ATOM     29  N   UNL     1      36.514 -20.766 -19.851  0.00  0.00    -0.242 NA
ATOM     30  C   UNL     1      35.600 -18.444 -21.110  0.00  0.00    +0.017 C 
ATOM     31  C   UNL     1      36.958 -18.622 -20.875  0.00  0.00    +0.020 C 
ATOM     32  C   UNL     1      34.697 -19.425 -20.715  0.00  0.00    +0.020 C 
ATOM     33  C   UNL     1      37.361 -19.790 -20.248  0.00  0.00    +0.099 C 
ATOM     34  C   UNL     1      35.201 -20.557 -20.095  0.00  0.00    +0.099 C 
ENDBRANCH   9  30
TORSDOF 3
ENDMDL
MODEL 3
REMARK VINA RESULT:     -10.9      0.036      1.215
REMARK  Name = 16659285
REMARK  3 active torsions:
REMARK  status: ('A' for Active; 'I' for Inactive)
REMARK    1  A    between atoms: C_3  and  C_14
REMARK    2  A    between atoms: C_9  and  C_30
REMARK    3  A    between atoms: C_20  and  C_24
REMARK                            x       y       z     vdW  Elec       q    Type
REMARK                         _______ _______ _______ _____ _____    ______ ____
ROOT
ATOM      1  N   UNL     1      32.892  -8.397 -24.135  0.00  0.00    -0.315 N 
ATOM      2  N   UNL     1      31.313  -8.022 -22.617  0.00  0.00    -0.315 N 
ATOM      3  C   UNL     1      32.871 -11.864 -22.796  0.00  0.00    +0.001 C 
ATOM      4  C   UNL     1      32.711  -9.595 -23.491  0.00  0.00    +0.059 C 
ATOM      5  C   UNL     1      31.721  -9.334 -22.547  0.00  0.00    +0.059 C 
ATOM      6  C   UNL     1      33.311 -10.845 -23.647  0.00  0.00    +0.016 C 
ATOM      7  C   UNL     1      31.880 -11.633 -21.840  0.00  0.00    +0.001 C 
ATOM      8  C   UNL     1      31.291 -10.370 -21.701  0.00  0.00    +0.016 C 
ATOM      9  C   UNL     1      32.034  -7.490 -23.577  0.00  0.00    +0.168 C 
ATOM     10  H   UNL     1      33.525  -8.223 -24.868  0.00  0.00    +0.149 HD
ATOM     11  H   UNL     1      30.629  -7.577 -22.065  0.00  0.00    +0.149 HD
ENDROOT
BRANCH   3  14
ATOM     12  N   UNL     1      34.612 -16.177 -21.036  0.00  0.00    -0.315 N 
ATOM     13  N   UNL     1      35.121 -16.984 -23.043  0.00  0.00    -0.315 N 
ATOM     14  C   UNL     1      33.456 -13.184 -22.912  0.00  0.00    +0.001 C 
ATOM     15  C   UNL     1      34.255 -15.197 -21.926  0.00  0.00    +0.059 C 
ATOM     16  C   UNL     1      34.583 -15.724 -23.172  0.00  0.00    +0.059 C 
ATOM     17  C   UNL     1      33.690 -13.932 -21.753  0.00  0.00    +0.016 C 
ATOM     18  C   UNL     1      33.775 -13.686 -24.176  0.00  0.00    +0.001 C 
ATOM     19  C   UNL     1      34.341 -14.959 -24.324  0.00  0.00    +0.016 C 
ATOM     20  C   UNL     1      35.124 -17.223 -21.751  0.00  0.00    +0.168 C 
ATOM     21  H   UNL     1      34.516 -16.134 -20.057  0.00  0.00    +0.149 HD
ATOM     22  H   UNL     1      35.437 -17.577 -23.762  0.00  0.00    +0.149 HD
BRANCH  20  24
ATOM     23  N   UNL     1      36.512 -20.762 -19.878  0.00  0.00    -0.242 NA
ATOM     24  C   UNL     1      35.597 -18.427 -21.111  0.00  0.00    +0.017 C 
ATOM     25  C   UNL     1      34.697 -19.419 -20.740  0.00  0.00    +0.020 C 
ATOM     26  C   UNL     1      36.955 -18.602 -20.868  0.00  0.00    +0.020 C 
ATOM     27  C   UNL     1      35.201 -20.558 -20.132  0.00  0.00    +0.099 C 
ATOM     28  C   UNL     1      37.358 -19.776 -20.254  0.00  0.00    +0.099 C 
ENDBRANCH  20  24
ENDBRANCH   3  14
BRANCH   9  30
ATOM     29  N   UNL     1      31.845  -3.469 -24.903  0.00  0.00    -0.242 NA
ATOM     30  C   UNL     1      31.969  -6.122 -24.031  0.00  0.00    +0.017 C 
ATOM     31  C   UNL     1      30.772  -5.420 -23.962  0.00  0.00    +0.020 C 
ATOM     32  C   UNL     1      33.106  -5.499 -24.536  0.00  0.00    +0.020 C 
ATOM     33  C   UNL     1      30.762  -4.108 -24.406  0.00  0.00    +0.099 C 
ATOM     34  C   UNL     1      32.991  -4.183 -24.955  0.00  0.00    +0.099 C 
ENDBRANCH   9  30
TORSDOF 3
ENDMDL
MODEL 4
REMARK VINA RESULT:     -10.7      1.262     11.313
REMARK  Name = 16659285
REMARK  3 active torsions:
REMARK  status: ('A' for Active; 'I' for Inactive)
REMARK    1  A    between atoms: C_3  and  C_14
REMARK    2  A    between atoms: C_9  and  C_30
REMARK    3  A    between atoms: C_20  and  C_24
REMARK                            x       y       z     vdW  Elec       q    Type
REMARK                         _______ _______ _______ _____ _____    ______ ____
ROOT
ATOM      1  N   UNL     1      35.116 -15.931 -21.420  0.00  0.00    -0.315 N 
ATOM      2  N   UNL     1      34.463 -17.095 -23.197  0.00  0.00    -0.315 N 
ATOM      3  C   UNL     1      34.122 -12.965 -23.426  0.00  0.00    +0.001 C 
ATOM      4  C   UNL     1      34.689 -14.999 -22.331  0.00  0.00    +0.059 C 
ATOM      5  C   UNL     1      34.287 -15.751 -23.432  0.00  0.00    +0.059 C 
ATOM      6  C   UNL     1      34.622 -13.606 -22.288  0.00  0.00    +0.016 C 
ATOM      7  C   UNL     1      33.710 -13.691 -24.546  0.00  0.00    +0.001 C 
ATOM      8  C   UNL     1      33.786 -15.089 -24.566  0.00  0.00    +0.016 C 
ATOM      9  C   UNL     1      34.962 -17.167 -21.984  0.00  0.00    +0.168 C 
ATOM     10  H   UNL     1      35.471 -15.743 -20.521  0.00  0.00    +0.149 HD
ATOM     11  H   UNL     1      34.261 -17.841 -23.807  0.00  0.00    +0.149 HD
ENDROOT
BRANCH   3  14
ATOM     12  N   UNL     1      31.827  -8.604 -22.754  0.00  0.00    -0.315 N 
ATOM     13  N   UNL     1      33.571  -7.394 -23.412  0.00  0.00    -0.315 N 
ATOM     14  C   UNL     1      34.028 -11.520 -23.440  0.00  0.00    +0.001 C 
ATOM     15  C   UNL     1      32.804  -9.513 -23.071  0.00  0.00    +0.059 C 
ATOM     16  C   UNL     1      33.883  -8.733 -23.479  0.00  0.00    +0.059 C 
ATOM     17  C   UNL     1      32.837 -10.908 -23.037  0.00  0.00    +0.016 C 
ATOM     18  C   UNL     1      35.127 -10.764 -23.855  0.00  0.00    +0.001 C 
ATOM     19  C   UNL     1      35.071  -9.365 -23.881  0.00  0.00    +0.016 C 
ATOM     20  C   UNL     1      32.333  -7.354 -22.974  0.00  0.00    +0.168 C 
ATOM     21  H   UNL     1      30.923  -8.816 -22.426  0.00  0.00    +0.149 HD
ATOM     22  H   UNL     1      34.150  -6.632 -23.643  0.00  0.00    +0.149 HD
BRANCH  20  24
ATOM     23  N   UNL     1      30.042  -3.857 -22.276  0.00  0.00    -0.242 NA
ATOM     24  C   UNL     1      31.555  -6.162 -22.735  0.00  0.00    +0.017 C 
ATOM     25  C   UNL     1      31.469  -5.178 -23.712  0.00  0.00    +0.020 C 
ATOM     26  C   UNL     1      30.884  -5.996 -21.528  0.00  0.00    +0.020 C 
ATOM     27  C   UNL     1      30.707  -4.054 -23.436  0.00  0.00    +0.099 C 
ATOM     28  C   UNL     1      30.148  -4.836 -21.350  0.00  0.00    +0.099 C 
ENDBRANCH  20  24
ENDBRANCH   3  14
BRANCH   9  30
ATOM     29  N   UNL     1      36.010 -20.722 -19.930  0.00  0.00    -0.242 NA
ATOM     30  C   UNL     1      35.318 -18.376 -21.282  0.00  0.00    +0.017 C 
ATOM     31  C   UNL     1      34.341 -19.310 -20.960  0.00  0.00    +0.020 C 
ATOM     32  C   UNL     1      36.643 -18.614 -20.930  0.00  0.00    +0.020 C 
ATOM     33  C   UNL     1      34.735 -20.457 -20.289  0.00  0.00    +0.099 C 
ATOM     34  C   UNL     1      36.933 -19.792 -20.261  0.00  0.00    +0.099 C 
ENDBRANCH   9  30
TORSDOF 3
ENDMDL
MODEL 5
REMARK VINA RESULT:     -10.6      1.253      2.094
REMARK  Name = 16659285
REMARK  3 active torsions:
REMARK  status: ('A' for Active; 'I' for Inactive)
REMARK    1  A    between atoms: C_3  and  C_14
REMARK    2  A    between atoms: C_9  and  C_30
REMARK    3  A    between atoms: C_20  and  C_24
REMARK                            x       y       z     vdW  Elec       q    Type
REMARK                         _______ _______ _______ _____ _____    ______ ____
ROOT
ATOM      1  N   UNL     1      31.827  -8.645 -22.748  0.00  0.00    -0.315 N 
ATOM      2  N   UNL     1      33.533  -7.433 -23.496  0.00  0.00    -0.315 N 
ATOM      3  C   UNL     1      34.015 -11.555 -23.493  0.00  0.00    +0.001 C 
ATOM      4  C   UNL     1      32.796  -9.552 -23.096  0.00  0.00    +0.059 C 
ATOM      5  C   UNL     1      33.850  -8.770 -23.560  0.00  0.00    +0.059 C 
ATOM      6  C   UNL     1      32.839 -10.946 -23.046  0.00  0.00    +0.016 C 
ATOM      7  C   UNL     1      35.090 -10.798 -23.964  0.00  0.00    +0.001 C 
ATOM      8  C   UNL     1      35.025  -9.400 -24.005  0.00  0.00    +0.016 C 
ATOM      9  C   UNL     1      32.315  -7.394 -23.006  0.00  0.00    +0.168 C 
ATOM     10  H   UNL     1      30.939  -8.858 -22.379  0.00  0.00    +0.149 HD
ATOM     11  H   UNL     1      34.096  -6.670 -23.761  0.00  0.00    +0.149 HD
ENDROOT
BRANCH   3  14
ATOM     12  N   UNL     1      35.133 -15.940 -21.430  0.00  0.00    -0.315 N 
ATOM     13  N   UNL     1      34.489 -17.125 -23.197  0.00  0.00    -0.315 N 
ATOM     14  C   UNL     1      34.119 -12.999 -23.465  0.00  0.00    +0.001 C 
ATOM     15  C   UNL     1      34.700 -15.020 -22.351  0.00  0.00    +0.059 C 
ATOM     16  C   UNL     1      34.304 -15.784 -23.444  0.00  0.00    +0.059 C 
ATOM     17  C   UNL     1      34.624 -13.626 -22.321  0.00  0.00    +0.016 C 
ATOM     18  C   UNL     1      33.714 -13.739 -24.578  0.00  0.00    +0.001 C 
ATOM     19  C   UNL     1      33.799 -15.137 -24.585  0.00  0.00    +0.016 C 
ATOM     20  C   UNL     1      34.987 -17.182 -21.982  0.00  0.00    +0.168 C 
ATOM     21  H   UNL     1      35.486 -15.741 -20.533  0.00  0.00    +0.149 HD
ATOM     22  H   UNL     1      34.293 -17.878 -23.799  0.00  0.00    +0.149 HD
BRANCH  20  24
ATOM     23  N   UNL     1      36.059 -20.711 -19.895  0.00  0.00    -0.242 NA
ATOM     24  C   UNL     1      35.352 -18.382 -21.269  0.00  0.00    +0.017 C 
ATOM     25  C   UNL     1      34.377 -19.304 -20.911  0.00  0.00    +0.020 C 
ATOM     26  C   UNL     1      36.682 -18.623 -20.942  0.00  0.00    +0.020 C 
ATOM     27  C   UNL     1      34.778 -20.443 -20.231  0.00  0.00    +0.099 C 
ATOM     28  C   UNL     1      36.981 -19.791 -20.260  0.00  0.00    +0.099 C 
ENDBRANCH  20  24
ENDBRANCH   3  14
BRANCH   9  30
ATOM     29  N   UNL     1      30.045  -3.897 -22.246  0.00  0.00    -0.242 NA
ATOM     30  C   UNL     1      31.540  -6.204 -22.748  0.00  0.00    +0.017 C 
ATOM     31  C   UNL     1      30.785  -6.101 -21.586  0.00  0.00    +0.020 C 
ATOM     32  C   UNL     1      31.549  -5.154 -23.660  0.00  0.00    +0.020 C 
ATOM     33  C   UNL     1      30.061  -4.937 -21.383  0.00  0.00    +0.099 C 
ATOM     34  C   UNL     1      30.791  -4.033 -23.365  0.00  0.00    +0.099 C 
ENDBRANCH   9  30
TORSDOF 3
ENDMDL
MODEL 6
REMARK VINA RESULT:     -10.6      5.193     10.162
REMARK  Name = 16659285
REMARK  3 active torsions:
REMARK  status: ('A' for Active; 'I' for Inactive)
REMARK    1  A    between atoms: C_3  and  C_14
REMARK    2  A    between atoms: C_9  and  C_30
REMARK    3  A    between atoms: C_20  and  C_24
REMARK                            x       y       z     vdW  Elec       q    Type
REMARK                         _______ _______ _______ _____ _____    ______ ____
ROOT
ATOM      1  N   UNL     1      34.145 -17.916 -21.710  0.00  0.00    -0.315 N 
ATOM      2  N   UNL     1      36.238 -17.634 -22.402  0.00  0.00    -0.315 N 
ATOM      3  C   UNL     1      35.592 -20.535 -19.505  0.00  0.00    +0.001 C 
ATOM      4  C   UNL     1      34.892 -18.820 -20.997  0.00  0.00    +0.059 C 
ATOM      5  C   UNL     1      36.194 -18.625 -21.448  0.00  0.00    +0.059 C 
ATOM      6  C   UNL     1      34.549 -19.764 -20.028  0.00  0.00    +0.016 C 
ATOM      7  C   UNL     1      36.909 -20.363 -19.937  0.00  0.00    +0.001 C 
ATOM      8  C   UNL     1      37.229 -19.409 -20.911  0.00  0.00    +0.016 C 
ATOM      9  C   UNL     1      34.994 -17.232 -22.534  0.00  0.00    +0.168 C 
ATOM     10  H   UNL     1      33.172 -17.783 -21.638  0.00  0.00    +0.149 HD
ATOM     11  H   UNL     1      37.030 -17.300 -22.882  0.00  0.00    +0.149 HD
ENDROOT
BRANCH   3  14
ATOM     12  N   UNL     1      36.499 -23.143 -15.369  0.00  0.00    -0.315 N 
ATOM     13  N   UNL     1      34.627 -24.333 -15.507  0.00  0.00    -0.315 N 
ATOM     14  C   UNL     1      35.298 -21.530 -18.495  0.00  0.00    +0.001 C 
ATOM     15  C   UNL     1      35.864 -22.697 -16.500  0.00  0.00    +0.059 C 
ATOM     16  C   UNL     1      34.699 -23.456 -16.565  0.00  0.00    +0.059 C 
ATOM     17  C   UNL     1      36.200 -21.726 -17.444  0.00  0.00    +0.016 C 
ATOM     18  C   UNL     1      34.120 -22.276 -18.586  0.00  0.00    +0.001 C 
ATOM     19  C   UNL     1      33.804 -23.246 -17.627  0.00  0.00    +0.016 C 
ATOM     20  C   UNL     1      35.721 -24.119 -14.812  0.00  0.00    +0.168 C 
ATOM     21  H   UNL     1      37.361 -22.818 -15.022  0.00  0.00    +0.149 HD
ATOM     22  H   UNL     1      33.912 -24.981 -15.314  0.00  0.00    +0.149 HD
BRANCH  20  24
ATOM     23  N   UNL     1      36.850 -26.117 -11.249  0.00  0.00    -0.242 NA
ATOM     24  C   UNL     1      36.104 -24.801 -13.599  0.00  0.00    +0.017 C 
ATOM     25  C   UNL     1      36.928 -25.918 -13.657  0.00  0.00    +0.020 C 
ATOM     26  C   UNL     1      35.652 -24.340 -12.367  0.00  0.00    +0.020 C 
ATOM     27  C   UNL     1      37.270 -26.535 -12.464  0.00  0.00    +0.099 C 
ATOM     28  C   UNL     1      36.050 -25.028 -11.232  0.00  0.00    +0.099 C 
ENDBRANCH  20  24
ENDBRANCH   3  14
BRANCH   9  30
ATOM     29  N   UNL     1      33.613 -14.194 -25.145  0.00  0.00    -0.242 NA
ATOM     30  C   UNL     1      34.526 -16.197 -23.424  0.00  0.00    +0.017 C 
ATOM     31  C   UNL     1      34.043 -16.527 -24.684  0.00  0.00    +0.020 C 
ATOM     32  C   UNL     1      34.553 -14.866 -23.022  0.00  0.00    +0.020 C 
ATOM     33  C   UNL     1      33.601 -15.498 -25.500  0.00  0.00    +0.099 C 
ATOM     34  C   UNL     1      34.089 -13.911 -23.912  0.00  0.00    +0.099 C 
ENDBRANCH   9  30
TORSDOF 3
ENDMDL
MODEL 7
REMARK VINA RESULT:     -10.1      1.891      2.799
REMARK  Name = 16659285
REMARK  3 active torsions:
REMARK  status: ('A' for Active; 'I' for Inactive)
REMARK    1  A    between atoms: C_3  and  C_14
REMARK    2  A    between atoms: C_9  and  C_30
REMARK    3  A    between atoms: C_20  and  C_24
REMARK                            x       y       z     vdW  Elec       q    Type
REMARK                         _______ _______ _______ _____ _____    ______ ____
ROOT
ATOM      1  N   UNL     1      32.450 -10.615 -21.825  0.00  0.00    -0.315 N 
ATOM      2  N   UNL     1      33.247  -9.583 -23.624  0.00  0.00    -0.315 N 
ATOM      3  C   UNL     1      34.056 -13.639 -23.270  0.00  0.00    +0.001 C 
ATOM      4  C   UNL     1      33.112 -11.582 -22.538  0.00  0.00    +0.059 C 
ATOM      5  C   UNL     1      33.600 -10.913 -23.657  0.00  0.00    +0.059 C 
ATOM      6  C   UNL     1      33.318 -12.943 -22.308  0.00  0.00    +0.016 C 
ATOM      7  C   UNL     1      34.559 -12.995 -24.403  0.00  0.00    +0.001 C 
ATOM      8  C   UNL     1      34.340 -11.628 -24.614  0.00  0.00    +0.016 C 
ATOM      9  C   UNL     1      32.559  -9.440 -22.514  0.00  0.00    +0.168 C 
ATOM     10  H   UNL     1      31.980 -10.745 -20.969  0.00  0.00    +0.149 HD
ATOM     11  H   UNL     1      33.462  -8.890 -24.289  0.00  0.00    +0.149 HD
ENDROOT
BRANCH   3  14
ATOM     12  N   UNL     1      34.852 -17.748 -20.585  0.00  0.00    -0.315 N 
ATOM     13  N   UNL     1      35.013 -19.078 -22.359  0.00  0.00    -0.315 N 
ATOM     14  C   UNL     1      34.304 -15.054 -23.085  0.00  0.00    +0.001 C 
ATOM     15  C   UNL     1      34.673 -16.932 -21.673  0.00  0.00    +0.059 C 
ATOM     16  C   UNL     1      34.779 -17.785 -22.767  0.00  0.00    +0.059 C 
ATOM     17  C   UNL     1      34.436 -15.561 -21.789  0.00  0.00    +0.016 C 
ATOM     18  C   UNL     1      34.406 -15.885 -24.204  0.00  0.00    +0.001 C 
ATOM     19  C   UNL     1      34.644 -17.257 -24.062  0.00  0.00    +0.016 C 
ATOM     20  C   UNL     1      35.051 -19.019 -21.047  0.00  0.00    +0.168 C 
ATOM     21  H   UNL     1      34.838 -17.468 -19.642  0.00  0.00    +0.149 HD
ATOM     22  H   UNL     1      35.129 -19.874 -22.926  0.00  0.00    +0.149 HD
BRANCH  20  24
ATOM     23  N   UNL     1      35.694 -22.279 -18.416  0.00  0.00    -0.242 NA
ATOM     24  C   UNL     1      35.270 -20.131 -20.153  0.00  0.00    +0.017 C 
ATOM     25  C   UNL     1      36.548 -20.404 -19.680  0.00  0.00    +0.020 C 
ATOM     26  C   UNL     1      34.203 -20.930 -19.757  0.00  0.00    +0.020 C 
ATOM     27  C   UNL     1      36.706 -21.480 -18.821  0.00  0.00    +0.099 C 
ATOM     28  C   UNL     1      34.466 -21.982 -18.896  0.00  0.00    +0.099 C 
ENDBRANCH  20  24
ENDBRANCH   3  14
BRANCH   9  30
ATOM     29  N   UNL     1      30.836  -5.835 -21.101  0.00  0.00    -0.242 NA
ATOM     30  C   UNL     1      31.970  -8.214 -22.032  0.00  0.00    +0.017 C 
ATOM     31  C   UNL     1      32.292  -7.735 -20.768  0.00  0.00    +0.020 C 
ATOM     32  C   UNL     1      31.081  -7.504 -22.832  0.00  0.00    +0.020 C 
ATOM     33  C   UNL     1      31.704  -6.552 -20.352  0.00  0.00    +0.099 C 
ATOM     34  C   UNL     1      30.547  -6.332 -22.324  0.00  0.00    +0.099 C 
ENDBRANCH   9  30
TORSDOF 3
ENDMDL
MODEL 8
REMARK VINA RESULT:     -10.0      1.888     11.347
REMARK  Name = 16659285
REMARK  3 active torsions:
REMARK  status: ('A' for Active; 'I' for Inactive)
REMARK    1  A    between atoms: C_3  and  C_14
REMARK    2  A    between atoms: C_9  and  C_30
REMARK    3  A    between atoms: C_20  and  C_24
REMARK                            x       y       z     vdW  Elec       q    Type
REMARK                         _______ _______ _______ _____ _____    ______ ____
ROOT
ATOM      1  N   UNL     1      34.891 -17.715 -20.621  0.00  0.00    -0.315 N 
ATOM      2  N   UNL     1      35.036 -19.044 -22.396  0.00  0.00    -0.315 N 
ATOM      3  C   UNL     1      34.314 -15.021 -23.116  0.00  0.00    +0.001 C 
ATOM      4  C   UNL     1      34.700 -16.899 -21.707  0.00  0.00    +0.059 C 
ATOM      5  C   UNL     1      34.796 -17.752 -22.803  0.00  0.00    +0.059 C 
ATOM      6  C   UNL     1      34.460 -15.528 -21.821  0.00  0.00    +0.016 C 
ATOM      7  C   UNL     1      34.405 -15.853 -24.235  0.00  0.00    +0.001 C 
ATOM      8  C   UNL     1      34.646 -17.225 -24.097  0.00  0.00    +0.016 C 
ATOM      9  C   UNL     1      35.087 -18.986 -21.085  0.00  0.00    +0.168 C 
ATOM     10  H   UNL     1      34.886 -17.434 -19.677  0.00  0.00    +0.149 HD
ATOM     11  H   UNL     1      35.147 -19.840 -22.965  0.00  0.00    +0.149 HD
ENDROOT
BRANCH   3  14
ATOM     12  N   UNL     1      32.481 -10.582 -21.828  0.00  0.00    -0.315 N 
ATOM     13  N   UNL     1      33.244  -9.552 -23.644  0.00  0.00    -0.315 N 
ATOM     14  C   UNL     1      34.062 -13.607 -23.298  0.00  0.00    +0.001 C 
ATOM     15  C   UNL     1      33.130 -11.549 -22.552  0.00  0.00    +0.059 C 
ATOM     16  C   UNL     1      33.597 -10.882 -23.681  0.00  0.00    +0.059 C 
ATOM     17  C   UNL     1      33.341 -12.910 -22.323  0.00  0.00    +0.016 C 
ATOM     18  C   UNL     1      34.543 -12.965 -24.442  0.00  0.00    +0.001 C 
ATOM     19  C   UNL     1      34.319 -11.598 -24.649  0.00  0.00    +0.016 C 
ATOM     20  C   UNL     1      32.577  -9.408 -22.521  0.00  0.00    +0.168 C 
ATOM     21  H   UNL     1      32.028 -10.711 -20.963  0.00  0.00    +0.149 HD
ATOM     22  H   UNL     1      33.446  -8.860 -24.314  0.00  0.00    +0.149 HD
BRANCH  20  24
ATOM     23  N   UNL     1      30.867  -5.809 -21.076  0.00  0.00    -0.242 NA
ATOM     24  C   UNL     1      31.997  -8.181 -22.030  0.00  0.00    +0.017 C 
ATOM     25  C   UNL     1      31.072  -7.488 -22.802  0.00  0.00    +0.020 C 
ATOM     26  C   UNL     1      32.358  -7.689 -20.780  0.00  0.00    +0.020 C 
ATOM     27  C   UNL     1      30.541  -6.318 -22.285  0.00  0.00    +0.099 C 
ATOM     28  C   UNL     1      31.769  -6.510 -20.353  0.00  0.00    +0.099 C 
ENDBRANCH  20  24
ENDBRANCH   3  14
BRANCH   9  30
ATOM     29  N   UNL     1      35.763 -22.244 -18.460  0.00  0.00    -0.242 NA
ATOM     30  C   UNL     1      35.318 -20.097 -20.193  0.00  0.00    +0.017 C 
ATOM     31  C   UNL     1      36.598 -20.360 -19.723  0.00  0.00    +0.020 C 
ATOM     32  C   UNL     1      34.258 -20.905 -19.797  0.00  0.00    +0.020 C 
ATOM     33  C   UNL     1      36.767 -21.436 -18.866  0.00  0.00    +0.099 C 
ATOM     34  C   UNL     1      34.531 -21.957 -18.937  0.00  0.00    +0.099 C 
ENDBRANCH   9  30
TORSDOF 3
ENDMDL
MODEL 9
REMARK VINA RESULT:      -9.8      2.390     12.092
REMARK  Name = 16659285
REMARK  3 active torsions:
REMARK  status: ('A' for Active; 'I' for Inactive)
REMARK    1  A    between atoms: C_3  and  C_14
REMARK    2  A    between atoms: C_9  and  C_30
REMARK    3  A    between atoms: C_20  and  C_24
REMARK                            x       y       z     vdW  Elec       q    Type
REMARK                         _______ _______ _______ _____ _____    ______ ____
ROOT
ATOM      1  N   UNL     1      34.351 -20.254 -19.351  0.00  0.00    -0.315 N 
ATOM      2  N   UNL     1      36.417 -21.030 -19.611  0.00  0.00    -0.315 N 
ATOM      3  C   UNL     1      35.368 -17.693 -21.845  0.00  0.00    +0.001 C 
ATOM      4  C   UNL     1      34.941 -19.425 -20.271  0.00  0.00    +0.059 C 
ATOM      5  C   UNL     1      36.230 -19.930 -20.416  0.00  0.00    +0.059 C 
ATOM      6  C   UNL     1      34.471 -18.309 -20.967  0.00  0.00    +0.016 C 
ATOM      7  C   UNL     1      36.668 -18.176 -22.012  0.00  0.00    +0.001 C 
ATOM      8  C   UNL     1      37.117 -19.298 -21.303  0.00  0.00    +0.016 C 
ATOM      9  C   UNL     1      35.272 -21.196 -18.988  0.00  0.00    +0.168 C 
ATOM     10  H   UNL     1      33.429 -20.183 -19.014  0.00  0.00    +0.149 HD
ATOM     11  H   UNL     1      37.232 -21.574 -19.521  0.00  0.00    +0.149 HD
ENDROOT
BRANCH   3  14
ATOM     12  N   UNL     1      34.354 -12.864 -22.462  0.00  0.00    -0.315 N 
ATOM     13  N   UNL     1      33.740 -13.091 -24.585  0.00  0.00    -0.315 N 
ATOM     14  C   UNL     1      34.938 -16.532 -22.596  0.00  0.00    +0.001 C 
ATOM     15  C   UNL     1      34.496 -14.199 -22.743  0.00  0.00    +0.059 C 
ATOM     16  C   UNL     1      34.106 -14.315 -24.074  0.00  0.00    +0.059 C 
ATOM     17  C   UNL     1      34.918 -15.282 -21.970  0.00  0.00    +0.016 C 
ATOM     18  C   UNL     1      34.553 -16.681 -23.931  0.00  0.00    +0.001 C 
ATOM     19  C   UNL     1      34.133 -15.579 -24.687  0.00  0.00    +0.016 C 
ATOM     20  C   UNL     1      33.901 -12.246 -23.593  0.00  0.00    +0.168 C 
ATOM     21  H   UNL     1      34.545 -12.430 -21.599  0.00  0.00    +0.149 HD
ATOM     22  H   UNL     1      33.426 -12.893 -25.497  0.00  0.00    +0.149 HD
BRANCH  20  24
ATOM     23  N   UNL     1      33.154  -8.076 -23.732  0.00  0.00    -0.242 NA
ATOM     24  C   UNL     1      33.646 -10.826 -23.638  0.00  0.00    +0.017 C 
ATOM     25  C   UNL     1      34.705  -9.926 -23.615  0.00  0.00    +0.020 C 
ATOM     26  C   UNL     1      32.340 -10.352 -23.709  0.00  0.00    +0.020 C 
ATOM     27  C   UNL     1      34.409  -8.573 -23.663  0.00  0.00    +0.099 C 
ATOM     28  C   UNL     1      32.149  -8.981 -23.753  0.00  0.00    +0.099 C 
ENDBRANCH  20  24
ENDBRANCH   3  14
BRANCH   9  30
ATOM     29  N   UNL     1      34.379 -24.230 -16.167  0.00  0.00    -0.242 NA
ATOM     30  C   UNL     1      34.970 -22.231 -18.029  0.00  0.00    +0.017 C 
ATOM     31  C   UNL     1      35.784 -22.411 -16.917  0.00  0.00    +0.020 C 
ATOM     32  C   UNL     1      33.859 -23.048 -18.211  0.00  0.00    +0.020 C 
ATOM     33  C   UNL     1      35.449 -23.416 -16.023  0.00  0.00    +0.099 C 
ATOM     34  C   UNL     1      33.610 -24.024 -17.259  0.00  0.00    +0.099 C 
ENDBRANCH   9  30
TORSDOF 3
ENDMDL
