MODEL 1
REMARK VINA RESULT:     -11.6      0.000      0.000
REMARK  Name = 11524144
REMARK  6 active torsions:
REMARK  status: ('A' for Active; 'I' for Inactive)
REMARK    1  A    between atoms: C_1  and  O_22
REMARK    2  A    between atoms: C_2  and  C_10
REMARK    3  A    between atoms: C_12  and  C_17
REMARK    4  A    between atoms: O_22  and  C_23
REMARK    5  A    between atoms: C_23  and  C_24
REMARK    6  A    between atoms: C_24  and  N_25
REMARK                            x       y       z     vdW  Elec       q    Type
REMARK                         _______ _______ _______ _____ _____    ______ ____
ROOT
ATOM      1  C   UNL     1      33.989 -23.887 -15.526  0.00  0.00    +0.138 C 
ATOM      2  C   UNL     1      34.611 -22.191 -17.640  0.00  0.00    -0.001 C 
ATOM      3  C   UNL     1      33.055 -23.669 -16.531  0.00  0.00    +0.037 C 
ATOM      4  C   UNL     1      35.232 -23.266 -15.567  0.00  0.00    +0.037 C 
ATOM      5  C   UNL     1      33.366 -22.818 -17.592  0.00  0.00    +0.003 C 
ATOM      6  C   UNL     1      35.544 -22.415 -16.628  0.00  0.00    +0.003 C 
ENDROOT
BRANCH   2  10
ATOM      7  N   UNL     1      36.404 -19.930 -20.047  0.00  0.00    -0.193 N 
ATOM      8  N   UNL     1      34.112 -20.034 -20.760  0.00  0.00    -0.231 NA
ATOM      9  N   UNL     1      37.581 -19.346 -20.392  0.00  0.00    -0.179 NA
ATOM     10  C   UNL     1      34.940 -21.293 -18.757  0.00  0.00    +0.019 C 
ATOM     11  C   UNL     1      35.380 -19.565 -20.918  0.00  0.00    +0.137 C 
ATOM     12  C   UNL     1      35.942 -18.718 -21.846  0.00  0.00    +0.121 C 
ATOM     13  C   UNL     1      36.165 -20.790 -18.977  0.00  0.00    +0.145 C 
ATOM     14  C   UNL     1      33.921 -20.834 -19.754  0.00  0.00    +0.097 C 
ATOM     15  C   UNL     1      37.289 -18.622 -21.473  0.00  0.00    +0.103 C 
BRANCH  12  17
ATOM     16  N   UNL     1      33.830 -16.923 -25.042  0.00  0.00    -0.242 NA
ATOM     17  C   UNL     1      35.227 -18.110 -22.926  0.00  0.00    -0.007 C 
ATOM     18  C   UNL     1      34.464 -18.892 -23.790  0.00  0.00    +0.017 C 
ATOM     19  C   UNL     1      35.290 -16.734 -23.124  0.00  0.00    +0.017 C 
ATOM     20  C   UNL     1      33.791 -18.256 -24.821  0.00  0.00    +0.099 C 
ATOM     21  C   UNL     1      34.580 -16.195 -24.186  0.00  0.00    +0.099 C 
ENDBRANCH  12  17
ENDBRANCH   2  10
BRANCH   1  22
ATOM     22  O   UNL     1      33.683 -24.723 -14.484  0.00  0.00    -0.478 OA
BRANCH  22  23
ATOM     23  C   UNL     1      32.866 -24.189 -13.452  0.00  0.00    +0.183 C 
BRANCH  23  24
ATOM     24  C   UNL     1      31.664 -25.101 -13.258  0.00  0.00    -0.029 C 
BRANCH  24  25
ATOM     25  N   UNL     1      30.465 -24.507 -13.847  0.00  0.00    +0.389 N 
ATOM     26  C   UNL     1      30.648 -23.061 -14.038  0.00  0.00    -0.077 C 
ATOM     27  C   UNL     1      30.132 -25.172 -15.114  0.00  0.00    -0.077 C 
ATOM     28  C   UNL     1      29.384 -22.415 -14.608  0.00  0.00    -0.023 C 
ATOM     29  C   UNL     1      28.851 -24.595 -15.719  0.00  0.00    -0.023 C 
ATOM     30  C   UNL     1      28.957 -23.087 -15.909  0.00  0.00    -0.004 C 
ATOM     31  H   UNL     1      29.684 -24.642 -13.205  0.00  0.00    -0.080 HD
ENDBRANCH  24  25
ENDBRANCH  23  24
ENDBRANCH  22  23
ENDBRANCH   1  22
TORSDOF 6
ENDMDL
MODEL 2
REMARK VINA RESULT:     -11.3      3.332     10.209
REMARK  Name = 11524144
REMARK  6 active torsions:
REMARK  status: ('A' for Active; 'I' for Inactive)
REMARK    1  A    between atoms: C_1  and  O_22
REMARK    2  A    between atoms: C_2  and  C_10
REMARK    3  A    between atoms: C_12  and  C_17
REMARK    4  A    between atoms: O_22  and  C_23
REMARK    5  A    between atoms: C_23  and  C_24
REMARK    6  A    between atoms: C_24  and  N_25
REMARK                            x       y       z     vdW  Elec       q    Type
REMARK                         _______ _______ _______ _____ _____    ______ ____
ROOT
ATOM      1  C   UNL     1      34.702 -19.945 -21.247  0.00  0.00    +0.138 C 
ATOM      2  C   UNL     1      34.663 -21.407 -18.883  0.00  0.00    -0.001 C 
ATOM      3  C   UNL     1      35.900 -20.334 -20.659  0.00  0.00    +0.037 C 
ATOM      4  C   UNL     1      33.485 -20.281 -20.666  0.00  0.00    +0.037 C 
ATOM      5  C   UNL     1      35.880 -21.067 -19.472  0.00  0.00    +0.003 C 
ATOM      6  C   UNL     1      33.465 -21.014 -19.479  0.00  0.00    +0.003 C 
ENDROOT
BRANCH   2  10
ATOM      7  N   UNL     1      33.577 -23.403 -15.891  0.00  0.00    -0.193 N 
ATOM      8  N   UNL     1      35.953 -23.101 -15.704  0.00  0.00    -0.231 NA
ATOM      9  N   UNL     1      32.540 -23.978 -15.226  0.00  0.00    -0.179 NA
ATOM     10  C   UNL     1      34.642 -22.179 -17.632  0.00  0.00    +0.019 C 
ATOM     11  C   UNL     1      34.782 -23.594 -15.218  0.00  0.00    +0.137 C 
ATOM     12  C   UNL     1      34.484 -24.320 -14.086  0.00  0.00    +0.121 C 
ATOM     13  C   UNL     1      33.528 -22.696 -17.090  0.00  0.00    +0.145 C 
ATOM     14  C   UNL     1      35.875 -22.446 -16.824  0.00  0.00    +0.097 C 
ATOM     15  C   UNL     1      33.099 -24.525 -14.146  0.00  0.00    +0.103 C 
BRANCH  12  17
ATOM     16  N   UNL     1      37.332 -25.540 -11.205  0.00  0.00    -0.242 NA
ATOM     17  C   UNL     1      35.447 -24.732 -13.111  0.00  0.00    -0.007 C 
ATOM     18  C   UNL     1      36.466 -25.616 -13.461  0.00  0.00    +0.017 C 
ATOM     19  C   UNL     1      35.375 -24.254 -11.806  0.00  0.00    +0.017 C 
ATOM     20  C   UNL     1      37.373 -25.985 -12.481  0.00  0.00    +0.099 C 
ATOM     21  C   UNL     1      36.332 -24.684 -10.900  0.00  0.00    +0.099 C 
ENDBRANCH  12  17
ENDBRANCH   2  10
BRANCH   1  22
ATOM     22  O   UNL     1      34.721 -19.225 -22.414  0.00  0.00    -0.478 OA
BRANCH  22  23
ATOM     23  C   UNL     1      35.692 -18.192 -22.514  0.00  0.00    +0.183 C 
BRANCH  23  24
ATOM     24  C   UNL     1      35.096 -17.035 -23.300  0.00  0.00    -0.029 C 
BRANCH  24  25
ATOM     25  N   UNL     1      35.064 -15.821 -22.486  0.00  0.00    +0.389 N 
ATOM     26  C   UNL     1      34.121 -14.846 -23.053  0.00  0.00    -0.077 C 
ATOM     27  C   UNL     1      34.720 -16.145 -21.094  0.00  0.00    -0.077 C 
ATOM     28  C   UNL     1      34.111 -13.551 -22.240  0.00  0.00    -0.023 C 
ATOM     29  C   UNL     1      34.730 -14.891 -20.218  0.00  0.00    -0.023 C 
ATOM     30  C   UNL     1      33.799 -13.819 -20.772  0.00  0.00    -0.004 C 
ATOM     31  H   UNL     1      35.992 -15.399 -22.490  0.00  0.00    -0.080 HD
ENDBRANCH  24  25
ENDBRANCH  23  24
ENDBRANCH  22  23
ENDBRANCH   1  22
TORSDOF 6
ENDMDL
MODEL 3
REMARK VINA RESULT:     -11.2      3.583      9.926
REMARK  Name = 11524144
REMARK  6 active torsions:
REMARK  status: ('A' for Active; 'I' for Inactive)
REMARK    1  A    between atoms: C_1  and  O_22
REMARK    2  A    between atoms: C_2  and  C_10
REMARK    3  A    between atoms: C_12  and  C_17
REMARK    4  A    between atoms: O_22  and  C_23
REMARK    5  A    between atoms: C_23  and  C_24
REMARK    6  A    between atoms: C_24  and  N_25
REMARK                            x       y       z     vdW  Elec       q    Type
REMARK                         _______ _______ _______ _____ _____    ______ ____
ROOT
ATOM      1  C   UNL     1      34.914 -17.550 -23.612  0.00  0.00    +0.138 C 
ATOM      2  C   UNL     1      34.850 -19.289 -21.444  0.00  0.00    -0.001 C 
ATOM      3  C   UNL     1      35.540 -17.192 -22.424  0.00  0.00    +0.037 C 
ATOM      4  C   UNL     1      34.256 -18.769 -23.727  0.00  0.00    +0.037 C 
ATOM      5  C   UNL     1      35.508 -18.064 -21.336  0.00  0.00    +0.003 C 
ATOM      6  C   UNL     1      34.224 -19.641 -22.639  0.00  0.00    +0.003 C 
ENDROOT
BRANCH   2  10
ATOM      7  N   UNL     1      33.736 -21.662 -18.753  0.00  0.00    -0.193 N 
ATOM      8  N   UNL     1      36.095 -21.324 -18.452  0.00  0.00    -0.231 NA
ATOM      9  N   UNL     1      32.697 -22.340 -18.197  0.00  0.00    -0.179 NA
ATOM     10  C   UNL     1      34.815 -20.208 -20.296  0.00  0.00    +0.019 C 
ATOM     11  C   UNL     1      34.925 -21.903 -18.068  0.00  0.00    +0.137 C 
ATOM     12  C   UNL     1      34.616 -22.768 -17.043  0.00  0.00    +0.121 C 
ATOM     13  C   UNL     1      33.701 -20.815 -19.858  0.00  0.00    +0.145 C 
ATOM     14  C   UNL     1      36.031 -20.540 -19.487  0.00  0.00    +0.097 C 
ATOM     15  C   UNL     1      33.240 -23.000 -17.173  0.00  0.00    +0.103 C 
BRANCH  12  17
ATOM     16  N   UNL     1      37.414 -24.255 -14.240  0.00  0.00    -0.242 NA
ATOM     17  C   UNL     1      35.562 -23.271 -16.094  0.00  0.00    -0.007 C 
ATOM     18  C   UNL     1      36.804 -22.658 -15.949  0.00  0.00    +0.017 C 
ATOM     19  C   UNL     1      35.249 -24.377 -15.310  0.00  0.00    +0.017 C 
ATOM     20  C   UNL     1      37.685 -23.183 -15.017  0.00  0.00    +0.099 C 
ATOM     21  C   UNL     1      36.200 -24.825 -14.406  0.00  0.00    +0.099 C 
ENDBRANCH  12  17
ENDBRANCH   2  10
BRANCH   1  22
ATOM     22  O   UNL     1      34.946 -16.693 -24.681  0.00  0.00    -0.478 OA
BRANCH  22  23
ATOM     23  C   UNL     1      33.927 -15.703 -24.740  0.00  0.00    +0.183 C 
BRANCH  23  24
ATOM     24  C   UNL     1      34.359 -14.508 -23.904  0.00  0.00    -0.029 C 
BRANCH  24  25
ATOM     25  N   UNL     1      33.343 -14.185 -22.903  0.00  0.00    +0.389 N 
ATOM     26  C   UNL     1      33.877 -14.377 -21.548  0.00  0.00    -0.077 C 
ATOM     27  C   UNL     1      32.854 -12.812 -23.092  0.00  0.00    -0.077 C 
ATOM     28  C   UNL     1      32.811 -14.090 -20.488  0.00  0.00    -0.023 C 
ATOM     29  C   UNL     1      31.755 -12.474 -22.083  0.00  0.00    -0.023 C 
ATOM     30  C   UNL     1      32.230 -12.690 -20.651  0.00  0.00    -0.004 C 
ATOM     31  H   UNL     1      32.553 -14.819 -23.022  0.00  0.00    -0.080 HD
ENDBRANCH  24  25
ENDBRANCH  23  24
ENDBRANCH  22  23
ENDBRANCH   1  22
TORSDOF 6
ENDMDL
MODEL 4
REMARK VINA RESULT:     -11.0      6.922     13.134
REMARK  Name = 11524144
REMARK  6 active torsions:
REMARK  status: ('A' for Active; 'I' for Inactive)
REMARK    1  A    between atoms: C_1  and  O_22
REMARK    2  A    between atoms: C_2  and  C_10
REMARK    3  A    between atoms: C_12  and  C_17
REMARK    4  A    between atoms: O_22  and  C_23
REMARK    5  A    between atoms: C_23  and  C_24
REMARK    6  A    between atoms: C_24  and  N_25
REMARK                            x       y       z     vdW  Elec       q    Type
REMARK                         _______ _______ _______ _____ _____    ______ ____
ROOT
ATOM      1  C   UNL     1      31.824  -9.701 -22.662  0.00  0.00    +0.138 C 
ATOM      2  C   UNL     1      32.917 -12.257 -22.685  0.00  0.00    -0.001 C 
ATOM      3  C   UNL     1      31.433 -10.626 -21.701  0.00  0.00    +0.037 C 
ATOM      4  C   UNL     1      32.757 -10.042 -23.634  0.00  0.00    +0.037 C 
ATOM      5  C   UNL     1      31.981 -11.909 -21.713  0.00  0.00    +0.003 C 
ATOM      6  C   UNL     1      33.305 -11.324 -23.646  0.00  0.00    +0.003 C 
ENDROOT
BRANCH   2  10
ATOM      7  N   UNL     1      34.199 -15.625 -23.751  0.00  0.00    -0.193 N 
ATOM      8  N   UNL     1      34.441 -15.508 -21.363  0.00  0.00    -0.231 NA
ATOM      9  N   UNL     1      34.423 -16.478 -24.785  0.00  0.00    -0.179 NA
ATOM     10  C   UNL     1      33.495 -13.610 -22.698  0.00  0.00    +0.019 C 
ATOM     11  C   UNL     1      34.579 -16.188 -22.534  0.00  0.00    +0.137 C 
ATOM     12  C   UNL     1      35.062 -17.445 -22.822  0.00  0.00    +0.121 C 
ATOM     13  C   UNL     1      33.661 -14.341 -23.812  0.00  0.00    +0.145 C 
ATOM     14  C   UNL     1      33.937 -14.314 -21.453  0.00  0.00    +0.097 C 
ATOM     15  C   UNL     1      34.941 -17.565 -24.213  0.00  0.00    +0.103 C 
BRANCH  12  17
ATOM     16  N   UNL     1      36.529 -20.164 -19.931  0.00  0.00    -0.242 NA
ATOM     17  C   UNL     1      35.559 -18.364 -21.845  0.00  0.00    -0.007 C 
ATOM     18  C   UNL     1      34.706 -19.300 -21.264  0.00  0.00    +0.017 C 
ATOM     19  C   UNL     1      36.898 -18.331 -21.465  0.00  0.00    +0.017 C 
ATOM     20  C   UNL     1      35.235 -20.168 -20.322  0.00  0.00    +0.099 C 
ATOM     21  C   UNL     1      37.329 -19.243 -20.514  0.00  0.00    +0.099 C 
ENDBRANCH  12  17
ENDBRANCH   2  10
BRANCH   1  22
ATOM     22  O   UNL     1      31.286  -8.441 -22.650  0.00  0.00    -0.478 OA
BRANCH  22  23
ATOM     23  C   UNL     1      31.521  -7.654 -21.490  0.00  0.00    +0.183 C 
BRANCH  23  24
ATOM     24  C   UNL     1      32.114  -6.320 -21.916  0.00  0.00    -0.029 C 
BRANCH  24  25
ATOM     25  N   UNL     1      33.024  -6.499 -23.047  0.00  0.00    +0.389 N 
ATOM     26  C   UNL     1      33.050  -5.290 -23.882  0.00  0.00    -0.077 C 
ATOM     27  C   UNL     1      34.371  -6.845 -22.572  0.00  0.00    -0.077 C 
ATOM     28  C   UNL     1      33.960  -5.477 -25.097  0.00  0.00    -0.023 C 
ATOM     29  C   UNL     1      35.325  -7.083 -23.744  0.00  0.00    -0.023 C 
ATOM     30  C   UNL     1      35.370  -5.879 -24.677  0.00  0.00    -0.004 C 
ATOM     31  H   UNL     1      32.685  -7.270 -23.621  0.00  0.00    -0.080 HD
ENDBRANCH  24  25
ENDBRANCH  23  24
ENDBRANCH  22  23
ENDBRANCH   1  22
TORSDOF 6
ENDMDL
MODEL 5
REMARK VINA RESULT:     -10.9      5.941      9.847
REMARK  Name = 11524144
REMARK  6 active torsions:
REMARK  status: ('A' for Active; 'I' for Inactive)
REMARK    1  A    between atoms: C_1  and  O_22
REMARK    2  A    between atoms: C_2  and  C_10
REMARK    3  A    between atoms: C_12  and  C_17
REMARK    4  A    between atoms: O_22  and  C_23
REMARK    5  A    between atoms: C_23  and  C_24
REMARK    6  A    between atoms: C_24  and  N_25
REMARK                            x       y       z     vdW  Elec       q    Type
REMARK                         _______ _______ _______ _____ _____    ______ ____
ROOT
ATOM      1  C   UNL     1      35.064 -17.066 -23.141  0.00  0.00    +0.138 C 
ATOM      2  C   UNL     1      34.102 -14.458 -23.117  0.00  0.00    -0.001 C 
ATOM      3  C   UNL     1      35.121 -16.323 -21.968  0.00  0.00    +0.037 C 
ATOM      4  C   UNL     1      34.530 -16.519 -24.302  0.00  0.00    +0.037 C 
ATOM      5  C   UNL     1      34.639 -15.014 -21.956  0.00  0.00    +0.003 C 
ATOM      6  C   UNL     1      34.048 -15.210 -24.290  0.00  0.00    +0.003 C 
ENDROOT
BRANCH   2  10
ATOM      7  N   UNL     1      32.013 -11.386 -22.557  0.00  0.00    -0.193 N 
ATOM      8  N   UNL     1      33.933 -10.703 -23.829  0.00  0.00    -0.231 NA
ATOM      9  N   UNL     1      30.881 -10.867 -22.012  0.00  0.00    -0.179 NA
ATOM     10  C   UNL     1      33.594 -13.078 -23.105  0.00  0.00    +0.019 C 
ATOM     11  C   UNL     1      32.758 -10.406 -23.210  0.00  0.00    +0.137 C 
ATOM     12  C   UNL     1      32.062  -9.227 -23.066  0.00  0.00    +0.121 C 
ATOM     13  C   UNL     1      32.445 -12.709 -22.516  0.00  0.00    +0.145 C 
ATOM     14  C   UNL     1      34.309 -11.945 -23.773  0.00  0.00    +0.097 C 
ATOM     15  C   UNL     1      30.923  -9.572 -22.325  0.00  0.00    +0.103 C 
BRANCH  12  17
ATOM     16  N   UNL     1      33.313  -5.499 -24.626  0.00  0.00    -0.242 NA
ATOM     17  C   UNL     1      32.485  -7.967 -23.594  0.00  0.00    -0.007 C 
ATOM     18  C   UNL     1      33.670  -7.382 -23.152  0.00  0.00    +0.017 C 
ATOM     19  C   UNL     1      31.716  -7.313 -24.553  0.00  0.00    +0.017 C 
ATOM     20  C   UNL     1      34.035  -6.160 -23.694  0.00  0.00    +0.099 C 
ATOM     21  C   UNL     1      32.170  -6.094 -25.033  0.00  0.00    +0.099 C 
ENDBRANCH  12  17
ENDBRANCH   2  10
BRANCH   1  22
ATOM     22  O   UNL     1      35.538 -18.352 -23.153  0.00  0.00    -0.478 OA
BRANCH  22  23
ATOM     23  C   UNL     1      34.936 -19.266 -22.245  0.00  0.00    +0.183 C 
BRANCH  23  24
ATOM     24  C   UNL     1      35.854 -19.437 -21.045  0.00  0.00    -0.029 C 
BRANCH  24  25
ATOM     25  N   UNL     1      35.160 -20.128 -19.959  0.00  0.00    +0.389 N 
ATOM     26  C   UNL     1      33.760 -20.386 -20.326  0.00  0.00    -0.077 C 
ATOM     27  C   UNL     1      35.858 -21.374 -19.615  0.00  0.00    -0.077 C 
ATOM     28  C   UNL     1      33.006 -21.066 -19.182  0.00  0.00    -0.023 C 
ATOM     29  C   UNL     1      35.172 -22.086 -18.447  0.00  0.00    -0.023 C 
ATOM     30  C   UNL     1      33.701 -22.351 -18.745  0.00  0.00    -0.004 C 
ATOM     31  H   UNL     1      35.163 -19.528 -19.135  0.00  0.00    -0.080 HD
ENDBRANCH  24  25
ENDBRANCH  23  24
ENDBRANCH  22  23
ENDBRANCH   1  22
TORSDOF 6
ENDMDL
MODEL 6
REMARK VINA RESULT:     -10.8      3.523      6.192
REMARK  Name = 11524144
REMARK  6 active torsions:
REMARK  status: ('A' for Active; 'I' for Inactive)
REMARK    1  A    between atoms: C_1  and  O_22
REMARK    2  A    between atoms: C_2  and  C_10
REMARK    3  A    between atoms: C_12  and  C_17
REMARK    4  A    between atoms: O_22  and  C_23
REMARK    5  A    between atoms: C_23  and  C_24
REMARK    6  A    between atoms: C_24  and  N_25
REMARK                            x       y       z     vdW  Elec       q    Type
REMARK                         _______ _______ _______ _____ _____    ______ ____
ROOT
ATOM      1  C   UNL     1      36.247 -20.687 -19.694  0.00  0.00    +0.138 C 
ATOM      2  C   UNL     1      35.404 -18.420 -21.063  0.00  0.00    -0.001 C 
ATOM      3  C   UNL     1      34.899 -20.525 -19.991  0.00  0.00    +0.037 C 
ATOM      4  C   UNL     1      37.178 -19.728 -20.075  0.00  0.00    +0.037 C 
ATOM      5  C   UNL     1      34.476 -19.387 -20.678  0.00  0.00    +0.003 C 
ATOM      6  C   UNL     1      36.754 -18.590 -20.762  0.00  0.00    +0.003 C 
ENDROOT
BRANCH   2  10
ATOM      7  N   UNL     1      34.320 -16.010 -23.734  0.00  0.00    -0.193 N 
ATOM      8  N   UNL     1      34.362 -14.788 -21.666  0.00  0.00    -0.231 NA
ATOM      9  N   UNL     1      34.051 -15.824 -25.053  0.00  0.00    -0.179 NA
ATOM     10  C   UNL     1      34.957 -17.220 -21.786  0.00  0.00    +0.019 C 
ATOM     11  C   UNL     1      34.146 -14.833 -23.009  0.00  0.00    +0.137 C 
ATOM     12  C   UNL     1      33.750 -13.874 -23.913  0.00  0.00    +0.121 C 
ATOM     13  C   UNL     1      34.725 -17.187 -23.108  0.00  0.00    +0.145 C 
ATOM     14  C   UNL     1      34.738 -15.902 -21.111  0.00  0.00    +0.097 C 
ATOM     15  C   UNL     1      33.710 -14.538 -25.146  0.00  0.00    +0.103 C 
BRANCH  12  17
ATOM     16  N   UNL     1      32.901  -9.849 -22.920  0.00  0.00    -0.242 NA
ATOM     17  C   UNL     1      33.464 -12.512 -23.577  0.00  0.00    -0.007 C 
ATOM     18  C   UNL     1      32.324 -12.196 -22.841  0.00  0.00    +0.017 C 
ATOM     19  C   UNL     1      34.320 -11.493 -23.983  0.00  0.00    +0.017 C 
ATOM     20  C   UNL     1      32.091 -10.863 -22.542  0.00  0.00    +0.099 C 
ATOM     21  C   UNL     1      33.998 -10.192 -23.632  0.00  0.00    +0.099 C 
ENDBRANCH  12  17
ENDBRANCH   2  10
BRANCH   1  22
ATOM     22  O   UNL     1      36.663 -21.806 -19.019  0.00  0.00    -0.478 OA
BRANCH  22  23
ATOM     23  C   UNL     1      36.050 -22.062 -17.763  0.00  0.00    +0.183 C 
BRANCH  23  24
ATOM     24  C   UNL     1      37.076 -21.837 -16.663  0.00  0.00    -0.029 C 
BRANCH  24  25
ATOM     25  N   UNL     1      36.600 -22.385 -15.394  0.00  0.00    +0.389 N 
ATOM     26  C   UNL     1      35.284 -23.017 -15.567  0.00  0.00    -0.077 C 
ATOM     27  C   UNL     1      37.577 -23.336 -14.847  0.00  0.00    -0.077 C 
ATOM     28  C   UNL     1      34.749 -23.553 -14.238  0.00  0.00    -0.023 C 
ATOM     29  C   UNL     1      37.118 -23.883 -13.494  0.00  0.00    -0.023 C 
ATOM     30  C   UNL     1      35.736 -24.519 -13.593  0.00  0.00    -0.004 C 
ATOM     31  H   UNL     1      36.496 -21.622 -14.726  0.00  0.00    -0.080 HD
ENDBRANCH  24  25
ENDBRANCH  23  24
ENDBRANCH  22  23
ENDBRANCH   1  22
TORSDOF 6
ENDMDL
MODEL 7
REMARK VINA RESULT:     -10.7      2.334      4.102
REMARK  Name = 11524144
REMARK  6 active torsions:
REMARK  status: ('A' for Active; 'I' for Inactive)
REMARK    1  A    between atoms: C_1  and  O_22
REMARK    2  A    between atoms: C_2  and  C_10
REMARK    3  A    between atoms: C_12  and  C_17
REMARK    4  A    between atoms: O_22  and  C_23
REMARK    5  A    between atoms: C_23  and  C_24
REMARK    6  A    between atoms: C_24  and  N_25
REMARK                            x       y       z     vdW  Elec       q    Type
REMARK                         _______ _______ _______ _____ _____    ______ ____
ROOT
ATOM      1  C   UNL     1      34.562 -23.849 -15.488  0.00  0.00    +0.138 C 
ATOM      2  C   UNL     1      34.974 -22.153 -17.652  0.00  0.00    -0.001 C 
ATOM      3  C   UNL     1      35.798 -23.236 -15.656  0.00  0.00    +0.037 C 
ATOM      4  C   UNL     1      33.530 -23.622 -16.390  0.00  0.00    +0.037 C 
ATOM      5  C   UNL     1      36.006 -22.386 -16.742  0.00  0.00    +0.003 C 
ATOM      6  C   UNL     1      33.737 -22.771 -17.477  0.00  0.00    +0.003 C 
ENDROOT
BRANCH   2  10
ATOM      7  N   UNL     1      36.503 -19.821 -20.170  0.00  0.00    -0.193 N 
ATOM      8  N   UNL     1      34.198 -20.101 -20.786  0.00  0.00    -0.231 NA
ATOM      9  N   UNL     1      37.621 -19.162 -20.574  0.00  0.00    -0.179 NA
ATOM     10  C   UNL     1      35.193 -21.258 -18.798  0.00  0.00    +0.019 C 
ATOM     11  C   UNL     1      35.422 -19.547 -21.004  0.00  0.00    +0.137 C 
ATOM     12  C   UNL     1      35.885 -18.681 -21.970  0.00  0.00    +0.121 C 
ATOM     13  C   UNL     1      36.369 -20.674 -19.077  0.00  0.00    +0.145 C 
ATOM     14  C   UNL     1      34.105 -20.892 -19.760  0.00  0.00    +0.097 C 
ATOM     15  C   UNL     1      37.235 -18.483 -21.654  0.00  0.00    +0.103 C 
BRANCH  12  17
ATOM     16  N   UNL     1      33.523 -17.106 -25.107  0.00  0.00    -0.242 NA
ATOM     17  C   UNL     1      35.086 -18.148 -23.030  0.00  0.00    -0.007 C 
ATOM     18  C   UNL     1      34.284 -18.990 -23.797  0.00  0.00    +0.017 C 
ATOM     19  C   UNL     1      35.104 -16.784 -23.306  0.00  0.00    +0.017 C 
ATOM     20  C   UNL     1      33.530 -18.425 -24.813  0.00  0.00    +0.099 C 
ATOM     21  C   UNL     1      34.312 -16.318 -24.344  0.00  0.00    +0.099 C 
ENDBRANCH  12  17
ENDBRANCH   2  10
BRANCH   1  22
ATOM     22  O   UNL     1      34.359 -24.684 -14.420  0.00  0.00    -0.478 OA
BRANCH  22  23
ATOM     23  C   UNL     1      34.346 -24.085 -13.131  0.00  0.00    +0.183 C 
BRANCH  23  24
ATOM     24  C   UNL     1      35.351 -24.807 -12.247  0.00  0.00    -0.029 C 
BRANCH  24  25
ATOM     25  N   UNL     1      36.640 -24.932 -12.927  0.00  0.00    +0.389 N 
ATOM     26  C   UNL     1      37.736 -24.560 -12.021  0.00  0.00    -0.077 C 
ATOM     27  C   UNL     1      36.817 -26.295 -13.445  0.00  0.00    -0.077 C 
ATOM     28  C   UNL     1      39.089 -24.638 -12.731  0.00  0.00    -0.023 C 
ATOM     29  C   UNL     1      38.140 -26.430 -14.201  0.00  0.00    -0.023 C 
ATOM     30  C   UNL     1      39.322 -26.021 -13.331  0.00  0.00    -0.004 C 
ATOM     31  H   UNL     1      36.655 -24.290 -13.719  0.00  0.00    -0.080 HD
ENDBRANCH  24  25
ENDBRANCH  23  24
ENDBRANCH  22  23
ENDBRANCH   1  22
TORSDOF 6
ENDMDL
MODEL 8
REMARK VINA RESULT:     -10.6      7.552     13.357
REMARK  Name = 11524144
REMARK  6 active torsions:
REMARK  status: ('A' for Active; 'I' for Inactive)
REMARK    1  A    between atoms: C_1  and  O_22
REMARK    2  A    between atoms: C_2  and  C_10
REMARK    3  A    between atoms: C_12  and  C_17
REMARK    4  A    between atoms: O_22  and  C_23
REMARK    5  A    between atoms: C_23  and  C_24
REMARK    6  A    between atoms: C_24  and  N_25
REMARK                            x       y       z     vdW  Elec       q    Type
REMARK                         _______ _______ _______ _____ _____    ______ ____
ROOT
ATOM      1  C   UNL     1      32.375  -9.658 -22.917  0.00  0.00    +0.138 C 
ATOM      2  C   UNL     1      33.290 -12.282 -22.849  0.00  0.00    -0.001 C 
ATOM      3  C   UNL     1      33.501 -10.012 -23.649  0.00  0.00    +0.037 C 
ATOM      4  C   UNL     1      31.700 -10.602 -22.152  0.00  0.00    +0.037 C 
ATOM      5  C   UNL     1      33.961 -11.329 -23.615  0.00  0.00    +0.003 C 
ATOM      6  C   UNL     1      32.160 -11.919 -22.118  0.00  0.00    +0.003 C 
ENDROOT
BRANCH   2  10
ATOM      7  N   UNL     1      34.307 -15.776 -23.784  0.00  0.00    -0.193 N 
ATOM      8  N   UNL     1      34.638 -15.562 -21.414  0.00  0.00    -0.231 NA
ATOM      9  N   UNL     1      34.438 -16.691 -24.780  0.00  0.00    -0.179 NA
ATOM     10  C   UNL     1      33.775 -13.669 -22.812  0.00  0.00    +0.019 C 
ATOM     11  C   UNL     1      34.690 -16.305 -22.553  0.00  0.00    +0.137 C 
ATOM     12  C   UNL     1      35.078 -17.604 -22.792  0.00  0.00    +0.121 C 
ATOM     13  C   UNL     1      33.853 -14.463 -23.893  0.00  0.00    +0.145 C 
ATOM     14  C   UNL     1      34.212 -14.342 -21.548  0.00  0.00    +0.097 C 
ATOM     15  C   UNL     1      34.902 -17.782 -24.171  0.00  0.00    +0.103 C 
BRANCH  12  17
ATOM     16  N   UNL     1      36.459 -20.275 -19.816  0.00  0.00    -0.242 NA
ATOM     17  C   UNL     1      35.546 -18.508 -21.786  0.00  0.00    -0.007 C 
ATOM     18  C   UNL     1      34.675 -19.431 -21.212  0.00  0.00    +0.017 C 
ATOM     19  C   UNL     1      36.874 -18.472 -21.372  0.00  0.00    +0.017 C 
ATOM     20  C   UNL     1      35.176 -20.283 -20.241  0.00  0.00    +0.099 C 
ATOM     21  C   UNL     1      37.277 -19.368 -20.394  0.00  0.00    +0.099 C 
ENDBRANCH  12  17
ENDBRANCH   2  10
BRANCH   1  22
ATOM     22  O   UNL     1      31.923  -8.364 -22.951  0.00  0.00    -0.478 OA
BRANCH  22  23
ATOM     23  C   UNL     1      31.860  -7.674 -21.710  0.00  0.00    +0.183 C 
BRANCH  23  24
ATOM     24  C   UNL     1      33.013  -6.685 -21.642  0.00  0.00    -0.029 C 
BRANCH  24  25
ATOM     25  N   UNL     1      32.560  -5.340 -21.998  0.00  0.00    +0.389 N 
ATOM     26  C   UNL     1      32.567  -5.165 -23.458  0.00  0.00    -0.077 C 
ATOM     27  C   UNL     1      31.227  -5.082 -21.438  0.00  0.00    -0.077 C 
ATOM     28  C   UNL     1      32.143  -3.748 -23.846  0.00  0.00    -0.023 C 
ATOM     29  C   UNL     1      30.759  -3.662 -21.760  0.00  0.00    -0.023 C 
ATOM     30  C   UNL     1      30.779  -3.398 -23.261  0.00  0.00    -0.004 C 
ATOM     31  H   UNL     1      33.207  -4.661 -21.598  0.00  0.00    -0.080 HD
ENDBRANCH  24  25
ENDBRANCH  23  24
ENDBRANCH  22  23
ENDBRANCH   1  22
TORSDOF 6
ENDMDL
MODEL 9
REMARK VINA RESULT:     -10.3      7.250     11.565
REMARK  Name = 11524144
REMARK  6 active torsions:
REMARK  status: ('A' for Active; 'I' for Inactive)
REMARK    1  A    between atoms: C_1  and  O_22
REMARK    2  A    between atoms: C_2  and  C_10
REMARK    3  A    between atoms: C_12  and  C_17
REMARK    4  A    between atoms: O_22  and  C_23
REMARK    5  A    between atoms: C_23  and  C_24
REMARK    6  A    between atoms: C_24  and  N_25
REMARK                            x       y       z     vdW  Elec       q    Type
REMARK                         _______ _______ _______ _____ _____    ______ ____
ROOT
ATOM      1  C   UNL     1      34.054 -15.426 -24.016  0.00  0.00    +0.138 C 
ATOM      2  C   UNL     1      33.818 -12.671 -23.729  0.00  0.00    -0.001 C 
ATOM      3  C   UNL     1      33.408 -14.685 -24.998  0.00  0.00    +0.037 C 
ATOM      4  C   UNL     1      34.584 -14.804 -22.891  0.00  0.00    +0.037 C 
ATOM      5  C   UNL     1      33.289 -13.303 -24.855  0.00  0.00    +0.003 C 
ATOM      6  C   UNL     1      34.465 -13.421 -22.748  0.00  0.00    +0.003 C 
ENDROOT
BRANCH   2  10
ATOM      7  N   UNL     1      34.546  -9.002 -23.382  0.00  0.00    -0.193 N 
ATOM      8  N   UNL     1      32.160  -9.254 -23.263  0.00  0.00    -0.231 NA
ATOM      9  N   UNL     1      35.500  -8.035 -23.330  0.00  0.00    -0.179 NA
ATOM     10  C   UNL     1      33.691 -11.214 -23.577  0.00  0.00    +0.019 C 
ATOM     11  C   UNL     1      33.268  -8.465 -23.242  0.00  0.00    +0.137 C 
ATOM     12  C   UNL     1      33.431  -7.105 -23.099  0.00  0.00    +0.121 C 
ATOM     13  C   UNL     1      34.737 -10.372 -23.546  0.00  0.00    +0.145 C 
ATOM     14  C   UNL     1      32.370 -10.528 -23.419  0.00  0.00    +0.097 C 
ATOM     15  C   UNL     1      34.816  -6.902 -23.160  0.00  0.00    +0.103 C 
BRANCH  12  17
ATOM     16  N   UNL     1      30.256  -4.355 -22.589  0.00  0.00    -0.242 NA
ATOM     17  C   UNL     1      32.358  -6.175 -22.927  0.00  0.00    -0.007 C 
ATOM     18  C   UNL     1      31.801  -5.970 -21.667  0.00  0.00    +0.017 C 
ATOM     19  C   UNL     1      31.861  -5.467 -24.018  0.00  0.00    +0.017 C 
ATOM     20  C   UNL     1      30.763  -5.059 -21.553  0.00  0.00    +0.099 C 
ATOM     21  C   UNL     1      30.820  -4.578 -23.798  0.00  0.00    +0.099 C 
ENDBRANCH  12  17
ENDBRANCH   2  10
BRANCH   1  22
ATOM     22  O   UNL     1      34.172 -16.785 -24.158  0.00  0.00    -0.478 OA
BRANCH  22  23
ATOM     23  C   UNL     1      35.036 -17.452 -23.248  0.00  0.00    +0.183 C 
BRANCH  23  24
ATOM     24  C   UNL     1      34.557 -18.885 -23.080  0.00  0.00    -0.029 C 
BRANCH  24  25
ATOM     25  N   UNL     1      35.370 -19.589 -22.089  0.00  0.00    +0.389 N 
ATOM     26  C   UNL     1      36.385 -18.688 -21.525  0.00  0.00    -0.077 C 
ATOM     27  C   UNL     1      34.517 -20.155 -21.035  0.00  0.00    -0.077 C 
ATOM     28  C   UNL     1      37.276 -19.421 -20.521  0.00  0.00    -0.023 C 
ATOM     29  C   UNL     1      35.347 -20.936 -20.015  0.00  0.00    -0.023 C 
ATOM     30  C   UNL     1      36.449 -20.071 -19.416  0.00  0.00    -0.004 C 
ATOM     31  H   UNL     1      35.854 -20.359 -22.550  0.00  0.00    -0.080 HD
ENDBRANCH  24  25
ENDBRANCH  23  24
ENDBRANCH  22  23
ENDBRANCH   1  22
TORSDOF 6
ENDMDL
