MODEL 1
REMARK VINA RESULT:     -10.9      0.000      0.000
REMARK  Name = 447219
REMARK  7 active torsions:
REMARK  status: ('A' for Active; 'I' for Inactive)
REMARK    1  A    between atoms: N_2  and  C_11
REMARK    2  A    between atoms: N_3  and  C_24
REMARK    3  A    between atoms: C_11  and  C_14
REMARK    4  A    between atoms: N_13  and  C_16
REMARK    5  A    between atoms: C_16  and  C_19
REMARK    6  A    between atoms: C_24  and  C_27
REMARK    7  A    between atoms: C_27  and  C_29
REMARK                            x       y       z     vdW  Elec       q    Type
REMARK                         _______ _______ _______ _____ _____    ______ ____
ROOT
ATOM      1  O   UNL     1      31.981 -10.528 -23.471  0.00  0.00    -0.267 OA
ATOM      2  N   UNL     1      32.073 -12.128 -21.761  0.00  0.00    -0.246 N 
ATOM      3  N   UNL     1      31.712  -8.451 -21.777  0.00  0.00    -0.310 N 
ATOM      4  N   UNL     1      31.795  -9.967 -19.991  0.00  0.00    -0.224 NA
ATOM      5  C   UNL     1      32.041 -12.327 -20.388  0.00  0.00    +0.052 C 
ATOM      6  C   UNL     1      31.819  -9.722 -21.268  0.00  0.00    +0.183 C 
ATOM      7  C   UNL     1      31.966 -10.841 -22.287  0.00  0.00    +0.284 C 
ATOM      8  C   UNL     1      31.906 -11.265 -19.581  0.00  0.00    +0.111 C 
ATOM      9  C   UNL     1      32.156 -13.716 -19.831  0.00  0.00    +0.049 C 
ATOM     10  H   UNL     1      31.737  -8.326 -22.752  0.00  0.00    +0.149 HD
ENDROOT
BRANCH   2  11
ATOM     11  C   UNL     1      32.218 -13.269 -22.658  0.00  0.00    +0.183 C 
BRANCH  11  14
ATOM     12  O   UNL     1      34.553 -12.790 -23.053  0.00  0.00    -0.273 OA
ATOM     13  N   UNL     1      33.896 -14.983 -22.655  0.00  0.00    -0.298 N 
ATOM     14  C   UNL     1      33.683 -13.621 -22.798  0.00  0.00    +0.243 C 
ATOM     15  H   UNL     1      33.123 -15.558 -22.451  0.00  0.00    +0.150 HD
BRANCH  13  16
ATOM     16  C   UNL     1      35.195 -15.603 -22.791  0.00  0.00    +0.138 C 
BRANCH  16  19
ATOM     17  F   UNL     1      34.504 -17.570 -24.696  0.00  0.00    -0.203 F 
ATOM     18  N   UNL     1      35.471 -17.404 -21.199  0.00  0.00    -0.244 NA
ATOM     19  C   UNL     1      35.155 -17.069 -22.465  0.00  0.00    +0.106 C 
ATOM     20  C   UNL     1      34.807 -17.968 -23.455  0.00  0.00    +0.155 C 
ATOM     21  C   UNL     1      34.781 -19.317 -23.117  0.00  0.00    +0.033 C 
ATOM     22  C   UNL     1      35.434 -18.724 -20.908  0.00  0.00    +0.099 C 
ATOM     23  C   UNL     1      35.100 -19.710 -21.822  0.00  0.00    +0.023 C 
ENDBRANCH  16  19
ENDBRANCH  13  16
ENDBRANCH  11  14
ENDBRANCH   2  11
BRANCH   3  24
ATOM     24  C   UNL     1      31.568  -7.305 -20.937  0.00  0.00    +0.162 C 
BRANCH  24  27
ATOM     25  F   UNL     1      33.699  -7.245 -19.954  0.00  0.00    -0.196 F 
ATOM     26  F   UNL     1      32.669  -5.355 -20.231  0.00  0.00    -0.196 F 
ATOM     27  C   UNL     1      32.899  -6.563 -20.827  0.00  0.00    +0.316 C 
BRANCH  27  29
ATOM     28  N   UNL     1      32.852  -5.699 -23.088  0.00  0.00    -0.243 NA
ATOM     29  C   UNL     1      33.545  -6.411 -22.183  0.00  0.00    +0.121 C 
ATOM     30  C   UNL     1      34.772  -6.998 -22.400  0.00  0.00    +0.020 C 
ATOM     31  C   UNL     1      35.339  -6.839 -23.660  0.00  0.00    +0.003 C 
ATOM     32  C   UNL     1      33.435  -5.566 -24.300  0.00  0.00    +0.099 C 
ATOM     33  C   UNL     1      34.665  -6.112 -24.634  0.00  0.00    +0.021 C 
ENDBRANCH  27  29
ENDBRANCH  24  27
ENDBRANCH   3  24
TORSDOF 7
ENDMDL
MODEL 2
REMARK VINA RESULT:     -10.7      1.190      1.603
REMARK  Name = 447219
REMARK  7 active torsions:
REMARK  status: ('A' for Active; 'I' for Inactive)
REMARK    1  A    between atoms: N_2  and  C_11
REMARK    2  A    between atoms: N_3  and  C_24
REMARK    3  A    between atoms: C_11  and  C_14
REMARK    4  A    between atoms: N_13  and  C_16
REMARK    5  A    between atoms: C_16  and  C_19
REMARK    6  A    between atoms: C_24  and  C_27
REMARK    7  A    between atoms: C_27  and  C_29
REMARK                            x       y       z     vdW  Elec       q    Type
REMARK                         _______ _______ _______ _____ _____    ______ ____
ROOT
ATOM      1  O   UNL     1      31.904 -10.306 -23.270  0.00  0.00    -0.267 OA
ATOM      2  N   UNL     1      32.055 -12.030 -21.691  0.00  0.00    -0.246 N 
ATOM      3  N   UNL     1      31.823  -8.354 -21.417  0.00  0.00    -0.310 N 
ATOM      4  N   UNL     1      31.972 -10.000 -19.755  0.00  0.00    -0.224 NA
ATOM      5  C   UNL     1      32.108 -12.330 -20.337  0.00  0.00    +0.052 C 
ATOM      6  C   UNL     1      31.919  -9.662 -21.010  0.00  0.00    +0.183 C 
ATOM      7  C   UNL     1      31.958 -10.706 -22.114  0.00  0.00    +0.284 C 
ATOM      8  C   UNL     1      32.065 -11.327 -19.448  0.00  0.00    +0.111 C 
ATOM      9  C   UNL     1      32.211 -13.760 -19.890  0.00  0.00    +0.049 C 
ATOM     10  H   UNL     1      31.787  -8.158 -22.381  0.00  0.00    +0.149 HD
ENDROOT
BRANCH   2  11
ATOM     11  C   UNL     1      32.099 -13.106 -22.675  0.00  0.00    +0.183 C 
BRANCH  11  14
ATOM     12  O   UNL     1      34.408 -12.656 -23.227  0.00  0.00    -0.273 OA
ATOM     13  N   UNL     1      33.726 -14.854 -22.907  0.00  0.00    -0.298 N 
ATOM     14  C   UNL     1      33.539 -13.481 -22.953  0.00  0.00    +0.243 C 
ATOM     15  H   UNL     1      32.956 -15.423 -22.677  0.00  0.00    +0.150 HD
BRANCH  13  16
ATOM     16  C   UNL     1      34.993 -15.492 -23.183  0.00  0.00    +0.138 C 
BRANCH  16  19
ATOM     17  F   UNL     1      35.320 -16.203 -20.469  0.00  0.00    -0.203 F 
ATOM     18  N   UNL     1      34.869 -17.859 -23.671  0.00  0.00    -0.244 NA
ATOM     19  C   UNL     1      35.016 -16.920 -22.716  0.00  0.00    +0.106 C 
ATOM     20  C   UNL     1      35.180 -17.184 -21.370  0.00  0.00    +0.155 C 
ATOM     21  C   UNL     1      35.195 -18.517 -20.973  0.00  0.00    +0.033 C 
ATOM     22  C   UNL     1      34.889 -19.143 -23.247  0.00  0.00    +0.099 C 
ATOM     23  C   UNL     1      35.047 -19.521 -21.924  0.00  0.00    +0.023 C 
ENDBRANCH  16  19
ENDBRANCH  13  16
ENDBRANCH  11  14
ENDBRANCH   2  11
BRANCH   3  24
ATOM     24  C   UNL     1      31.776  -7.269 -20.489  0.00  0.00    +0.162 C 
BRANCH  24  27
ATOM     25  F   UNL     1      32.633  -5.099 -20.231  0.00  0.00    -0.196 F 
ATOM     26  F   UNL     1      31.045  -5.384 -21.682  0.00  0.00    -0.196 F 
ATOM     27  C   UNL     1      32.175  -5.967 -21.181  0.00  0.00    +0.316 C 
BRANCH  27  29
ATOM     28  N   UNL     1      34.268  -6.955 -21.889  0.00  0.00    -0.243 NA
ATOM     29  C   UNL     1      33.204  -6.221 -22.256  0.00  0.00    +0.121 C 
ATOM     30  C   UNL     1      32.992  -5.698 -23.512  0.00  0.00    +0.020 C 
ATOM     31  C   UNL     1      33.959  -5.951 -24.479  0.00  0.00    +0.003 C 
ATOM     32  C   UNL     1      35.187  -7.180 -22.855  0.00  0.00    +0.099 C 
ATOM     33  C   UNL     1      35.080  -6.704 -24.153  0.00  0.00    +0.021 C 
ENDBRANCH  27  29
ENDBRANCH  24  27
ENDBRANCH   3  24
TORSDOF 7
ENDMDL
MODEL 3
REMARK VINA RESULT:     -10.6      9.595     13.517
REMARK  Name = 447219
REMARK  7 active torsions:
REMARK  status: ('A' for Active; 'I' for Inactive)
REMARK    1  A    between atoms: N_2  and  C_11
REMARK    2  A    between atoms: N_3  and  C_24
REMARK    3  A    between atoms: C_11  and  C_14
REMARK    4  A    between atoms: N_13  and  C_16
REMARK    5  A    between atoms: C_16  and  C_19
REMARK    6  A    between atoms: C_24  and  C_27
REMARK    7  A    between atoms: C_27  and  C_29
REMARK                            x       y       z     vdW  Elec       q    Type
REMARK                         _______ _______ _______ _____ _____    ______ ____
ROOT
ATOM      1  O   UNL     1      34.397 -24.245 -15.907  0.00  0.00    -0.267 OA
ATOM      2  N   UNL     1      32.158 -23.971 -15.273  0.00  0.00    -0.246 N 
ATOM      3  N   UNL     1      34.210 -22.564 -18.002  0.00  0.00    -0.310 N 
ATOM      4  N   UNL     1      31.957 -22.217 -17.455  0.00  0.00    -0.224 NA
ATOM      5  C   UNL     1      30.962 -23.333 -15.570  0.00  0.00    +0.052 C 
ATOM      6  C   UNL     1      33.103 -22.788 -17.221  0.00  0.00    +0.183 C 
ATOM      7  C   UNL     1      33.287 -23.750 -16.059  0.00  0.00    +0.284 C 
ATOM      8  C   UNL     1      30.913 -22.504 -16.623  0.00  0.00    +0.111 C 
ATOM      9  C   UNL     1      29.750 -23.578 -14.718  0.00  0.00    +0.049 C 
ATOM     10  H   UNL     1      35.051 -23.024 -17.778  0.00  0.00    +0.149 HD
ENDROOT
BRANCH   2  11
ATOM     11  C   UNL     1      32.233 -24.878 -14.132  0.00  0.00    +0.183 C 
BRANCH  11  14
ATOM     12  O   UNL     1      32.916 -23.346 -12.394  0.00  0.00    -0.273 OA
ATOM     13  N   UNL     1      34.393 -24.997 -13.094  0.00  0.00    -0.298 N 
ATOM     14  C   UNL     1      33.185 -24.316 -13.099  0.00  0.00    +0.243 C 
ATOM     15  H   UNL     1      34.500 -25.763 -13.704  0.00  0.00    +0.150 HD
BRANCH  13  16
ATOM     16  C   UNL     1      35.503 -24.639 -12.240  0.00  0.00    +0.138 C 
BRANCH  16  19
ATOM     17  F   UNL     1      37.393 -26.623 -11.554  0.00  0.00    -0.203 F 
ATOM     18  N   UNL     1      37.062 -23.902 -13.938  0.00  0.00    -0.244 NA
ATOM     19  C   UNL     1      36.822 -24.782 -12.946  0.00  0.00    +0.106 C 
ATOM     20  C   UNL     1      37.691 -25.779 -12.549  0.00  0.00    +0.155 C 
ATOM     21  C   UNL     1      38.902 -25.882 -13.226  0.00  0.00    +0.033 C 
ATOM     22  C   UNL     1      38.249 -24.033 -14.572  0.00  0.00    +0.099 C 
ATOM     23  C   UNL     1      39.194 -24.996 -14.258  0.00  0.00    +0.023 C 
ENDBRANCH  16  19
ENDBRANCH  13  16
ENDBRANCH  11  14
ENDBRANCH   2  11
BRANCH   3  24
ATOM     24  C   UNL     1      34.182 -21.685 -19.129  0.00  0.00    +0.162 C 
BRANCH  24  27
ATOM     25  F   UNL     1      36.317 -22.294 -19.891  0.00  0.00    -0.196 F 
ATOM     26  F   UNL     1      36.202 -20.818 -18.305  0.00  0.00    -0.196 F 
ATOM     27  C   UNL     1      35.597 -21.214 -19.463  0.00  0.00    +0.316 C 
BRANCH  27  29
ATOM     28  N   UNL     1      36.556 -19.204 -20.411  0.00  0.00    -0.243 NA
ATOM     29  C   UNL     1      35.568 -20.111 -20.493  0.00  0.00    +0.121 C 
ATOM     30  C   UNL     1      34.555 -20.105 -21.427  0.00  0.00    +0.020 C 
ATOM     31  C   UNL     1      34.558 -19.076 -22.362  0.00  0.00    +0.003 C 
ATOM     32  C   UNL     1      36.525 -18.218 -21.336  0.00  0.00    +0.099 C 
ATOM     33  C   UNL     1      35.557 -18.110 -22.323  0.00  0.00    +0.021 C 
ENDBRANCH  27  29
ENDBRANCH  24  27
ENDBRANCH   3  24
TORSDOF 7
ENDMDL
MODEL 4
REMARK VINA RESULT:     -10.5      1.812     10.223
REMARK  Name = 447219
REMARK  7 active torsions:
REMARK  status: ('A' for Active; 'I' for Inactive)
REMARK    1  A    between atoms: N_2  and  C_11
REMARK    2  A    between atoms: N_3  and  C_24
REMARK    3  A    between atoms: C_11  and  C_14
REMARK    4  A    between atoms: N_13  and  C_16
REMARK    5  A    between atoms: C_16  and  C_19
REMARK    6  A    between atoms: C_24  and  C_27
REMARK    7  A    between atoms: C_27  and  C_29
REMARK                            x       y       z     vdW  Elec       q    Type
REMARK                         _______ _______ _______ _____ _____    ______ ____
ROOT
ATOM      1  O   UNL     1      34.082 -14.142 -23.788  0.00  0.00    -0.267 OA
ATOM      2  N   UNL     1      32.875 -12.841 -22.258  0.00  0.00    -0.246 N 
ATOM      3  N   UNL     1      34.880 -15.926 -21.935  0.00  0.00    -0.310 N 
ATOM      4  N   UNL     1      33.702 -14.697 -20.323  0.00  0.00    -0.224 NA
ATOM      5  C   UNL     1      32.496 -12.707 -20.930  0.00  0.00    +0.052 C 
ATOM      6  C   UNL     1      34.087 -14.872 -21.554  0.00  0.00    +0.183 C 
ATOM      7  C   UNL     1      33.679 -13.908 -22.656  0.00  0.00    +0.284 C 
ATOM      8  C   UNL     1      32.915 -13.618 -20.041  0.00  0.00    +0.111 C 
ATOM      9  C   UNL     1      31.630 -11.554 -20.511  0.00  0.00    +0.049 C 
ATOM     10  H   UNL     1      35.140 -16.007 -22.880  0.00  0.00    +0.149 HD
ENDROOT
BRANCH   2  11
ATOM     11  C   UNL     1      32.431 -11.861 -23.243  0.00  0.00    +0.183 C 
BRANCH  11  14
ATOM     12  O   UNL     1      34.600 -11.072 -23.957  0.00  0.00    -0.273 OA
ATOM     13  N   UNL     1      33.131  -9.585 -22.943  0.00  0.00    -0.298 N 
ATOM     14  C   UNL     1      33.511 -10.820 -23.447  0.00  0.00    +0.243 C 
ATOM     15  H   UNL     1      32.230  -9.497 -22.554  0.00  0.00    +0.150 HD
BRANCH  13  16
ATOM     16  C   UNL     1      33.989  -8.423 -22.958  0.00  0.00    +0.138 C 
BRANCH  16  19
ATOM     17  F   UNL     1      33.467  -7.925 -20.228  0.00  0.00    -0.203 F 
ATOM     18  N   UNL     1      32.890  -6.321 -23.435  0.00  0.00    -0.244 NA
ATOM     19  C   UNL     1      33.275  -7.191 -22.481  0.00  0.00    +0.106 C 
ATOM     20  C   UNL     1      33.058  -7.022 -21.127  0.00  0.00    +0.155 C 
ATOM     21  C   UNL     1      32.395  -5.869 -20.722  0.00  0.00    +0.033 C 
ATOM     22  C   UNL     1      32.247  -5.212 -23.003  0.00  0.00    +0.099 C 
ATOM     23  C   UNL     1      31.979  -4.942 -21.671  0.00  0.00    +0.023 C 
ENDBRANCH  16  19
ENDBRANCH  13  16
ENDBRANCH  11  14
ENDBRANCH   2  11
BRANCH   3  24
ATOM     24  C   UNL     1      35.339 -16.909 -21.005  0.00  0.00    +0.162 C 
BRANCH  24  27
ATOM     25  F   UNL     1      36.823 -18.307 -22.168  0.00  0.00    -0.196 F 
ATOM     26  F   UNL     1      34.758 -18.262 -22.834  0.00  0.00    -0.196 F 
ATOM     27  C   UNL     1      35.536 -18.249 -21.711  0.00  0.00    +0.316 C 
BRANCH  27  29
ATOM     28  N   UNL     1      36.258 -19.941 -20.137  0.00  0.00    -0.243 NA
ATOM     29  C   UNL     1      35.214 -19.399 -20.787  0.00  0.00    +0.121 C 
ATOM     30  C   UNL     1      33.903 -19.806 -20.671  0.00  0.00    +0.020 C 
ATOM     31  C   UNL     1      33.641 -20.867 -19.811  0.00  0.00    +0.003 C 
ATOM     32  C   UNL     1      35.963 -20.970 -19.310  0.00  0.00    +0.099 C 
ATOM     33  C   UNL     1      34.684 -21.466 -19.114  0.00  0.00    +0.021 C 
ENDBRANCH  27  29
ENDBRANCH  24  27
ENDBRANCH   3  24
TORSDOF 7
ENDMDL
MODEL 5
REMARK VINA RESULT:     -10.5      9.852     14.929
REMARK  Name = 447219
REMARK  7 active torsions:
REMARK  status: ('A' for Active; 'I' for Inactive)
REMARK    1  A    between atoms: N_2  and  C_11
REMARK    2  A    between atoms: N_3  and  C_24
REMARK    3  A    between atoms: C_11  and  C_14
REMARK    4  A    between atoms: N_13  and  C_16
REMARK    5  A    between atoms: C_16  and  C_19
REMARK    6  A    between atoms: C_24  and  C_27
REMARK    7  A    between atoms: C_27  and  C_29
REMARK                            x       y       z     vdW  Elec       q    Type
REMARK                         _______ _______ _______ _____ _____    ______ ____
ROOT
ATOM      1  O   UNL     1      34.648 -22.423 -15.355  0.00  0.00    -0.267 OA
ATOM      2  N   UNL     1      32.472 -23.277 -15.528  0.00  0.00    -0.246 N 
ATOM      3  N   UNL     1      35.055 -23.432 -12.892  0.00  0.00    -0.310 N 
ATOM      4  N   UNL     1      32.892 -24.332 -12.962  0.00  0.00    -0.224 NA
ATOM      5  C   UNL     1      31.485 -24.011 -14.887  0.00  0.00    +0.052 C 
ATOM      6  C   UNL     1      33.852 -23.651 -13.516  0.00  0.00    +0.183 C 
ATOM      7  C   UNL     1      33.698 -23.049 -14.904  0.00  0.00    +0.284 C 
ATOM      8  C   UNL     1      31.730 -24.495 -13.661  0.00  0.00    +0.111 C 
ATOM      9  C   UNL     1      30.169 -24.251 -15.567  0.00  0.00    +0.049 C 
ATOM     10  H   UNL     1      35.745 -22.910 -13.360  0.00  0.00    +0.149 HD
ENDROOT
BRANCH   2  11
ATOM     11  C   UNL     1      32.227 -22.740 -16.862  0.00  0.00    +0.183 C 
BRANCH  11  14
ATOM     12  O   UNL     1      33.652 -24.288 -18.050  0.00  0.00    -0.273 OA
ATOM     13  N   UNL     1      34.061 -22.007 -18.226  0.00  0.00    -0.298 N 
ATOM     14  C   UNL     1      33.367 -23.123 -17.781  0.00  0.00    +0.243 C 
ATOM     15  H   UNL     1      33.743 -21.118 -17.947  0.00  0.00    +0.150 HD
BRANCH  13  16
ATOM     16  C   UNL     1      35.227 -22.084 -19.076  0.00  0.00    +0.138 C 
BRANCH  16  19
ATOM     17  F   UNL     1      33.214 -20.772 -20.562  0.00  0.00    -0.203 F 
ATOM     18  N   UNL     1      36.717 -20.291 -19.726  0.00  0.00    -0.244 NA
ATOM     19  C   UNL     1      35.471 -20.797 -19.812  0.00  0.00    +0.106 C 
ATOM     20  C   UNL     1      34.432 -20.219 -20.516  0.00  0.00    +0.155 C 
ATOM     21  C   UNL     1      34.694 -19.027 -21.184  0.00  0.00    +0.033 C 
ATOM     22  C   UNL     1      36.933 -19.133 -20.389  0.00  0.00    +0.099 C 
ATOM     23  C   UNL     1      35.966 -18.467 -21.124  0.00  0.00    +0.023 C 
ENDBRANCH  16  19
ENDBRANCH  13  16
ENDBRANCH  11  14
ENDBRANCH   2  11
BRANCH   3  24
ATOM     24  C   UNL     1      35.339 -23.938 -11.586  0.00  0.00    +0.162 C 
BRANCH  24  27
ATOM     25  F   UNL     1      37.078 -24.394 -10.077  0.00  0.00    -0.196 F 
ATOM     26  F   UNL     1      37.100 -22.470 -11.080  0.00  0.00    -0.196 F 
ATOM     27  C   UNL     1      36.829 -23.794 -11.279  0.00  0.00    +0.316 C 
BRANCH  27  29
ATOM     28  N   UNL     1      37.859 -23.597 -13.461  0.00  0.00    -0.243 NA
ATOM     29  C   UNL     1      37.667 -24.384 -12.388  0.00  0.00    +0.121 C 
ATOM     30  C   UNL     1      38.168 -25.657 -12.232  0.00  0.00    +0.020 C 
ATOM     31  C   UNL     1      38.936 -26.170 -13.272  0.00  0.00    +0.003 C 
ATOM     32  C   UNL     1      38.610 -24.131 -14.451  0.00  0.00    +0.099 C 
ATOM     33  C   UNL     1      39.166 -25.400 -14.406  0.00  0.00    +0.021 C 
ENDBRANCH  27  29
ENDBRANCH  24  27
ENDBRANCH   3  24
TORSDOF 7
ENDMDL
MODEL 6
REMARK VINA RESULT:     -10.4     12.300     15.312
REMARK  Name = 447219
REMARK  7 active torsions:
REMARK  status: ('A' for Active; 'I' for Inactive)
REMARK    1  A    between atoms: N_2  and  C_11
REMARK    2  A    between atoms: N_3  and  C_24
REMARK    3  A    between atoms: C_11  and  C_14
REMARK    4  A    between atoms: N_13  and  C_16
REMARK    5  A    between atoms: C_16  and  C_19
REMARK    6  A    between atoms: C_24  and  C_27
REMARK    7  A    between atoms: C_27  and  C_29
REMARK                            x       y       z     vdW  Elec       q    Type
REMARK                         _______ _______ _______ _____ _____    ______ ____
ROOT
ATOM      1  O   UNL     1      35.499 -25.558 -14.979  0.00  0.00    -0.267 OA
ATOM      2  N   UNL     1      36.757 -24.615 -13.242  0.00  0.00    -0.246 N 
ATOM      3  N   UNL     1      33.134 -25.085 -13.781  0.00  0.00    -0.310 N 
ATOM      4  N   UNL     1      34.295 -24.119 -11.989  0.00  0.00    -0.224 NA
ATOM      5  C   UNL     1      36.698 -23.994 -12.003  0.00  0.00    +0.052 C 
ATOM      6  C   UNL     1      34.293 -24.704 -13.152  0.00  0.00    +0.183 C 
ATOM      7  C   UNL     1      35.586 -25.005 -13.890  0.00  0.00    +0.284 C 
ATOM      8  C   UNL     1      35.499 -23.777 -11.442  0.00  0.00    +0.111 C 
ATOM      9  C   UNL     1      37.964 -23.577 -11.312  0.00  0.00    +0.049 C 
ATOM     10  H   UNL     1      33.193 -25.524 -14.660  0.00  0.00    +0.149 HD
ENDROOT
BRANCH   2  11
ATOM     11  C   UNL     1      38.051 -24.861 -13.870  0.00  0.00    +0.183 C 
BRANCH  11  14
ATOM     12  O   UNL     1      39.426 -23.563 -15.373  0.00  0.00    -0.273 OA
ATOM     13  N   UNL     1      37.139 -23.158 -15.293  0.00  0.00    -0.298 N 
ATOM     14  C   UNL     1      38.307 -23.814 -14.932  0.00  0.00    +0.243 C 
ATOM     15  H   UNL     1      36.295 -23.442 -14.874  0.00  0.00    +0.150 HD
BRANCH  13  16
ATOM     16  C   UNL     1      37.100 -22.076 -16.251  0.00  0.00    +0.138 C 
BRANCH  16  19
ATOM     17  F   UNL     1      37.020 -20.900 -18.817  0.00  0.00    -0.203 F 
ATOM     18  N   UNL     1      34.840 -22.842 -16.655  0.00  0.00    -0.244 NA
ATOM     19  C   UNL     1      35.896 -22.163 -17.146  0.00  0.00    +0.106 C 
ATOM     20  C   UNL     1      35.938 -21.560 -18.388  0.00  0.00    +0.155 C 
ATOM     21  C   UNL     1      34.806 -21.663 -19.190  0.00  0.00    +0.033 C 
ATOM     22  C   UNL     1      33.758 -22.919 -17.463  0.00  0.00    +0.099 C 
ATOM     23  C   UNL     1      33.692 -22.353 -18.726  0.00  0.00    +0.023 C 
ENDBRANCH  16  19
ENDBRANCH  13  16
ENDBRANCH  11  14
ENDBRANCH   2  11
BRANCH   3  24
ATOM     24  C   UNL     1      31.845 -24.865 -13.204  0.00  0.00    +0.162 C 
BRANCH  24  27
ATOM     25  F   UNL     1      32.378 -22.762 -14.099  0.00  0.00    -0.196 F 
ATOM     26  F   UNL     1      31.020 -22.816 -12.408  0.00  0.00    -0.196 F 
ATOM     27  C   UNL     1      31.339 -23.469 -13.564  0.00  0.00    +0.316 C 
BRANCH  27  29
ATOM     28  N   UNL     1      30.002 -24.723 -15.146  0.00  0.00    -0.243 NA
ATOM     29  C   UNL     1      30.165 -23.550 -14.511  0.00  0.00    +0.121 C 
ATOM     30  C   UNL     1      29.359 -22.443 -14.659  0.00  0.00    +0.020 C 
ATOM     31  C   UNL     1      28.287 -22.551 -15.538  0.00  0.00    +0.003 C 
ATOM     32  C   UNL     1      28.949 -24.789 -15.992  0.00  0.00    +0.099 C 
ATOM     33  C   UNL     1      28.070 -23.742 -16.222  0.00  0.00    +0.021 C 
ENDBRANCH  27  29
ENDBRANCH  24  27
ENDBRANCH   3  24
TORSDOF 7
ENDMDL
MODEL 7
REMARK VINA RESULT:     -10.4      2.605     10.618
REMARK  Name = 447219
REMARK  7 active torsions:
REMARK  status: ('A' for Active; 'I' for Inactive)
REMARK    1  A    between atoms: N_2  and  C_11
REMARK    2  A    between atoms: N_3  and  C_24
REMARK    3  A    between atoms: C_11  and  C_14
REMARK    4  A    between atoms: N_13  and  C_16
REMARK    5  A    between atoms: C_16  and  C_19
REMARK    6  A    between atoms: C_24  and  C_27
REMARK    7  A    between atoms: C_27  and  C_29
REMARK                            x       y       z     vdW  Elec       q    Type
REMARK                         _______ _______ _______ _____ _____    ______ ____
ROOT
ATOM      1  O   UNL     1      35.242 -14.734 -21.134  0.00  0.00    -0.267 OA
ATOM      2  N   UNL     1      34.334 -14.683 -23.293  0.00  0.00    -0.246 N 
ATOM      3  N   UNL     1      35.751 -17.377 -21.201  0.00  0.00    -0.310 N 
ATOM      4  N   UNL     1      34.863 -17.438 -23.370  0.00  0.00    -0.224 NA
ATOM      5  C   UNL     1      34.023 -15.440 -24.413  0.00  0.00    +0.052 C 
ATOM      6  C   UNL     1      35.176 -16.777 -22.294  0.00  0.00    +0.183 C 
ATOM      7  C   UNL     1      34.919 -15.283 -22.179  0.00  0.00    +0.284 C 
ATOM      8  C   UNL     1      34.293 -16.753 -24.405  0.00  0.00    +0.111 C 
ATOM      9  C   UNL     1      33.393 -14.785 -25.608  0.00  0.00    +0.049 C 
ATOM     10  H   UNL     1      35.966 -16.827 -20.415  0.00  0.00    +0.149 HD
ENDROOT
BRANCH   2  11
ATOM     11  C   UNL     1      34.048 -13.252 -23.280  0.00  0.00    +0.183 C 
BRANCH  11  14
ATOM     12  O   UNL     1      32.229 -13.865 -21.814  0.00  0.00    -0.273 OA
ATOM     13  N   UNL     1      32.394 -11.670 -22.560  0.00  0.00    -0.298 N 
ATOM     14  C   UNL     1      32.807 -12.990 -22.455  0.00  0.00    +0.243 C 
ATOM     15  H   UNL     1      32.936 -11.053 -23.102  0.00  0.00    +0.150 HD
BRANCH  13  16
ATOM     16  C   UNL     1      31.207 -11.156 -21.915  0.00  0.00    +0.138 C 
BRANCH  16  19
ATOM     17  F   UNL     1      31.608 -10.999 -19.123  0.00  0.00    -0.203 F 
ATOM     18  N   UNL     1      31.510  -8.756 -21.979  0.00  0.00    -0.244 NA
ATOM     19  C   UNL     1      31.472  -9.859 -21.205  0.00  0.00    +0.106 C 
ATOM     20  C   UNL     1      31.658  -9.868 -19.836  0.00  0.00    +0.155 C 
ATOM     21  C   UNL     1      31.902  -8.648 -19.213  0.00  0.00    +0.033 C 
ATOM     22  C   UNL     1      31.749  -7.590 -21.338  0.00  0.00    +0.099 C 
ATOM     23  C   UNL     1      31.950  -7.483 -19.971  0.00  0.00    +0.023 C 
ENDBRANCH  16  19
ENDBRANCH  13  16
ENDBRANCH  11  14
ENDBRANCH   2  11
BRANCH   3  24
ATOM     24  C   UNL     1      36.048 -18.775 -21.169  0.00  0.00    +0.162 C 
BRANCH  24  27
ATOM     25  F   UNL     1      34.355 -20.182 -21.984  0.00  0.00    -0.196 F 
ATOM     26  F   UNL     1      33.797 -18.692 -20.508  0.00  0.00    -0.196 F 
ATOM     27  C   UNL     1      34.788 -19.573 -20.840  0.00  0.00    +0.316 C 
BRANCH  27  29
ATOM     28  N   UNL     1      36.295 -20.559 -19.222  0.00  0.00    -0.243 NA
ATOM     29  C   UNL     1      35.053 -20.568 -19.736  0.00  0.00    +0.121 C 
ATOM     30  C   UNL     1      34.031 -21.401 -19.337  0.00  0.00    +0.020 C 
ATOM     31  C   UNL     1      34.309 -22.306 -18.318  0.00  0.00    +0.003 C 
ATOM     32  C   UNL     1      36.527 -21.452 -18.234  0.00  0.00    +0.099 C 
ATOM     33  C   UNL     1      35.578 -22.339 -17.751  0.00  0.00    +0.021 C 
ENDBRANCH  27  29
ENDBRANCH  24  27
ENDBRANCH   3  24
TORSDOF 7
ENDMDL
MODEL 8
REMARK VINA RESULT:     -10.4      1.871     10.048
REMARK  Name = 447219
REMARK  7 active torsions:
REMARK  status: ('A' for Active; 'I' for Inactive)
REMARK    1  A    between atoms: N_2  and  C_11
REMARK    2  A    between atoms: N_3  and  C_24
REMARK    3  A    between atoms: C_11  and  C_14
REMARK    4  A    between atoms: N_13  and  C_16
REMARK    5  A    between atoms: C_16  and  C_19
REMARK    6  A    between atoms: C_24  and  C_27
REMARK    7  A    between atoms: C_27  and  C_29
REMARK                            x       y       z     vdW  Elec       q    Type
REMARK                         _______ _______ _______ _____ _____    ______ ____
ROOT
ATOM      1  O   UNL     1      34.268 -13.773 -23.729  0.00  0.00    -0.267 OA
ATOM      2  N   UNL     1      32.779 -12.642 -22.318  0.00  0.00    -0.246 N 
ATOM      3  N   UNL     1      34.858 -15.667 -21.908  0.00  0.00    -0.310 N 
ATOM      4  N   UNL     1      33.389 -14.613 -20.416  0.00  0.00    -0.224 NA
ATOM      5  C   UNL     1      32.194 -12.627 -21.060  0.00  0.00    +0.052 C 
ATOM      6  C   UNL     1      33.966 -14.676 -21.581  0.00  0.00    +0.183 C 
ATOM      7  C   UNL     1      33.685 -13.644 -22.661  0.00  0.00    +0.284 C 
ATOM      8  C   UNL     1      32.516 -13.589 -20.183  0.00  0.00    +0.111 C 
ATOM      9  C   UNL     1      31.219 -11.544 -20.699  0.00  0.00    +0.049 C 
ATOM     10  H   UNL     1      35.264 -15.664 -22.805  0.00  0.00    +0.149 HD
ENDROOT
BRANCH   2  11
ATOM     11  C   UNL     1      32.443 -11.604 -23.287  0.00  0.00    +0.183 C 
BRANCH  11  14
ATOM     12  O   UNL     1      34.579 -10.497 -23.502  0.00  0.00    -0.273 OA
ATOM     13  N   UNL     1      32.807  -9.361 -22.518  0.00  0.00    -0.298 N 
ATOM     14  C   UNL     1      33.405 -10.445 -23.143  0.00  0.00    +0.243 C 
ATOM     15  H   UNL     1      31.856  -9.429 -22.273  0.00  0.00    +0.150 HD
BRANCH  13  16
ATOM     16  C   UNL     1      33.510  -8.136 -22.208  0.00  0.00    +0.138 C 
BRANCH  16  19
ATOM     17  F   UNL     1      35.987  -6.907 -22.783  0.00  0.00    -0.203 F 
ATOM     18  N   UNL     1      32.673  -7.147 -24.251  0.00  0.00    -0.244 NA
ATOM     19  C   UNL     1      33.731  -7.291 -23.430  0.00  0.00    +0.106 C 
ATOM     20  C   UNL     1      34.974  -6.725 -23.639  0.00  0.00    +0.155 C 
ATOM     21  C   UNL     1      35.143  -5.950 -24.781  0.00  0.00    +0.033 C 
ATOM     22  C   UNL     1      32.875  -6.386 -25.351  0.00  0.00    +0.099 C 
ATOM     23  C   UNL     1      34.078  -5.773 -25.659  0.00  0.00    +0.023 C 
ENDBRANCH  16  19
ENDBRANCH  13  16
ENDBRANCH  11  14
ENDBRANCH   2  11
BRANCH   3  24
ATOM     24  C   UNL     1      35.217 -16.702 -20.991  0.00  0.00    +0.162 C 
BRANCH  24  27
ATOM     25  F   UNL     1      36.734 -17.948 -22.278  0.00  0.00    -0.196 F 
ATOM     26  F   UNL     1      34.635 -18.055 -22.820  0.00  0.00    -0.196 F 
ATOM     27  C   UNL     1      35.477 -18.005 -21.745  0.00  0.00    +0.316 C 
BRANCH  27  29
ATOM     28  N   UNL     1      36.420 -19.646 -20.235  0.00  0.00    -0.243 NA
ATOM     29  C   UNL     1      35.304 -19.198 -20.835  0.00  0.00    +0.121 C 
ATOM     30  C   UNL     1      34.045 -19.736 -20.683  0.00  0.00    +0.020 C 
ATOM     31  C   UNL     1      33.920 -20.833 -19.839  0.00  0.00    +0.003 C 
ATOM     32  C   UNL     1      36.259 -20.714 -19.422  0.00  0.00    +0.099 C 
ATOM     33  C   UNL     1      35.043 -21.339 -19.192  0.00  0.00    +0.021 C 
ENDBRANCH  27  29
ENDBRANCH  24  27
ENDBRANCH   3  24
TORSDOF 7
ENDMDL
MODEL 9
REMARK VINA RESULT:     -10.1      1.274      1.709
REMARK  Name = 447219
REMARK  7 active torsions:
REMARK  status: ('A' for Active; 'I' for Inactive)
REMARK    1  A    between atoms: N_2  and  C_11
REMARK    2  A    between atoms: N_3  and  C_24
REMARK    3  A    between atoms: C_11  and  C_14
REMARK    4  A    between atoms: N_13  and  C_16
REMARK    5  A    between atoms: C_16  and  C_19
REMARK    6  A    between atoms: C_24  and  C_27
REMARK    7  A    between atoms: C_27  and  C_29
REMARK                            x       y       z     vdW  Elec       q    Type
REMARK                         _______ _______ _______ _____ _____    ______ ____
ROOT
ATOM      1  O   UNL     1      31.896 -10.256 -23.376  0.00  0.00    -0.267 OA
ATOM      2  N   UNL     1      32.027 -11.934 -21.745  0.00  0.00    -0.246 N 
ATOM      3  N   UNL     1      31.776  -8.252 -21.582  0.00  0.00    -0.310 N 
ATOM      4  N   UNL     1      31.904  -9.849 -19.870  0.00  0.00    -0.224 NA
ATOM      5  C   UNL     1      32.059 -12.194 -20.382  0.00  0.00    +0.052 C 
ATOM      6  C   UNL     1      31.870  -9.547 -21.136  0.00  0.00    +0.183 C 
ATOM      7  C   UNL     1      31.933 -10.622 -22.208  0.00  0.00    +0.284 C 
ATOM      8  C   UNL     1      31.997 -11.166 -19.524  0.00  0.00    +0.111 C 
ATOM      9  C   UNL     1      32.161 -13.610 -19.893  0.00  0.00    +0.049 C 
ATOM     10  H   UNL     1      31.755  -8.084 -22.551  0.00  0.00    +0.149 HD
ENDROOT
BRANCH   2  11
ATOM     11  C   UNL     1      32.093 -13.037 -22.697  0.00  0.00    +0.183 C 
BRANCH  11  14
ATOM     12  O   UNL     1      34.326 -12.619 -23.516  0.00  0.00    -0.273 OA
ATOM     13  N   UNL     1      33.833 -14.683 -22.572  0.00  0.00    -0.298 N 
ATOM     14  C   UNL     1      33.539 -13.387 -22.969  0.00  0.00    +0.243 C 
ATOM     15  H   UNL     1      33.123 -15.212 -22.141  0.00  0.00    +0.150 HD
BRANCH  13  16
ATOM     16  C   UNL     1      35.128 -15.297 -22.759  0.00  0.00    +0.138 C 
BRANCH  16  19
ATOM     17  F   UNL     1      34.384 -17.037 -24.855  0.00  0.00    -0.203 F 
ATOM     18  N   UNL     1      35.400 -17.264 -21.375  0.00  0.00    -0.244 NA
ATOM     19  C   UNL     1      35.072 -16.789 -22.593  0.00  0.00    +0.106 C 
ATOM     20  C   UNL     1      34.698 -17.571 -23.669  0.00  0.00    +0.155 C 
ATOM     21  C   UNL     1      34.658 -18.948 -23.479  0.00  0.00    +0.033 C 
ATOM     22  C   UNL     1      35.349 -18.607 -21.228  0.00  0.00    +0.099 C 
ATOM     23  C   UNL     1      34.988 -19.484 -22.239  0.00  0.00    +0.023 C 
ENDBRANCH  16  19
ENDBRANCH  13  16
ENDBRANCH  11  14
ENDBRANCH   2  11
BRANCH   3  24
ATOM     24  C   UNL     1      31.709  -7.141 -20.686  0.00  0.00    +0.162 C 
BRANCH  24  27
ATOM     25  F   UNL     1      33.789  -6.526 -21.582  0.00  0.00    -0.196 F 
ATOM     26  F   UNL     1      32.880  -5.180 -20.143  0.00  0.00    -0.196 F 
ATOM     27  C   UNL     1      32.589  -6.000 -21.196  0.00  0.00    +0.316 C 
BRANCH  27  29
ATOM     28  N   UNL     1      31.834  -5.910 -23.495  0.00  0.00    -0.243 NA
ATOM     29  C   UNL     1      31.909  -5.258 -22.322  0.00  0.00    +0.121 C 
ATOM     30  C   UNL     1      31.422  -3.993 -22.079  0.00  0.00    +0.020 C 
ATOM     31  C   UNL     1      30.802  -3.336 -23.137  0.00  0.00    +0.003 C 
ATOM     32  C   UNL     1      31.225  -5.240 -24.499  0.00  0.00    +0.099 C 
ATOM     33  C   UNL     1      30.697  -3.964 -24.373  0.00  0.00    +0.021 C 
ENDBRANCH  27  29
ENDBRANCH  24  27
ENDBRANCH   3  24
TORSDOF 7
ENDMDL
