MODEL 1
REMARK VINA RESULT:     -11.7      0.000      0.000
REMARK  Name = 23658582
REMARK  4 active torsions:
REMARK  status: ('A' for Active; 'I' for Inactive)
REMARK    1  A    between atoms: N_3  and  C_13
REMARK    2  A    between atoms: C_8  and  C_25
REMARK    3  A    between atoms: C_15  and  C_22
REMARK    4  A    between atoms: N_24  and  C_29
REMARK                            x       y       z     vdW  Elec       q    Type
REMARK                         _______ _______ _______ _____ _____    ______ ____
ROOT
ATOM      1 CL   UNL     1      35.044 -19.746 -24.040  0.00  0.00    -0.082 Cl
ATOM      2  O   UNL     1      34.736 -15.414 -21.224  0.00  0.00    -0.352 OA
ATOM      3  N   UNL     1      33.708 -12.988 -23.515  0.00  0.00    -0.295 N 
ATOM      4  N   UNL     1      34.391 -14.097 -21.504  0.00  0.00    -0.062 NA
ATOM      5  C   UNL     1      34.239 -15.346 -23.407  0.00  0.00    +0.072 A 
ATOM      6  C   UNL     1      34.643 -16.157 -22.361  0.00  0.00    +0.183 A 
ATOM      7  C   UNL     1      34.099 -14.079 -22.808  0.00  0.00    +0.174 A 
ATOM      8  C   UNL     1      34.909 -17.519 -22.481  0.00  0.00    +0.101 C 
ATOM      9  C   UNL     1      34.078 -15.908 -24.682  0.00  0.00    +0.007 C 
ATOM     10  C   UNL     1      34.745 -18.065 -23.758  0.00  0.00    +0.065 C 
ATOM     11  C   UNL     1      34.338 -17.277 -24.839  0.00  0.00    +0.012 C 
ATOM     12  H   UNL     1      33.625 -13.150 -24.483  0.00  0.00    +0.154 HD
ENDROOT
BRANCH   3  13
ATOM     13  C   UNL     1      33.397 -11.654 -23.128  0.00  0.00    +0.049 C 
ATOM     14  C   UNL     1      34.238 -10.606 -23.500  0.00  0.00    +0.018 C 
ATOM     15  C   UNL     1      33.933  -9.299 -23.121  0.00  0.00    +0.073 C 
ATOM     16  C   UNL     1      32.251 -11.396 -22.377  0.00  0.00    +0.015 C 
ATOM     17  C   UNL     1      32.787  -9.040 -22.370  0.00  0.00    +0.004 C 
ATOM     18  C   UNL     1      31.946 -10.090 -21.998  0.00  0.00    +0.001 C 
BRANCH  15  22
ATOM     19  F   UNL     1      34.294  -7.349 -24.459  0.00  0.00    -0.166 F 
ATOM     20  F   UNL     1      35.176  -7.358 -22.479  0.00  0.00    -0.166 F 
ATOM     21  F   UNL     1      36.014  -8.613 -24.045  0.00  0.00    -0.166 F 
ATOM     22  C   UNL     1      34.833  -8.177 -23.517  0.00  0.00    +0.419 C 
ENDBRANCH  15  22
ENDBRANCH   3  13
BRANCH   8  25
ATOM     23  O   UNL     1      36.314 -17.949 -20.657  0.00  0.00    -0.270 OA
ATOM     24  N   UNL     1      34.572 -19.443 -21.076  0.00  0.00    -0.278 N 
ATOM     25  C   UNL     1      35.331 -18.293 -21.326  0.00  0.00    +0.253 C 
ATOM     26  H   UNL     1      33.815 -19.599 -21.685  0.00  0.00    +0.155 HD
BRANCH  24  29
ATOM     27  N   UNL     1      33.832 -22.027 -18.529  0.00  0.00    -0.221 NA
ATOM     28  N   UNL     1      36.210 -21.642 -18.588  0.00  0.00    -0.221 NA
ATOM     29  C   UNL     1      34.754 -20.412 -20.056  0.00  0.00    +0.089 C 
ATOM     30  C   UNL     1      33.695 -21.100 -19.499  0.00  0.00    +0.117 C 
ATOM     31  C   UNL     1      36.001 -20.726 -19.556  0.00  0.00    +0.117 C 
ATOM     32  C   UNL     1      35.098 -22.246 -18.126  0.00  0.00    +0.199 C 
ENDBRANCH  24  29
ENDBRANCH   8  25
TORSDOF 4
ENDMDL
MODEL 2
REMARK VINA RESULT:     -11.5      4.447      7.381
REMARK  Name = 23658582
REMARK  4 active torsions:
REMARK  status: ('A' for Active; 'I' for Inactive)
REMARK    1  A    between atoms: N_3  and  C_13
REMARK    2  A    between atoms: C_8  and  C_25
REMARK    3  A    between atoms: C_15  and  C_22
REMARK    4  A    between atoms: N_24  and  C_29
REMARK                            x       y       z     vdW  Elec       q    Type
REMARK                         _______ _______ _______ _____ _____    ______ ____
ROOT
ATOM      1 CL   UNL     1      36.093 -23.580 -15.572  0.00  0.00    -0.082 Cl
ATOM      2  O   UNL     1      33.248 -21.543 -19.385  0.00  0.00    -0.352 OA
ATOM      3  N   UNL     1      35.407 -19.275 -20.930  0.00  0.00    -0.295 N 
ATOM      4  N   UNL     1      33.486 -20.592 -20.371  0.00  0.00    -0.062 NA
ATOM      5  C   UNL     1      35.364 -20.862 -19.105  0.00  0.00    +0.072 A 
ATOM      6  C   UNL     1      34.371 -21.702 -18.632  0.00  0.00    +0.183 A 
ATOM      7  C   UNL     1      34.749 -20.200 -20.186  0.00  0.00    +0.174 A 
ATOM      8  C   UNL     1      34.523 -22.565 -17.550  0.00  0.00    +0.101 C 
ATOM      9  C   UNL     1      36.615 -20.862 -18.471  0.00  0.00    +0.007 C 
ATOM     10  C   UNL     1      35.775 -22.553 -16.928  0.00  0.00    +0.065 C 
ATOM     11  C   UNL     1      36.803 -21.718 -17.378  0.00  0.00    +0.012 C 
ATOM     12  H   UNL     1      36.303 -19.052 -20.588  0.00  0.00    +0.154 HD
ENDROOT
BRANCH   3  13
ATOM     13  C   UNL     1      35.051 -18.563 -22.110  0.00  0.00    +0.049 C 
ATOM     14  C   UNL     1      34.895 -17.178 -22.068  0.00  0.00    +0.018 C 
ATOM     15  C   UNL     1      34.546 -16.480 -23.225  0.00  0.00    +0.073 C 
ATOM     16  C   UNL     1      34.859 -19.250 -23.309  0.00  0.00    +0.015 C 
ATOM     17  C   UNL     1      34.353 -17.167 -24.423  0.00  0.00    +0.004 C 
ATOM     18  C   UNL     1      34.510 -18.553 -24.464  0.00  0.00    +0.001 C 
BRANCH  15  22
ATOM     19  F   UNL     1      33.155 -14.600 -22.719  0.00  0.00    -0.166 F 
ATOM     20  F   UNL     1      35.283 -14.369 -22.375  0.00  0.00    -0.166 F 
ATOM     21  F   UNL     1      34.512 -14.417 -24.408  0.00  0.00    -0.166 F 
ATOM     22  C   UNL     1      34.377 -14.998 -23.180  0.00  0.00    +0.419 C 
ENDBRANCH  15  22
ENDBRANCH   3  13
BRANCH   8  25
ATOM     23  O   UNL     1      33.308 -24.568 -17.551  0.00  0.00    -0.270 OA
ATOM     24  N   UNL     1      32.516 -22.806 -16.243  0.00  0.00    -0.278 N 
ATOM     25  C   UNL     1      33.423 -23.412 -17.122  0.00  0.00    +0.253 C 
ATOM     26  H   UNL     1      32.727 -21.881 -15.980  0.00  0.00    +0.155 HD
BRANCH  24  29
ATOM     27  N   UNL     1      30.266 -24.836 -14.116  0.00  0.00    -0.221 NA
ATOM     28  N   UNL     1      28.934 -23.485 -15.601  0.00  0.00    -0.221 NA
ATOM     29  C   UNL     1      31.335 -23.354 -15.682  0.00  0.00    +0.089 C 
ATOM     30  C   UNL     1      31.369 -24.294 -14.672  0.00  0.00    +0.117 C 
ATOM     31  C   UNL     1      30.078 -22.984 -16.112  0.00  0.00    +0.117 C 
ATOM     32  C   UNL     1      29.098 -24.394 -14.621  0.00  0.00    +0.199 C 
ENDBRANCH  24  29
ENDBRANCH   8  25
TORSDOF 4
ENDMDL
MODEL 3
REMARK VINA RESULT:     -11.5      6.686      9.470
REMARK  Name = 23658582
REMARK  4 active torsions:
REMARK  status: ('A' for Active; 'I' for Inactive)
REMARK    1  A    between atoms: N_3  and  C_13
REMARK    2  A    between atoms: C_8  and  C_25
REMARK    3  A    between atoms: C_15  and  C_22
REMARK    4  A    between atoms: N_24  and  C_29
REMARK                            x       y       z     vdW  Elec       q    Type
REMARK                         _______ _______ _______ _____ _____    ______ ____
ROOT
ATOM      1 CL   UNL     1      32.972 -24.691 -13.920  0.00  0.00    -0.082 Cl
ATOM      2  O   UNL     1      36.427 -22.349 -16.979  0.00  0.00    -0.352 OA
ATOM      3  N   UNL     1      34.492 -20.960 -19.532  0.00  0.00    -0.295 N 
ATOM      4  N   UNL     1      36.341 -21.614 -18.156  0.00  0.00    -0.062 NA
ATOM      5  C   UNL     1      34.253 -22.268 -17.510  0.00  0.00    +0.072 A 
ATOM      6  C   UNL     1      35.180 -22.736 -16.597  0.00  0.00    +0.183 A 
ATOM      7  C   UNL     1      35.039 -21.579 -18.455  0.00  0.00    +0.174 A 
ATOM      8  C   UNL     1      34.860 -23.488 -15.469  0.00  0.00    +0.101 C 
ATOM      9  C   UNL     1      32.894 -22.554 -17.311  0.00  0.00    +0.007 C 
ATOM     10  C   UNL     1      33.502 -23.766 -15.283  0.00  0.00    +0.065 C 
ATOM     11  C   UNL     1      32.536 -23.309 -16.185  0.00  0.00    +0.012 C 
ATOM     12  H   UNL     1      33.525 -21.118 -19.633  0.00  0.00    +0.154 HD
ENDROOT
BRANCH   3  13
ATOM     13  C   UNL     1      35.046 -20.129 -20.546  0.00  0.00    +0.049 C 
ATOM     14  C   UNL     1      34.426 -20.040 -21.791  0.00  0.00    +0.018 C 
ATOM     15  C   UNL     1      34.969 -19.225 -22.784  0.00  0.00    +0.073 C 
ATOM     16  C   UNL     1      36.209 -19.401 -20.292  0.00  0.00    +0.015 C 
ATOM     17  C   UNL     1      36.132 -18.498 -22.531  0.00  0.00    +0.004 C 
ATOM     18  C   UNL     1      36.752 -18.586 -21.284  0.00  0.00    +0.001 C 
BRANCH  15  22
ATOM     19  F   UNL     1      32.945 -19.184 -24.058  0.00  0.00    -0.166 F 
ATOM     20  F   UNL     1      34.589 -17.974 -24.788  0.00  0.00    -0.166 F 
ATOM     21  F   UNL     1      34.678 -20.140 -24.960  0.00  0.00    -0.166 F 
ATOM     22  C   UNL     1      34.308 -19.131 -24.118  0.00  0.00    +0.419 C 
ENDBRANCH  15  22
ENDBRANCH   3  13
BRANCH   8  25
ATOM     23  O   UNL     1      35.779 -23.805 -13.338  0.00  0.00    -0.270 OA
ATOM     24  N   UNL     1      37.033 -24.483 -15.185  0.00  0.00    -0.278 N 
ATOM     25  C   UNL     1      35.902 -23.939 -14.562  0.00  0.00    +0.253 C 
ATOM     26  H   UNL     1      37.000 -24.533 -16.167  0.00  0.00    +0.155 HD
BRANCH  24  29
ATOM     27  N   UNL     1      40.619 -24.969 -14.399  0.00  0.00    -0.221 NA
ATOM     28  N   UNL     1      39.304 -26.412 -12.987  0.00  0.00    -0.221 NA
ATOM     29  C   UNL     1      38.219 -24.972 -14.580  0.00  0.00    +0.089 C 
ATOM     30  C   UNL     1      39.470 -24.526 -14.952  0.00  0.00    +0.117 C 
ATOM     31  C   UNL     1      38.196 -25.925 -13.584  0.00  0.00    +0.117 C 
ATOM     32  C   UNL     1      40.465 -25.898 -13.437  0.00  0.00    +0.199 C 
ENDBRANCH  24  29
ENDBRANCH   8  25
TORSDOF 4
ENDMDL
MODEL 4
REMARK VINA RESULT:     -11.5      1.917      2.417
REMARK  Name = 23658582
REMARK  4 active torsions:
REMARK  status: ('A' for Active; 'I' for Inactive)
REMARK    1  A    between atoms: N_3  and  C_13
REMARK    2  A    between atoms: C_8  and  C_25
REMARK    3  A    between atoms: C_15  and  C_22
REMARK    4  A    between atoms: N_24  and  C_29
REMARK                            x       y       z     vdW  Elec       q    Type
REMARK                         _______ _______ _______ _____ _____    ______ ____
ROOT
ATOM      1 CL   UNL     1      35.264 -19.930 -23.976  0.00  0.00    -0.082 Cl
ATOM      2  O   UNL     1      34.784 -15.660 -21.090  0.00  0.00    -0.352 OA
ATOM      3  N   UNL     1      33.657 -13.241 -23.342  0.00  0.00    -0.295 N 
ATOM      4  N   UNL     1      34.386 -14.354 -21.349  0.00  0.00    -0.062 NA
ATOM      5  C   UNL     1      34.282 -15.577 -23.272  0.00  0.00    +0.072 A 
ATOM      6  C   UNL     1      34.720 -16.387 -22.239  0.00  0.00    +0.183 A 
ATOM      7  C   UNL     1      34.093 -14.326 -22.652  0.00  0.00    +0.174 A 
ATOM      8  C   UNL     1      35.041 -17.735 -22.381  0.00  0.00    +0.101 C 
ATOM      9  C   UNL     1      34.143 -16.125 -24.555  0.00  0.00    +0.007 C 
ATOM     10  C   UNL     1      34.898 -18.267 -23.666  0.00  0.00    +0.065 C 
ATOM     11  C   UNL     1      34.457 -17.479 -24.735  0.00  0.00    +0.012 C 
ATOM     12  H   UNL     1      33.579 -13.391 -24.312  0.00  0.00    +0.154 HD
ENDROOT
BRANCH   3  13
ATOM     13  C   UNL     1      33.293 -11.927 -22.933  0.00  0.00    +0.049 C 
ATOM     14  C   UNL     1      32.526 -11.742 -21.783  0.00  0.00    +0.018 C 
ATOM     15  C   UNL     1      32.170 -10.454 -21.382  0.00  0.00    +0.073 C 
ATOM     16  C   UNL     1      33.705 -10.824 -23.681  0.00  0.00    +0.015 C 
ATOM     17  C   UNL     1      32.581  -9.352 -22.130  0.00  0.00    +0.004 C 
ATOM     18  C   UNL     1      33.349  -9.538 -23.280  0.00  0.00    +0.001 C 
BRANCH  15  22
ATOM     19  F   UNL     1      30.066 -10.712 -20.272  0.00  0.00    -0.166 F 
ATOM     20  F   UNL     1      31.849 -10.889 -19.051  0.00  0.00    -0.166 F 
ATOM     21  F   UNL     1      31.237  -8.942 -19.802  0.00  0.00    -0.166 F 
ATOM     22  C   UNL     1      31.348 -10.256 -20.153  0.00  0.00    +0.419 C 
ENDBRANCH  15  22
ENDBRANCH   3  13
BRANCH   8  25
ATOM     23  O   UNL     1      36.548 -18.223 -20.656  0.00  0.00    -0.270 OA
ATOM     24  N   UNL     1      34.678 -19.596 -20.898  0.00  0.00    -0.278 N 
ATOM     25  C   UNL     1      35.495 -18.510 -21.238  0.00  0.00    +0.253 C 
ATOM     26  H   UNL     1      33.867 -19.711 -21.444  0.00  0.00    +0.155 HD
BRANCH  24  29
ATOM     27  N   UNL     1      33.966 -22.169 -18.333  0.00  0.00    -0.221 NA
ATOM     28  N   UNL     1      36.335 -21.737 -18.372  0.00  0.00    -0.221 NA
ATOM     29  C   UNL     1      34.870 -20.550 -19.867  0.00  0.00    +0.089 C 
ATOM     30  C   UNL     1      33.820 -21.255 -19.314  0.00  0.00    +0.117 C 
ATOM     31  C   UNL     1      36.117 -20.835 -19.352  0.00  0.00    +0.117 C 
ATOM     32  C   UNL     1      35.232 -22.358 -17.915  0.00  0.00    +0.199 C 
ENDBRANCH  24  29
ENDBRANCH   8  25
TORSDOF 4
ENDMDL
MODEL 5
REMARK VINA RESULT:     -11.2      6.622      9.435
REMARK  Name = 23658582
REMARK  4 active torsions:
REMARK  status: ('A' for Active; 'I' for Inactive)
REMARK    1  A    between atoms: N_3  and  C_13
REMARK    2  A    between atoms: C_8  and  C_25
REMARK    3  A    between atoms: C_15  and  C_22
REMARK    4  A    between atoms: N_24  and  C_29
REMARK                            x       y       z     vdW  Elec       q    Type
REMARK                         _______ _______ _______ _____ _____    ______ ____
ROOT
ATOM      1 CL   UNL     1      32.075 -24.548 -14.202  0.00  0.00    -0.082 Cl
ATOM      2  O   UNL     1      35.867 -22.477 -17.051  0.00  0.00    -0.352 OA
ATOM      3  N   UNL     1      34.187 -20.892 -19.670  0.00  0.00    -0.295 N 
ATOM      4  N   UNL     1      35.903 -21.723 -18.218  0.00  0.00    -0.062 NA
ATOM      5  C   UNL     1      33.736 -22.199 -17.685  0.00  0.00    +0.072 A 
ATOM      6  C   UNL     1      34.573 -22.759 -16.735  0.00  0.00    +0.183 A 
ATOM      7  C   UNL     1      34.625 -21.570 -18.578  0.00  0.00    +0.174 A 
ATOM      8  C   UNL     1      34.134 -23.495 -15.637  0.00  0.00    +0.101 C 
ATOM      9  C   UNL     1      32.350 -22.368 -17.555  0.00  0.00    +0.007 C 
ATOM     10  C   UNL     1      32.750 -23.655 -15.522  0.00  0.00    +0.065 C 
ATOM     11  C   UNL     1      31.872 -23.103 -16.462  0.00  0.00    +0.012 C 
ATOM     12  H   UNL     1      33.217 -20.963 -19.819  0.00  0.00    +0.154 HD
ENDROOT
BRANCH   3  13
ATOM     13  C   UNL     1      34.861 -20.099 -20.641  0.00  0.00    +0.049 C 
ATOM     14  C   UNL     1      34.289 -19.899 -21.896  0.00  0.00    +0.018 C 
ATOM     15  C   UNL     1      34.949 -19.121 -22.848  0.00  0.00    +0.073 C 
ATOM     16  C   UNL     1      36.093 -19.520 -20.336  0.00  0.00    +0.015 C 
ATOM     17  C   UNL     1      36.181 -18.543 -22.543  0.00  0.00    +0.004 C 
ATOM     18  C   UNL     1      36.753 -18.743 -21.286  0.00  0.00    +0.001 C 
BRANCH  15  22
ATOM     19  F   UNL     1      32.977 -19.011 -24.198  0.00  0.00    -0.166 F 
ATOM     20  F   UNL     1      34.604 -17.678 -24.724  0.00  0.00    -0.166 F 
ATOM     21  F   UNL     1      34.778 -19.810 -25.117  0.00  0.00    -0.166 F 
ATOM     22  C   UNL     1      34.339 -18.908 -24.192  0.00  0.00    +0.419 C 
ENDBRANCH  15  22
ENDBRANCH   3  13
BRANCH   8  25
ATOM     23  O   UNL     1      35.638 -25.134 -14.906  0.00  0.00    -0.270 OA
ATOM     24  N   UNL     1      35.284 -23.281 -13.534  0.00  0.00    -0.278 N 
ATOM     25  C   UNL     1      35.087 -24.047 -14.690  0.00  0.00    +0.253 C 
ATOM     26  H   UNL     1      34.783 -22.435 -13.490  0.00  0.00    +0.155 HD
BRANCH  24  29
ATOM     27  N   UNL     1      36.454 -24.660 -10.303  0.00  0.00    -0.221 NA
ATOM     28  N   UNL     1      38.210 -23.320 -11.265  0.00  0.00    -0.221 NA
ATOM     29  C   UNL     1      36.114 -23.568 -12.421  0.00  0.00    +0.089 C 
ATOM     30  C   UNL     1      35.692 -24.366 -11.377  0.00  0.00    +0.117 C 
ATOM     31  C   UNL     1      37.394 -23.066 -12.310  0.00  0.00    +0.117 C 
ATOM     32  C   UNL     1      37.683 -24.112 -10.311  0.00  0.00    +0.199 C 
ENDBRANCH  24  29
ENDBRANCH   8  25
TORSDOF 4
ENDMDL
MODEL 6
REMARK VINA RESULT:     -10.9      6.751     11.399
REMARK  Name = 23658582
REMARK  4 active torsions:
REMARK  status: ('A' for Active; 'I' for Inactive)
REMARK    1  A    between atoms: N_3  and  C_13
REMARK    2  A    between atoms: C_8  and  C_25
REMARK    3  A    between atoms: C_15  and  C_22
REMARK    4  A    between atoms: N_24  and  C_29
REMARK                            x       y       z     vdW  Elec       q    Type
REMARK                         _______ _______ _______ _____ _____    ______ ____
ROOT
ATOM      1 CL   UNL     1      37.629 -19.617 -20.890  0.00  0.00    -0.082 Cl
ATOM      2  O   UNL     1      32.850 -20.974 -19.437  0.00  0.00    -0.352 OA
ATOM      3  N   UNL     1      33.362 -23.018 -16.653  0.00  0.00    -0.295 N 
ATOM      4  N   UNL     1      32.333 -21.763 -18.417  0.00  0.00    -0.062 NA
ATOM      5  C   UNL     1      34.610 -21.734 -18.280  0.00  0.00    +0.072 A 
ATOM      6  C   UNL     1      34.208 -20.958 -19.352  0.00  0.00    +0.183 A 
ATOM      7  C   UNL     1      33.398 -22.206 -17.741  0.00  0.00    +0.174 A 
ATOM      8  C   UNL     1      35.080 -20.277 -20.199  0.00  0.00    +0.101 C 
ATOM      9  C   UNL     1      35.980 -21.860 -18.005  0.00  0.00    +0.007 C 
ATOM     10  C   UNL     1      36.442 -20.412 -19.913  0.00  0.00    +0.065 C 
ATOM     11  C   UNL     1      36.886 -21.188 -18.838  0.00  0.00    +0.012 C 
ATOM     12  H   UNL     1      34.250 -23.310 -16.345  0.00  0.00    +0.154 HD
ENDROOT
BRANCH   3  13
ATOM     13  C   UNL     1      32.287 -23.529 -15.873  0.00  0.00    +0.049 C 
ATOM     14  C   UNL     1      30.970 -23.341 -16.292  0.00  0.00    +0.018 C 
ATOM     15  C   UNL     1      29.916 -23.844 -15.528  0.00  0.00    +0.073 C 
ATOM     16  C   UNL     1      32.550 -24.220 -14.690  0.00  0.00    +0.015 C 
ATOM     17  C   UNL     1      30.180 -24.533 -14.345  0.00  0.00    +0.004 C 
ATOM     18  C   UNL     1      31.498 -24.721 -13.926  0.00  0.00    +0.001 C 
BRANCH  15  22
ATOM     19  F   UNL     1      27.648 -23.343 -14.956  0.00  0.00    -0.166 F 
ATOM     20  F   UNL     1      28.360 -22.624 -16.873  0.00  0.00    -0.166 F 
ATOM     21  F   UNL     1      27.986 -24.746 -16.582  0.00  0.00    -0.166 F 
ATOM     22  C   UNL     1      28.508 -23.642 -15.974  0.00  0.00    +0.419 C 
ENDBRANCH  15  22
ENDBRANCH   3  13
BRANCH   8  25
ATOM     23  O   UNL     1      33.642 -19.905 -22.010  0.00  0.00    -0.270 OA
ATOM     24  N   UNL     1      35.221 -18.263 -21.509  0.00  0.00    -0.278 N 
ATOM     25  C   UNL     1      34.567 -19.484 -21.304  0.00  0.00    +0.253 C 
ATOM     26  H   UNL     1      35.941 -18.049 -20.872  0.00  0.00    +0.155 HD
BRANCH  24  29
ATOM     27  N   UNL     1      34.528 -16.751 -24.817  0.00  0.00    -0.221 NA
ATOM     28  N   UNL     1      34.717 -14.996 -23.178  0.00  0.00    -0.221 NA
ATOM     29  C   UNL     1      34.979 -17.295 -22.516  0.00  0.00    +0.089 C 
ATOM     30  C   UNL     1      34.762 -17.644 -23.834  0.00  0.00    +0.117 C 
ATOM     31  C   UNL     1      34.945 -15.943 -22.244  0.00  0.00    +0.117 C 
ATOM     32  C   UNL     1      34.520 -15.463 -24.425  0.00  0.00    +0.199 C 
ENDBRANCH  24  29
ENDBRANCH   8  25
TORSDOF 4
ENDMDL
MODEL 7
REMARK VINA RESULT:     -10.8      5.398      9.690
REMARK  Name = 23658582
REMARK  4 active torsions:
REMARK  status: ('A' for Active; 'I' for Inactive)
REMARK    1  A    between atoms: N_3  and  C_13
REMARK    2  A    between atoms: C_8  and  C_25
REMARK    3  A    between atoms: C_15  and  C_22
REMARK    4  A    between atoms: N_24  and  C_29
REMARK                            x       y       z     vdW  Elec       q    Type
REMARK                         _______ _______ _______ _____ _____    ______ ____
ROOT
ATOM      1 CL   UNL     1      33.425 -13.683 -25.807  0.00  0.00    -0.082 Cl
ATOM      2  O   UNL     1      34.489 -15.502 -21.080  0.00  0.00    -0.352 OA
ATOM      3  N   UNL     1      35.154 -18.889 -21.608  0.00  0.00    -0.295 N 
ATOM      4  N   UNL     1      34.833 -16.750 -20.576  0.00  0.00    -0.062 NA
ATOM      5  C   UNL     1      34.545 -16.894 -22.834  0.00  0.00    +0.072 A 
ATOM      6  C   UNL     1      34.319 -15.590 -22.428  0.00  0.00    +0.183 A 
ATOM      7  C   UNL     1      34.860 -17.563 -21.636  0.00  0.00    +0.174 A 
ATOM      8  C   UNL     1      33.971 -14.550 -23.285  0.00  0.00    +0.101 C 
ATOM      9  C   UNL     1      34.423 -17.214 -24.194  0.00  0.00    +0.007 C 
ATOM     10  C   UNL     1      33.852 -14.885 -24.638  0.00  0.00    +0.065 C 
ATOM     11  C   UNL     1      34.074 -16.191 -25.086  0.00  0.00    +0.012 C 
ATOM     12  H   UNL     1      35.036 -19.340 -22.475  0.00  0.00    +0.154 HD
ENDROOT
BRANCH   3  13
ATOM     13  C   UNL     1      35.598 -19.752 -20.567  0.00  0.00    +0.049 C 
ATOM     14  C   UNL     1      34.717 -20.675 -20.004  0.00  0.00    +0.018 C 
ATOM     15  C   UNL     1      35.153 -21.521 -18.984  0.00  0.00    +0.073 C 
ATOM     16  C   UNL     1      36.914 -19.675 -20.111  0.00  0.00    +0.015 C 
ATOM     17  C   UNL     1      36.468 -21.444 -18.527  0.00  0.00    +0.004 C 
ATOM     18  C   UNL     1      37.349 -20.520 -19.091  0.00  0.00    +0.001 C 
BRANCH  15  22
ATOM     19  F   UNL     1      34.592 -22.941 -17.142  0.00  0.00    -0.166 F 
ATOM     20  F   UNL     1      32.945 -22.024 -18.212  0.00  0.00    -0.166 F 
ATOM     21  F   UNL     1      34.075 -23.635 -19.136  0.00  0.00    -0.166 F 
ATOM     22  C   UNL     1      34.212 -22.508 -18.379  0.00  0.00    +0.419 C 
ENDBRANCH  15  22
ENDBRANCH   3  13
BRANCH   8  25
ATOM     23  O   UNL     1      34.488 -12.273 -23.102  0.00  0.00    -0.270 OA
ATOM     24  N   UNL     1      32.691 -13.092 -21.860  0.00  0.00    -0.278 N 
ATOM     25  C   UNL     1      33.751 -13.210 -22.769  0.00  0.00    +0.253 C 
ATOM     26  H   UNL     1      32.184 -13.917 -21.683  0.00  0.00    +0.155 HD
BRANCH  24  29
ATOM     27  N   UNL     1      31.801 -10.803 -19.090  0.00  0.00    -0.221 NA
ATOM     28  N   UNL     1      31.429  -9.677 -21.187  0.00  0.00    -0.221 NA
ATOM     29  C   UNL     1      32.255 -11.937 -21.163  0.00  0.00    +0.089 C 
ATOM     30  C   UNL     1      32.209 -11.884 -19.785  0.00  0.00    +0.117 C 
ATOM     31  C   UNL     1      31.849 -10.793 -21.819  0.00  0.00    +0.117 C 
ATOM     32  C   UNL     1      31.430  -9.750 -19.843  0.00  0.00    +0.199 C 
ENDBRANCH  24  29
ENDBRANCH   8  25
TORSDOF 4
ENDMDL
MODEL 8
REMARK VINA RESULT:     -10.5      5.167      8.443
REMARK  Name = 23658582
REMARK  4 active torsions:
REMARK  status: ('A' for Active; 'I' for Inactive)
REMARK    1  A    between atoms: N_3  and  C_13
REMARK    2  A    between atoms: C_8  and  C_25
REMARK    3  A    between atoms: C_15  and  C_22
REMARK    4  A    between atoms: N_24  and  C_29
REMARK                            x       y       z     vdW  Elec       q    Type
REMARK                         _______ _______ _______ _____ _____    ______ ____
ROOT
ATOM      1 CL   UNL     1      33.850 -24.457 -14.476  0.00  0.00    -0.082 Cl
ATOM      2  O   UNL     1      36.590 -21.515 -17.736  0.00  0.00    -0.352 OA
ATOM      3  N   UNL     1      34.275 -20.578 -20.177  0.00  0.00    -0.295 N 
ATOM      4  N   UNL     1      36.292 -20.829 -18.908  0.00  0.00    -0.062 NA
ATOM      5  C   UNL     1      34.417 -21.878 -18.141  0.00  0.00    +0.072 A 
ATOM      6  C   UNL     1      35.469 -22.138 -17.281  0.00  0.00    +0.183 A 
ATOM      7  C   UNL     1      34.995 -21.059 -19.131  0.00  0.00    +0.174 A 
ATOM      8  C   UNL     1      35.369 -22.923 -16.135  0.00  0.00    +0.101 C 
ATOM      9  C   UNL     1      33.156 -22.427 -17.863  0.00  0.00    +0.007 C 
ATOM     10  C   UNL     1      34.107 -23.464 -15.870  0.00  0.00    +0.065 C 
ATOM     11  C   UNL     1      33.020 -23.222 -16.716  0.00  0.00    +0.012 C 
ATOM     12  H   UNL     1      33.355 -20.927 -20.221  0.00  0.00    +0.154 HD
ENDROOT
BRANCH   3  13
ATOM     13  C   UNL     1      34.594 -19.667 -21.223  0.00  0.00    +0.049 C 
ATOM     14  C   UNL     1      34.603 -18.295 -20.973  0.00  0.00    +0.018 C 
ATOM     15  C   UNL     1      34.916 -17.402 -21.999  0.00  0.00    +0.073 C 
ATOM     16  C   UNL     1      34.899 -20.146 -22.497  0.00  0.00    +0.015 C 
ATOM     17  C   UNL     1      35.221 -17.881 -23.272  0.00  0.00    +0.004 C 
ATOM     18  C   UNL     1      35.212 -19.254 -23.521  0.00  0.00    +0.001 C 
BRANCH  15  22
ATOM     19  F   UNL     1      35.712 -15.226 -22.595  0.00  0.00    -0.166 F 
ATOM     20  F   UNL     1      33.690 -15.355 -21.823  0.00  0.00    -0.166 F 
ATOM     21  F   UNL     1      35.382 -15.629 -20.484  0.00  0.00    -0.166 F 
ATOM     22  C   UNL     1      34.924 -15.934 -21.733  0.00  0.00    +0.419 C 
ENDBRANCH  15  22
ENDBRANCH   3  13
BRANCH   8  25
ATOM     23  O   UNL     1      36.963 -22.243 -14.559  0.00  0.00    -0.270 OA
ATOM     24  N   UNL     1      37.113 -24.412 -15.404  0.00  0.00    -0.278 N 
ATOM     25  C   UNL     1      36.530 -23.144 -15.289  0.00  0.00    +0.253 C 
ATOM     26  H   UNL     1      36.667 -25.035 -16.022  0.00  0.00    +0.155 HD
BRANCH  24  29
ATOM     27  N   UNL     1      40.658 -24.989 -14.502  0.00  0.00    -0.221 NA
ATOM     28  N   UNL     1      39.256 -26.307 -13.053  0.00  0.00    -0.221 NA
ATOM     29  C   UNL     1      38.265 -24.913 -14.745  0.00  0.00    +0.089 C 
ATOM     30  C   UNL     1      39.541 -24.533 -15.107  0.00  0.00    +0.117 C 
ATOM     31  C   UNL     1      38.181 -25.811 -13.702  0.00  0.00    +0.117 C 
ATOM     32  C   UNL     1      40.446 -25.860 -13.498  0.00  0.00    +0.199 C 
ENDBRANCH  24  29
ENDBRANCH   8  25
TORSDOF 4
ENDMDL
MODEL 9
REMARK VINA RESULT:     -10.4      4.142      6.725
REMARK  Name = 23658582
REMARK  4 active torsions:
REMARK  status: ('A' for Active; 'I' for Inactive)
REMARK    1  A    between atoms: N_3  and  C_13
REMARK    2  A    between atoms: C_8  and  C_25
REMARK    3  A    between atoms: C_15  and  C_22
REMARK    4  A    between atoms: N_24  and  C_29
REMARK                            x       y       z     vdW  Elec       q    Type
REMARK                         _______ _______ _______ _____ _____    ______ ____
ROOT
ATOM      1 CL   UNL     1      32.294 -13.663 -19.347  0.00  0.00    -0.082 Cl
ATOM      2  O   UNL     1      32.026 -10.047 -23.041  0.00  0.00    -0.352 OA
ATOM      3  N   UNL     1      31.586  -7.067 -21.275  0.00  0.00    -0.295 N 
ATOM      4  N   UNL     1      31.859  -8.667 -23.038  0.00  0.00    -0.062 NA
ATOM      5  C   UNL     1      31.855  -9.440 -20.891  0.00  0.00    +0.072 A 
ATOM      6  C   UNL     1      32.023 -10.505 -21.759  0.00  0.00    +0.183 A 
ATOM      7  C   UNL     1      31.759  -8.327 -21.749  0.00  0.00    +0.174 A 
ATOM      8  C   UNL     1      32.165 -11.831 -21.357  0.00  0.00    +0.101 C 
ATOM      9  C   UNL     1      31.821  -9.685 -19.511  0.00  0.00    +0.007 C 
ATOM     10  C   UNL     1      32.129 -12.060 -19.978  0.00  0.00    +0.065 C 
ATOM     11  C   UNL     1      31.961 -11.009 -19.070  0.00  0.00    +0.012 C 
ATOM     12  H   UNL     1      31.444  -7.024 -20.302  0.00  0.00    +0.154 HD
ENDROOT
BRANCH   3  13
ATOM     13  C   UNL     1      31.567  -5.795 -21.915  0.00  0.00    +0.049 C 
ATOM     14  C   UNL     1      32.241  -5.613 -23.122  0.00  0.00    +0.018 C 
ATOM     15  C   UNL     1      32.222  -4.367 -23.749  0.00  0.00    +0.073 C 
ATOM     16  C   UNL     1      30.875  -4.733 -21.335  0.00  0.00    +0.015 C 
ATOM     17  C   UNL     1      31.531  -3.304 -23.169  0.00  0.00    +0.004 C 
ATOM     18  C   UNL     1      30.856  -3.488 -21.961  0.00  0.00    +0.001 C 
BRANCH  15  22
ATOM     19  F   UNL     1      33.214  -2.861 -25.322  0.00  0.00    -0.166 F 
ATOM     20  F   UNL     1      34.154  -4.802 -25.092  0.00  0.00    -0.166 F 
ATOM     21  F   UNL     1      32.240  -4.637 -26.112  0.00  0.00    -0.166 F 
ATOM     22  C   UNL     1      32.944  -4.170 -25.040  0.00  0.00    +0.419 C 
ENDBRANCH  15  22
ENDBRANCH   3  13
BRANCH   8  25
ATOM     23  O   UNL     1      31.445 -13.140 -23.160  0.00  0.00    -0.270 OA
ATOM     24  N   UNL     1      33.545 -13.589 -22.249  0.00  0.00    -0.278 N 
ATOM     25  C   UNL     1      32.337 -12.886 -22.341  0.00  0.00    +0.253 C 
ATOM     26  H   UNL     1      34.168 -13.282 -21.551  0.00  0.00    +0.155 HD
BRANCH  24  29
ATOM     27  N   UNL     1      35.259 -16.715 -23.248  0.00  0.00    -0.221 NA
ATOM     28  N   UNL     1      34.011 -15.871 -25.127  0.00  0.00    -0.221 NA
ATOM     29  C   UNL     1      33.987 -14.684 -23.035  0.00  0.00    +0.089 C 
ATOM     30  C   UNL     1      34.821 -15.660 -22.530  0.00  0.00    +0.117 C 
ATOM     31  C   UNL     1      33.611 -14.842 -24.352  0.00  0.00    +0.117 C 
ATOM     32  C   UNL     1      34.823 -16.758 -24.520  0.00  0.00    +0.199 C 
ENDBRANCH  24  29
ENDBRANCH   8  25
TORSDOF 4
ENDMDL
