MODEL 1
REMARK VINA RESULT:     -12.3      0.000      0.000
REMARK  Name = 11167602
REMARK  6 active torsions:
REMARK  status: ('A' for Active; 'I' for Inactive)
REMARK    1  A    between atoms: C_2  and  N_10
REMARK    2  A    between atoms: C_3  and  O_25
REMARK    3  A    between atoms: N_9  and  C_15
REMARK    4  A    between atoms: C_16  and  C_24
REMARK    5  A    between atoms: O_25  and  C_27
REMARK    6  A    between atoms: C_29  and  C_34
REMARK                            x       y       z     vdW  Elec       q    Type
REMARK                         _______ _______ _______ _____ _____    ______ ____
ROOT
ATOM      1  F   UNL     1      32.839 -14.415 -25.139  0.00  0.00    -0.203 F 
ATOM      2  C   UNL     1      33.505 -14.222 -22.868  0.00  0.00    +0.079 C 
ATOM      3  C   UNL     1      34.955 -16.569 -23.115  0.00  0.00    +0.148 C 
ATOM      4  C   UNL     1      33.516 -14.887 -24.083  0.00  0.00    +0.157 C 
ATOM      5  C   UNL     1      34.205 -14.706 -21.774  0.00  0.00    +0.020 C 
ATOM      6  C   UNL     1      34.246 -16.069 -24.207  0.00  0.00    +0.068 C 
ATOM      7  C   UNL     1      34.934 -15.888 -21.899  0.00  0.00    +0.039 C 
ENDROOT
BRANCH   2  10
ATOM      8  O   UNL     1      34.202 -11.432 -23.674  0.00  0.00    -0.252 OA
ATOM      9  N   UNL     1      32.111 -10.809 -22.822  0.00  0.00    -0.268 N 
ATOM     10  N   UNL     1      32.767 -13.022 -22.738  0.00  0.00    -0.266 N 
ATOM     11  C   UNL     1      33.141 -11.729 -23.135  0.00  0.00    +0.308 C 
ATOM     12  H   UNL     1      31.314 -11.192 -22.390  0.00  0.00    +0.156 HD
ATOM     13  H   UNL     1      31.880 -13.105 -22.317  0.00  0.00    +0.156 HD
BRANCH   9  15
ATOM     14 CL   UNL     1      31.972  -4.982 -23.809  0.00  0.00    -0.082 Cl
ATOM     15  C   UNL     1      32.076  -9.432 -23.046  0.00  0.00    +0.052 C 
ATOM     16  C   UNL     1      31.840  -7.180 -22.203  0.00  0.00    +0.083 C 
ATOM     17  C   UNL     1      31.874  -8.557 -21.978  0.00  0.00    +0.019 C 
ATOM     18  C   UNL     1      32.242  -8.932 -24.337  0.00  0.00    +0.016 C 
ATOM     19  C   UNL     1      32.007  -6.680 -23.493  0.00  0.00    +0.062 C 
ATOM     20  C   UNL     1      32.207  -7.555 -24.560  0.00  0.00    +0.013 C 
BRANCH  16  24
ATOM     21  F   UNL     1      32.634  -5.378 -20.845  0.00  0.00    -0.166 F 
ATOM     22  F   UNL     1      30.488  -5.527 -21.125  0.00  0.00    -0.166 F 
ATOM     23  F   UNL     1      31.520  -6.962 -19.857  0.00  0.00    -0.166 F 
ATOM     24  C   UNL     1      31.625  -6.277 -21.032  0.00  0.00    +0.419 C 
ENDBRANCH  16  24
ENDBRANCH   9  15
ENDBRANCH   2  10
BRANCH   3  25
ATOM     25  O   UNL     1      35.668 -17.723 -23.237  0.00  0.00    -0.453 OA
BRANCH  25  27
ATOM     26  N   UNL     1      36.148 -20.066 -19.839  0.00  0.00    -0.239 NA
ATOM     27  C   UNL     1      35.826 -18.503 -22.104  0.00  0.00    +0.149 C 
ATOM     28  C   UNL     1      34.743 -19.189 -21.600  0.00  0.00    +0.061 C 
ATOM     29  C   UNL     1      34.954 -19.957 -20.466  0.00  0.00    +0.137 C 
ATOM     30  C   UNL     1      37.067 -18.577 -21.506  0.00  0.00    +0.058 C 
ATOM     31  C   UNL     1      37.175 -19.371 -20.377  0.00  0.00    +0.102 C 
BRANCH  29  34
ATOM     32  O   UNL     1      32.694 -20.547 -20.276  0.00  0.00    -0.268 OA
ATOM     33  N   UNL     1      34.188 -21.624 -18.867  0.00  0.00    -0.298 N 
ATOM     34  C   UNL     1      33.861 -20.709 -19.875  0.00  0.00    +0.264 C 
ATOM     35  C   UNL     1      33.217 -22.461 -18.201  0.00  0.00    +0.111 C 
ATOM     36  H   UNL     1      35.131 -21.701 -18.597  0.00  0.00    +0.150 HD
ENDBRANCH  29  34
ENDBRANCH  25  27
ENDBRANCH   3  25
TORSDOF 6
ENDMDL
MODEL 2
REMARK VINA RESULT:     -11.8      2.254      3.128
REMARK  Name = 11167602
REMARK  6 active torsions:
REMARK  status: ('A' for Active; 'I' for Inactive)
REMARK    1  A    between atoms: C_2  and  N_10
REMARK    2  A    between atoms: C_3  and  O_25
REMARK    3  A    between atoms: N_9  and  C_15
REMARK    4  A    between atoms: C_16  and  C_24
REMARK    5  A    between atoms: O_25  and  C_27
REMARK    6  A    between atoms: C_29  and  C_34
REMARK                            x       y       z     vdW  Elec       q    Type
REMARK                         _______ _______ _______ _____ _____    ______ ____
ROOT
ATOM      1  F   UNL     1      34.674 -16.814 -24.901  0.00  0.00    -0.203 F 
ATOM      2  C   UNL     1      34.786 -15.855 -22.732  0.00  0.00    +0.079 C 
ATOM      3  C   UNL     1      35.536 -18.316 -21.705  0.00  0.00    +0.148 C 
ATOM      4  C   UNL     1      34.910 -16.937 -23.588  0.00  0.00    +0.157 C 
ATOM      5  C   UNL     1      35.030 -15.977 -21.374  0.00  0.00    +0.020 C 
ATOM      6  C   UNL     1      35.287 -18.176 -23.071  0.00  0.00    +0.068 C 
ATOM      7  C   UNL     1      35.406 -17.217 -20.857  0.00  0.00    +0.039 C 
ENDROOT
BRANCH   2  10
ATOM      8  O   UNL     1      33.794 -13.408 -21.334  0.00  0.00    -0.252 OA
ATOM      9  N   UNL     1      33.669 -12.415 -23.452  0.00  0.00    -0.268 N 
ATOM     10  N   UNL     1      34.404 -14.596 -23.254  0.00  0.00    -0.266 N 
ATOM     11  C   UNL     1      33.942 -13.473 -22.550  0.00  0.00    +0.308 C 
ATOM     12  H   UNL     1      33.836 -12.612 -24.403  0.00  0.00    +0.156 HD
ATOM     13  H   UNL     1      34.471 -14.497 -24.231  0.00  0.00    +0.156 HD
BRANCH   9  15
ATOM     14 CL   UNL     1      31.627  -6.997 -22.263  0.00  0.00    -0.082 Cl
ATOM     15  C   UNL     1      33.196 -11.133 -23.173  0.00  0.00    +0.052 C 
ATOM     16  C   UNL     1      33.566  -8.750 -23.035  0.00  0.00    +0.083 C 
ATOM     17  C   UNL     1      34.041 -10.032 -23.314  0.00  0.00    +0.019 C 
ATOM     18  C   UNL     1      31.879 -10.953 -22.752  0.00  0.00    +0.016 C 
ATOM     19  C   UNL     1      32.249  -8.569 -22.616  0.00  0.00    +0.062 C 
ATOM     20  C   UNL     1      31.405  -9.670 -22.474  0.00  0.00    +0.013 C 
BRANCH  16  24
ATOM     21  F   UNL     1      34.119  -6.721 -24.175  0.00  0.00    -0.166 F 
ATOM     22  F   UNL     1      34.641  -6.841 -22.073  0.00  0.00    -0.166 F 
ATOM     23  F   UNL     1      35.763  -7.993 -23.537  0.00  0.00    -0.166 F 
ATOM     24  C   UNL     1      34.502  -7.596 -23.201  0.00  0.00    +0.419 C 
ENDBRANCH  16  24
ENDBRANCH   9  15
ENDBRANCH   2  10
BRANCH   3  25
ATOM     25  O   UNL     1      35.904 -19.525 -21.200  0.00  0.00    -0.453 OA
BRANCH  25  27
ATOM     26  N   UNL     1      33.129 -21.572 -18.881  0.00  0.00    -0.239 NA
ATOM     27  C   UNL     1      34.980 -20.208 -20.428  0.00  0.00    +0.149 C 
ATOM     28  C   UNL     1      35.423 -21.011 -19.399  0.00  0.00    +0.061 C 
ATOM     29  C   UNL     1      34.458 -21.672 -18.655  0.00  0.00    +0.137 C 
ATOM     30  C   UNL     1      33.637 -20.069 -20.705  0.00  0.00    +0.058 C 
ATOM     31  C   UNL     1      32.752 -20.772 -19.903  0.00  0.00    +0.102 C 
BRANCH  29  34
ATOM     32  O   UNL     1      34.201 -23.570 -17.303  0.00  0.00    -0.268 OA
ATOM     33  N   UNL     1      35.980 -22.162 -16.820  0.00  0.00    -0.298 N 
ATOM     34  C   UNL     1      34.847 -22.536 -17.554  0.00  0.00    +0.264 C 
ATOM     35  C   UNL     1      36.504 -22.928 -15.713  0.00  0.00    +0.111 C 
ATOM     36  H   UNL     1      36.443 -21.331 -17.071  0.00  0.00    +0.150 HD
ENDBRANCH  29  34
ENDBRANCH  25  27
ENDBRANCH   3  25
TORSDOF 6
ENDMDL
MODEL 3
REMARK VINA RESULT:     -11.8      5.810      9.826
REMARK  Name = 11167602
REMARK  6 active torsions:
REMARK  status: ('A' for Active; 'I' for Inactive)
REMARK    1  A    between atoms: C_2  and  N_10
REMARK    2  A    between atoms: C_3  and  O_25
REMARK    3  A    between atoms: N_9  and  C_15
REMARK    4  A    between atoms: C_16  and  C_24
REMARK    5  A    between atoms: O_25  and  C_27
REMARK    6  A    between atoms: C_29  and  C_34
REMARK                            x       y       z     vdW  Elec       q    Type
REMARK                         _______ _______ _______ _____ _____    ______ ____
ROOT
ATOM      1  F   UNL     1      36.985 -21.318 -17.015  0.00  0.00    -0.203 F 
ATOM      2  C   UNL     1      35.065 -22.013 -18.228  0.00  0.00    +0.079 C 
ATOM      3  C   UNL     1      34.274 -23.542 -16.059  0.00  0.00    +0.148 C 
ATOM      4  C   UNL     1      35.851 -22.029 -17.087  0.00  0.00    +0.157 C 
ATOM      5  C   UNL     1      33.891 -22.744 -18.306  0.00  0.00    +0.020 C 
ATOM      6  C   UNL     1      35.453 -22.799 -15.995  0.00  0.00    +0.068 C 
ATOM      7  C   UNL     1      33.494 -23.515 -17.214  0.00  0.00    +0.039 C 
ENDROOT
BRANCH   2  10
ATOM      8  O   UNL     1      33.529 -20.020 -19.839  0.00  0.00    -0.252 OA
ATOM      9  N   UNL     1      35.483 -19.739 -21.101  0.00  0.00    -0.268 N 
ATOM     10  N   UNL     1      35.466 -21.231 -19.337  0.00  0.00    -0.266 N 
ATOM     11  C   UNL     1      34.701 -20.305 -20.064  0.00  0.00    +0.308 C 
ATOM     12  H   UNL     1      36.411 -20.063 -21.161  0.00  0.00    +0.156 HD
ATOM     13  H   UNL     1      36.396 -21.353 -19.637  0.00  0.00    +0.156 HD
BRANCH   9  15
ATOM     14 CL   UNL     1      33.915 -15.722 -25.144  0.00  0.00    -0.082 Cl
ATOM     15  C   UNL     1      35.113 -18.784 -22.048  0.00  0.00    +0.052 C 
ATOM     16  C   UNL     1      34.659 -16.485 -22.635  0.00  0.00    +0.083 C 
ATOM     17  C   UNL     1      35.029 -17.440 -21.687  0.00  0.00    +0.019 C 
ATOM     18  C   UNL     1      34.826 -19.175 -23.356  0.00  0.00    +0.016 C 
ATOM     19  C   UNL     1      34.374 -16.876 -23.943  0.00  0.00    +0.062 C 
ATOM     20  C   UNL     1      34.457 -18.220 -24.304  0.00  0.00    +0.013 C 
BRANCH  16  24
ATOM     21  F   UNL     1      35.304 -14.211 -23.003  0.00  0.00    -0.166 F 
ATOM     22  F   UNL     1      33.314 -14.553 -22.210  0.00  0.00    -0.166 F 
ATOM     23  F   UNL     1      35.055 -14.863 -20.944  0.00  0.00    -0.166 F 
ATOM     24  C   UNL     1      34.583 -15.055 -22.209  0.00  0.00    +0.419 C 
ENDBRANCH  16  24
ENDBRANCH   9  15
ENDBRANCH   2  10
BRANCH   3  25
ATOM     25  O   UNL     1      33.885 -24.295 -14.992  0.00  0.00    -0.453 OA
BRANCH  25  27
ATOM     26  N   UNL     1      36.775 -25.291 -12.177  0.00  0.00    -0.239 NA
ATOM     27  C   UNL     1      34.848 -24.628 -14.055  0.00  0.00    +0.149 C 
ATOM     28  C   UNL     1      35.983 -25.294 -14.461  0.00  0.00    +0.061 C 
ATOM     29  C   UNL     1      36.918 -25.603 -13.485  0.00  0.00    +0.137 C 
ATOM     30  C   UNL     1      34.649 -24.284 -12.734  0.00  0.00    +0.058 C 
ATOM     31  C   UNL     1      35.641 -24.639 -11.835  0.00  0.00    +0.102 C 
BRANCH  29  34
ATOM     32  O   UNL     1      38.097 -27.465 -14.283  0.00  0.00    -0.268 OA
ATOM     33  N   UNL     1      39.344 -25.608 -13.669  0.00  0.00    -0.298 N 
ATOM     34  C   UNL     1      38.140 -26.304 -13.836  0.00  0.00    +0.264 C 
ATOM     35  C   UNL     1      40.639 -26.160 -13.995  0.00  0.00    +0.111 C 
ATOM     36  H   UNL     1      39.306 -24.693 -13.309  0.00  0.00    +0.150 HD
ENDBRANCH  29  34
ENDBRANCH  25  27
ENDBRANCH   3  25
TORSDOF 6
ENDMDL
MODEL 4
REMARK VINA RESULT:     -11.8      7.800     13.663
REMARK  Name = 11167602
REMARK  6 active torsions:
REMARK  status: ('A' for Active; 'I' for Inactive)
REMARK    1  A    between atoms: C_2  and  N_10
REMARK    2  A    between atoms: C_3  and  O_25
REMARK    3  A    between atoms: N_9  and  C_15
REMARK    4  A    between atoms: C_16  and  C_24
REMARK    5  A    between atoms: O_25  and  C_27
REMARK    6  A    between atoms: C_29  and  C_34
REMARK                            x       y       z     vdW  Elec       q    Type
REMARK                         _______ _______ _______ _____ _____    ______ ____
ROOT
ATOM      1  F   UNL     1      33.129 -21.007 -19.488  0.00  0.00    -0.203 F 
ATOM      2  C   UNL     1      35.437 -21.228 -18.975  0.00  0.00    +0.079 C 
ATOM      3  C   UNL     1      36.025 -19.321 -20.896  0.00  0.00    +0.148 C 
ATOM      4  C   UNL     1      34.405 -20.655 -19.700  0.00  0.00    +0.157 C 
ATOM      5  C   UNL     1      36.757 -20.866 -19.190  0.00  0.00    +0.020 C 
ATOM      6  C   UNL     1      34.701 -19.695 -20.667  0.00  0.00    +0.068 C 
ATOM      7  C   UNL     1      37.053 -19.906 -20.158  0.00  0.00    +0.039 C 
ENDROOT
BRANCH   2  10
ATOM      8  O   UNL     1      36.281 -21.400 -16.115  0.00  0.00    -0.252 OA
ATOM      9  N   UNL     1      35.042 -23.385 -16.011  0.00  0.00    -0.268 N 
ATOM     10  N   UNL     1      35.140 -22.201 -17.992  0.00  0.00    -0.266 N 
ATOM     11  C   UNL     1      35.565 -22.237 -16.654  0.00  0.00    +0.308 C 
ATOM     12  H   UNL     1      34.480 -23.969 -16.571  0.00  0.00    +0.156 HD
ATOM     13  H   UNL     1      34.565 -22.946 -18.283  0.00  0.00    +0.156 HD
BRANCH   9  15
ATOM     14 CL   UNL     1      35.745 -25.129 -10.407  0.00  0.00    -0.082 Cl
ATOM     15  C   UNL     1      35.217 -23.799 -14.690  0.00  0.00    +0.052 C 
ATOM     16  C   UNL     1      36.658 -24.582 -12.916  0.00  0.00    +0.083 C 
ATOM     17  C   UNL     1      36.484 -24.169 -14.238  0.00  0.00    +0.019 C 
ATOM     18  C   UNL     1      34.126 -23.843 -13.823  0.00  0.00    +0.016 C 
ATOM     19  C   UNL     1      35.567 -24.625 -12.049  0.00  0.00    +0.062 C 
ATOM     20  C   UNL     1      34.301 -24.256 -12.502  0.00  0.00    +0.013 C 
BRANCH  16  24
ATOM     21  F   UNL     1      38.510 -24.195 -11.452  0.00  0.00    -0.166 F 
ATOM     22  F   UNL     1      38.116 -26.252 -12.016  0.00  0.00    -0.166 F 
ATOM     23  F   UNL     1      38.952 -24.869 -13.471  0.00  0.00    -0.166 F 
ATOM     24  C   UNL     1      38.031 -24.968 -12.470  0.00  0.00    +0.419 C 
ENDBRANCH  16  24
ENDBRANCH   9  15
ENDBRANCH   2  10
BRANCH   3  25
ATOM     25  O   UNL     1      36.314 -18.383 -21.840  0.00  0.00    -0.453 OA
BRANCH  25  27
ATOM     26  N   UNL     1      33.565 -17.818 -24.905  0.00  0.00    -0.239 NA
ATOM     27  C   UNL     1      35.398 -18.194 -22.861  0.00  0.00    +0.149 C 
ATOM     28  C   UNL     1      35.083 -16.912 -23.255  0.00  0.00    +0.061 C 
ATOM     29  C   UNL     1      34.162 -16.776 -24.282  0.00  0.00    +0.137 C 
ATOM     30  C   UNL     1      34.821 -19.294 -23.459  0.00  0.00    +0.058 C 
ATOM     31  C   UNL     1      33.911 -19.052 -24.476  0.00  0.00    +0.102 C 
BRANCH  29  34
ATOM     32  O   UNL     1      33.436 -15.284 -25.938  0.00  0.00    -0.268 OA
ATOM     33  N   UNL     1      33.797 -14.416 -23.818  0.00  0.00    -0.298 N 
ATOM     34  C   UNL     1      33.780 -15.457 -24.754  0.00  0.00    +0.264 C 
ATOM     35  C   UNL     1      33.423 -13.055 -24.127  0.00  0.00    +0.111 C 
ATOM     36  H   UNL     1      34.082 -14.622 -22.899  0.00  0.00    +0.150 HD
ENDBRANCH  29  34
ENDBRANCH  25  27
ENDBRANCH   3  25
TORSDOF 6
ENDMDL
MODEL 5
REMARK VINA RESULT:     -11.7      5.070      8.455
REMARK  Name = 11167602
REMARK  6 active torsions:
REMARK  status: ('A' for Active; 'I' for Inactive)
REMARK    1  A    between atoms: C_2  and  N_10
REMARK    2  A    between atoms: C_3  and  O_25
REMARK    3  A    between atoms: N_9  and  C_15
REMARK    4  A    between atoms: C_16  and  C_24
REMARK    5  A    between atoms: O_25  and  C_27
REMARK    6  A    between atoms: C_29  and  C_34
REMARK                            x       y       z     vdW  Elec       q    Type
REMARK                         _______ _______ _______ _____ _____    ______ ____
ROOT
ATOM      1  F   UNL     1      37.570 -20.206 -17.590  0.00  0.00    -0.203 F 
ATOM      2  C   UNL     1      35.786 -21.022 -18.927  0.00  0.00    +0.079 C 
ATOM      3  C   UNL     1      35.271 -22.963 -17.020  0.00  0.00    +0.148 C 
ATOM      4  C   UNL     1      36.570 -21.076 -17.787  0.00  0.00    +0.157 C 
ATOM      5  C   UNL     1      34.749 -21.918 -19.134  0.00  0.00    +0.020 C 
ATOM      6  C   UNL     1      36.311 -22.053 -16.826  0.00  0.00    +0.068 C 
ATOM      7  C   UNL     1      34.491 -22.896 -18.174  0.00  0.00    +0.039 C 
ENDROOT
BRANCH   2  10
ATOM      8  O   UNL     1      33.897 -19.412 -20.590  0.00  0.00    -0.252 OA
ATOM      9  N   UNL     1      35.795 -18.406 -21.526  0.00  0.00    -0.268 N 
ATOM     10  N   UNL     1      36.045 -20.030 -19.903  0.00  0.00    -0.266 N 
ATOM     11  C   UNL     1      35.117 -19.300 -20.661  0.00  0.00    +0.308 C 
ATOM     12  H   UNL     1      36.777 -18.425 -21.473  0.00  0.00    +0.156 HD
ATOM     13  H   UNL     1      36.994 -19.829 -20.071  0.00  0.00    +0.156 HD
BRANCH   9  15
ATOM     14 CL   UNL     1      33.509 -14.608 -25.436  0.00  0.00    -0.082 Cl
ATOM     15  C   UNL     1      35.254 -17.503 -22.442  0.00  0.00    +0.052 C 
ATOM     16  C   UNL     1      34.459 -15.284 -22.973  0.00  0.00    +0.083 C 
ATOM     17  C   UNL     1      34.999 -16.187 -22.056  0.00  0.00    +0.019 C 
ATOM     18  C   UNL     1      34.970 -17.916 -23.743  0.00  0.00    +0.016 C 
ATOM     19  C   UNL     1      34.176 -15.698 -24.274  0.00  0.00    +0.062 C 
ATOM     20  C   UNL     1      34.431 -17.013 -24.660  0.00  0.00    +0.013 C 
BRANCH  16  24
ATOM     21  F   UNL     1      34.623 -12.938 -23.410  0.00  0.00    -0.166 F 
ATOM     22  F   UNL     1      32.881 -13.613 -22.308  0.00  0.00    -0.166 F 
ATOM     23  F   UNL     1      34.832 -13.591 -21.347  0.00  0.00    -0.166 F 
ATOM     24  C   UNL     1      34.202 -13.883 -22.521  0.00  0.00    +0.419 C 
ENDBRANCH  16  24
ENDBRANCH   9  15
ENDBRANCH   2  10
BRANCH   3  25
ATOM     25  O   UNL     1      35.019 -23.918 -16.083  0.00  0.00    -0.453 OA
BRANCH  25  27
ATOM     26  N   UNL     1      31.613 -23.477 -13.743  0.00  0.00    -0.239 NA
ATOM     27  C   UNL     1      33.884 -23.770 -15.304  0.00  0.00    +0.149 C 
ATOM     28  C   UNL     1      32.701 -23.391 -15.900  0.00  0.00    +0.061 C 
ATOM     29  C   UNL     1      31.593 -23.258 -15.077  0.00  0.00    +0.137 C 
ATOM     30  C   UNL     1      33.963 -24.007 -13.948  0.00  0.00    +0.058 C 
ATOM     31  C   UNL     1      32.800 -23.846 -13.212  0.00  0.00    +0.102 C 
BRANCH  29  34
ATOM     32  O   UNL     1      30.238 -22.391 -16.783  0.00  0.00    -0.268 OA
ATOM     33  N   UNL     1      29.181 -23.055 -14.828  0.00  0.00    -0.298 N 
ATOM     34  C   UNL     1      30.311 -22.862 -15.633  0.00  0.00    +0.264 C 
ATOM     35  C   UNL     1      27.836 -22.733 -15.247  0.00  0.00    +0.111 C 
ATOM     36  H   UNL     1      29.311 -23.430 -13.928  0.00  0.00    +0.150 HD
ENDBRANCH  29  34
ENDBRANCH  25  27
ENDBRANCH   3  25
TORSDOF 6
ENDMDL
MODEL 6
REMARK VINA RESULT:     -11.5      7.598     13.633
REMARK  Name = 11167602
REMARK  6 active torsions:
REMARK  status: ('A' for Active; 'I' for Inactive)
REMARK    1  A    between atoms: C_2  and  N_10
REMARK    2  A    between atoms: C_3  and  O_25
REMARK    3  A    between atoms: N_9  and  C_15
REMARK    4  A    between atoms: C_16  and  C_24
REMARK    5  A    between atoms: O_25  and  C_27
REMARK    6  A    between atoms: C_29  and  C_34
REMARK                            x       y       z     vdW  Elec       q    Type
REMARK                         _______ _______ _______ _____ _____    ______ ____
ROOT
ATOM      1  F   UNL     1      32.946 -21.179 -19.784  0.00  0.00    -0.203 F 
ATOM      2  C   UNL     1      35.269 -21.131 -19.295  0.00  0.00    +0.079 C 
ATOM      3  C   UNL     1      35.604 -19.137 -21.189  0.00  0.00    +0.148 C 
ATOM      4  C   UNL     1      34.168 -20.674 -20.001  0.00  0.00    +0.157 C 
ATOM      5  C   UNL     1      36.534 -20.610 -19.515  0.00  0.00    +0.020 C 
ATOM      6  C   UNL     1      34.337 -19.670 -20.954  0.00  0.00    +0.068 C 
ATOM      7  C   UNL     1      36.703 -19.607 -20.470  0.00  0.00    +0.039 C 
ENDROOT
BRANCH   2  10
ATOM      8  O   UNL     1      36.168 -21.250 -16.449  0.00  0.00    -0.252 OA
ATOM      9  N   UNL     1      35.169 -23.368 -16.366  0.00  0.00    -0.268 N 
ATOM     10  N   UNL     1      35.101 -22.148 -18.326  0.00  0.00    -0.266 N 
ATOM     11  C   UNL     1      35.545 -22.156 -16.995  0.00  0.00    +0.308 C 
ATOM     12  H   UNL     1      34.671 -24.003 -16.929  0.00  0.00    +0.156 HD
ATOM     13  H   UNL     1      34.612 -22.949 -18.623  0.00  0.00    +0.156 HD
BRANCH   9  15
ATOM     14 CL   UNL     1      36.152 -25.103 -10.801  0.00  0.00    -0.082 Cl
ATOM     15  C   UNL     1      35.410 -23.780 -15.055  0.00  0.00    +0.052 C 
ATOM     16  C   UNL     1      36.926 -24.613 -13.368  0.00  0.00    +0.083 C 
ATOM     17  C   UNL     1      36.686 -24.201 -14.680  0.00  0.00    +0.019 C 
ATOM     18  C   UNL     1      34.375 -23.771 -14.121  0.00  0.00    +0.016 C 
ATOM     19  C   UNL     1      35.891 -24.602 -12.434  0.00  0.00    +0.062 C 
ATOM     20  C   UNL     1      34.616 -24.182 -12.809  0.00  0.00    +0.013 C 
BRANCH  16  24
ATOM     21  F   UNL     1      39.211 -24.898 -14.015  0.00  0.00    -0.166 F 
ATOM     22  F   UNL     1      38.833 -24.376 -11.944  0.00  0.00    -0.166 F 
ATOM     23  F   UNL     1      38.360 -26.373 -12.664  0.00  0.00    -0.166 F 
ATOM     24  C   UNL     1      38.307 -25.054 -13.005  0.00  0.00    +0.419 C 
ENDBRANCH  16  24
ENDBRANCH   9  15
ENDBRANCH   2  10
BRANCH   3  25
ATOM     25  O   UNL     1      35.769 -18.157 -22.120  0.00  0.00    -0.453 OA
BRANCH  25  27
ATOM     26  N   UNL     1      34.305 -14.374 -21.218  0.00  0.00    -0.239 NA
ATOM     27  C   UNL     1      35.282 -16.896 -21.820  0.00  0.00    +0.149 C 
ATOM     28  C   UNL     1      34.949 -16.040 -22.847  0.00  0.00    +0.061 C 
ATOM     29  C   UNL     1      34.464 -14.791 -22.494  0.00  0.00    +0.137 C 
ATOM     30  C   UNL     1      35.141 -16.526 -20.499  0.00  0.00    +0.058 C 
ATOM     31  C   UNL     1      34.649 -15.255 -20.251  0.00  0.00    +0.102 C 
BRANCH  29  34
ATOM     32  O   UNL     1      33.604 -14.220 -24.599  0.00  0.00    -0.268 OA
ATOM     33  N   UNL     1      34.285 -12.477 -23.228  0.00  0.00    -0.298 N 
ATOM     34  C   UNL     1      34.091 -13.833 -23.521  0.00  0.00    +0.264 C 
ATOM     35  C   UNL     1      33.942 -11.406 -24.135  0.00  0.00    +0.111 C 
ATOM     36  H   UNL     1      34.676 -12.241 -22.356  0.00  0.00    +0.150 HD
ENDBRANCH  29  34
ENDBRANCH  25  27
ENDBRANCH   3  25
TORSDOF 6
ENDMDL
MODEL 7
REMARK VINA RESULT:     -11.4      5.763      9.698
REMARK  Name = 11167602
REMARK  6 active torsions:
REMARK  status: ('A' for Active; 'I' for Inactive)
REMARK    1  A    between atoms: C_2  and  N_10
REMARK    2  A    between atoms: C_3  and  O_25
REMARK    3  A    between atoms: N_9  and  C_15
REMARK    4  A    between atoms: C_16  and  C_24
REMARK    5  A    between atoms: O_25  and  C_27
REMARK    6  A    between atoms: C_29  and  C_34
REMARK                            x       y       z     vdW  Elec       q    Type
REMARK                         _______ _______ _______ _____ _____    ______ ____
ROOT
ATOM      1  F   UNL     1      33.192 -22.761 -19.466  0.00  0.00    -0.203 F 
ATOM      2  C   UNL     1      35.068 -21.972 -18.244  0.00  0.00    +0.079 C 
ATOM      3  C   UNL     1      34.276 -23.508 -16.079  0.00  0.00    +0.148 C 
ATOM      4  C   UNL     1      33.922 -22.744 -18.343  0.00  0.00    +0.157 C 
ATOM      5  C   UNL     1      35.827 -21.953 -17.085  0.00  0.00    +0.020 C 
ATOM      6  C   UNL     1      33.524 -23.517 -17.253  0.00  0.00    +0.068 C 
ATOM      7  C   UNL     1      35.428 -22.725 -15.994  0.00  0.00    +0.039 C 
ENDROOT
BRANCH   2  10
ATOM      8  O   UNL     1      33.567 -19.920 -19.811  0.00  0.00    -0.252 OA
ATOM      9  N   UNL     1      35.513 -19.675 -21.094  0.00  0.00    -0.268 N 
ATOM     10  N   UNL     1      35.476 -21.188 -19.348  0.00  0.00    -0.266 N 
ATOM     11  C   UNL     1      34.729 -20.232 -20.054  0.00  0.00    +0.308 C 
ATOM     12  H   UNL     1      36.431 -20.023 -21.169  0.00  0.00    +0.156 HD
ATOM     13  H   UNL     1      36.399 -21.331 -19.661  0.00  0.00    +0.156 HD
BRANCH   9  15
ATOM     14 CL   UNL     1      34.009 -15.567 -25.069  0.00  0.00    -0.082 Cl
ATOM     15  C   UNL     1      35.158 -18.699 -22.025  0.00  0.00    +0.052 C 
ATOM     16  C   UNL     1      34.674 -16.393 -22.558  0.00  0.00    +0.083 C 
ATOM     17  C   UNL     1      35.029 -17.368 -21.626  0.00  0.00    +0.019 C 
ATOM     18  C   UNL     1      34.931 -19.054 -23.354  0.00  0.00    +0.016 C 
ATOM     19  C   UNL     1      34.448 -16.748 -23.887  0.00  0.00    +0.062 C 
ATOM     20  C   UNL     1      34.576 -18.078 -24.286  0.00  0.00    +0.013 C 
BRANCH  16  24
ATOM     21  F   UNL     1      35.216 -14.085 -22.877  0.00  0.00    -0.166 F 
ATOM     22  F   UNL     1      33.261 -14.530 -22.049  0.00  0.00    -0.166 F 
ATOM     23  F   UNL     1      35.043 -14.800 -20.832  0.00  0.00    -0.166 F 
ATOM     24  C   UNL     1      34.550 -14.978 -22.091  0.00  0.00    +0.419 C 
ENDBRANCH  16  24
ENDBRANCH   9  15
ENDBRANCH   2  10
BRANCH   3  25
ATOM     25  O   UNL     1      33.887 -24.262 -15.014  0.00  0.00    -0.453 OA
BRANCH  25  27
ATOM     26  N   UNL     1      36.762 -25.213 -12.168  0.00  0.00    -0.239 NA
ATOM     27  C   UNL     1      34.845 -24.580 -14.066  0.00  0.00    +0.149 C 
ATOM     28  C   UNL     1      35.979 -25.260 -14.455  0.00  0.00    +0.061 C 
ATOM     29  C   UNL     1      36.908 -25.553 -13.469  0.00  0.00    +0.137 C 
ATOM     30  C   UNL     1      34.643 -24.208 -12.754  0.00  0.00    +0.058 C 
ATOM     31  C   UNL     1      35.630 -24.548 -11.844  0.00  0.00    +0.102 C 
BRANCH  29  34
ATOM     32  O   UNL     1      38.087 -27.461 -14.150  0.00  0.00    -0.268 OA
ATOM     33  N   UNL     1      39.327 -25.547 -13.730  0.00  0.00    -0.298 N 
ATOM     34  C   UNL     1      38.128 -26.267 -13.801  0.00  0.00    +0.264 C 
ATOM     35  C   UNL     1      40.619 -26.109 -14.051  0.00  0.00    +0.111 C 
ATOM     36  H   UNL     1      39.288 -24.605 -13.445  0.00  0.00    +0.150 HD
ENDBRANCH  29  34
ENDBRANCH  25  27
ENDBRANCH   3  25
TORSDOF 6
ENDMDL
MODEL 8
REMARK VINA RESULT:     -11.4      1.677      2.090
REMARK  Name = 11167602
REMARK  6 active torsions:
REMARK  status: ('A' for Active; 'I' for Inactive)
REMARK    1  A    between atoms: C_2  and  N_10
REMARK    2  A    between atoms: C_3  and  O_25
REMARK    3  A    between atoms: N_9  and  C_15
REMARK    4  A    between atoms: C_16  and  C_24
REMARK    5  A    between atoms: O_25  and  C_27
REMARK    6  A    between atoms: C_29  and  C_34
REMARK                            x       y       z     vdW  Elec       q    Type
REMARK                         _______ _______ _______ _____ _____    ______ ____
ROOT
ATOM      1  F   UNL     1      34.734 -14.068 -20.506  0.00  0.00    -0.203 F 
ATOM      2  C   UNL     1      33.985 -14.021 -22.758  0.00  0.00    +0.079 C 
ATOM      3  C   UNL     1      34.863 -16.628 -23.084  0.00  0.00    +0.148 C 
ATOM      4  C   UNL     1      34.578 -14.674 -21.691  0.00  0.00    +0.157 C 
ATOM      5  C   UNL     1      33.820 -14.644 -23.985  0.00  0.00    +0.020 C 
ATOM      6  C   UNL     1      35.020 -15.987 -21.855  0.00  0.00    +0.068 C 
ATOM      7  C   UNL     1      34.263 -15.956 -24.149  0.00  0.00    +0.039 C 
ENDROOT
BRANCH   2  10
ATOM      8  O   UNL     1      34.744 -11.534 -24.228  0.00  0.00    -0.252 OA
ATOM      9  N   UNL     1      33.231 -10.412 -22.834  0.00  0.00    -0.268 N 
ATOM     10  N   UNL     1      33.534 -12.690 -22.595  0.00  0.00    -0.266 N 
ATOM     11  C   UNL     1      33.925 -11.550 -23.315  0.00  0.00    +0.308 C 
ATOM     12  H   UNL     1      32.602 -10.577 -22.096  0.00  0.00    +0.156 HD
ATOM     13  H   UNL     1      32.863 -12.545 -21.889  0.00  0.00    +0.156 HD
BRANCH   9  15
ATOM     14 CL   UNL     1      33.657  -4.809 -24.667  0.00  0.00    -0.082 Cl
ATOM     15  C   UNL     1      33.322  -9.089 -23.268  0.00  0.00    +0.052 C 
ATOM     16  C   UNL     1      32.256  -7.051 -24.005  0.00  0.00    +0.083 C 
ATOM     17  C   UNL     1      32.164  -8.374 -23.571  0.00  0.00    +0.019 C 
ATOM     18  C   UNL     1      34.571  -8.484 -23.400  0.00  0.00    +0.016 C 
ATOM     19  C   UNL     1      33.505  -6.445 -24.135  0.00  0.00    +0.062 C 
ATOM     20  C   UNL     1      34.663  -7.161 -23.833  0.00  0.00    +0.013 C 
BRANCH  16  24
ATOM     21  F   UNL     1      31.127  -5.396 -25.313  0.00  0.00    -0.166 F 
ATOM     22  F   UNL     1      29.974  -7.133 -24.718  0.00  0.00    -0.166 F 
ATOM     23  F   UNL     1      30.510  -5.629 -23.241  0.00  0.00    -0.166 F 
ATOM     24  C   UNL     1      30.991  -6.317 -24.316  0.00  0.00    +0.419 C 
ENDBRANCH  16  24
ENDBRANCH   9  15
ENDBRANCH   2  10
BRANCH   3  25
ATOM     25  O   UNL     1      35.294 -17.909 -23.244  0.00  0.00    -0.453 OA
BRANCH  25  27
ATOM     26  N   UNL     1      36.131 -20.109 -19.819  0.00  0.00    -0.239 NA
ATOM     27  C   UNL     1      35.572 -18.642 -22.102  0.00  0.00    +0.149 C 
ATOM     28  C   UNL     1      34.572 -19.392 -21.523  0.00  0.00    +0.061 C 
ATOM     29  C   UNL     1      34.902 -20.109 -20.383  0.00  0.00    +0.137 C 
ATOM     30  C   UNL     1      36.844 -18.604 -21.572  0.00  0.00    +0.058 C 
ATOM     31  C   UNL     1      37.072 -19.355 -20.430  0.00  0.00    +0.102 C 
BRANCH  29  34
ATOM     32  O   UNL     1      32.696 -20.802 -19.998  0.00  0.00    -0.268 OA
ATOM     33  N   UNL     1      34.362 -21.851 -18.772  0.00  0.00    -0.298 N 
ATOM     34  C   UNL     1      33.902 -20.924 -19.715  0.00  0.00    +0.264 C 
ATOM     35  C   UNL     1      33.495 -22.748 -18.043  0.00  0.00    +0.111 C 
ATOM     36  H   UNL     1      35.329 -21.894 -18.596  0.00  0.00    +0.150 HD
ENDBRANCH  29  34
ENDBRANCH  25  27
ENDBRANCH   3  25
TORSDOF 6
ENDMDL
MODEL 9
REMARK VINA RESULT:     -11.3      7.485     13.288
REMARK  Name = 11167602
REMARK  6 active torsions:
REMARK  status: ('A' for Active; 'I' for Inactive)
REMARK    1  A    between atoms: C_2  and  N_10
REMARK    2  A    between atoms: C_3  and  O_25
REMARK    3  A    between atoms: N_9  and  C_15
REMARK    4  A    between atoms: C_16  and  C_24
REMARK    5  A    between atoms: O_25  and  C_27
REMARK    6  A    between atoms: C_29  and  C_34
REMARK                            x       y       z     vdW  Elec       q    Type
REMARK                         _______ _______ _______ _____ _____    ______ ____
ROOT
ATOM      1  F   UNL     1      33.455 -21.012 -19.799  0.00  0.00    -0.203 F 
ATOM      2  C   UNL     1      35.794 -20.722 -19.514  0.00  0.00    +0.079 C 
ATOM      3  C   UNL     1      35.756 -18.711 -21.419  0.00  0.00    +0.148 C 
ATOM      4  C   UNL     1      34.595 -20.384 -20.119  0.00  0.00    +0.157 C 
ATOM      5  C   UNL     1      36.975 -20.074 -19.840  0.00  0.00    +0.020 C 
ATOM      6  C   UNL     1      34.576 -19.372 -21.078  0.00  0.00    +0.068 C 
ATOM      7  C   UNL     1      36.956 -19.063 -20.801  0.00  0.00    +0.039 C 
ENDROOT
BRANCH   2  10
ATOM      8  O   UNL     1      37.105 -20.803 -16.831  0.00  0.00    -0.252 OA
ATOM      9  N   UNL     1      36.228 -22.966 -16.620  0.00  0.00    -0.268 N 
ATOM     10  N   UNL     1      35.818 -21.747 -18.539  0.00  0.00    -0.266 N 
ATOM     11  C   UNL     1      36.452 -21.736 -17.287  0.00  0.00    +0.308 C 
ATOM     12  H   UNL     1      35.683 -23.623 -17.109  0.00  0.00    +0.156 HD
ATOM     13  H   UNL     1      35.328 -22.570 -18.768  0.00  0.00    +0.156 HD
BRANCH   9  15
ATOM     14 CL   UNL     1      38.170 -24.678 -11.306  0.00  0.00    -0.082 Cl
ATOM     15  C   UNL     1      36.678 -23.368 -15.362  0.00  0.00    +0.052 C 
ATOM     16  C   UNL     1      36.232 -23.861 -13.040  0.00  0.00    +0.083 C 
ATOM     17  C   UNL     1      35.782 -23.458 -14.297  0.00  0.00    +0.019 C 
ATOM     18  C   UNL     1      38.024 -23.680 -15.170  0.00  0.00    +0.016 C 
ATOM     19  C   UNL     1      37.577 -24.174 -12.848  0.00  0.00    +0.062 C 
ATOM     20  C   UNL     1      38.473 -24.083 -13.913  0.00  0.00    +0.013 C 
BRANCH  16  24
ATOM     21  F   UNL     1      35.137 -25.196 -11.384  0.00  0.00    -0.166 F 
ATOM     22  F   UNL     1      35.525 -23.123 -10.877  0.00  0.00    -0.166 F 
ATOM     23  F   UNL     1      33.979 -23.615 -12.324  0.00  0.00    -0.166 F 
ATOM     24  C   UNL     1      35.240 -23.948 -11.926  0.00  0.00    +0.419 C 
ENDBRANCH  16  24
ENDBRANCH   9  15
ENDBRANCH   2  10
BRANCH   3  25
ATOM     25  O   UNL     1      35.737 -17.723 -22.355  0.00  0.00    -0.453 OA
BRANCH  25  27
ATOM     26  N   UNL     1      34.160 -14.043 -21.244  0.00  0.00    -0.239 NA
ATOM     27  C   UNL     1      35.213 -16.496 -21.986  0.00  0.00    +0.149 C 
ATOM     28  C   UNL     1      34.874 -15.586 -22.963  0.00  0.00    +0.061 C 
ATOM     29  C   UNL     1      34.351 -14.373 -22.541  0.00  0.00    +0.137 C 
ATOM     30  C   UNL     1      35.040 -16.214 -20.647  0.00  0.00    +0.058 C 
ATOM     31  C   UNL     1      34.511 -14.974 -20.329  0.00  0.00    +0.102 C 
BRANCH  29  34
ATOM     32  O   UNL     1      33.465 -13.691 -24.601  0.00  0.00    -0.268 OA
ATOM     33  N   UNL     1      34.175 -12.025 -23.153  0.00  0.00    -0.298 N 
ATOM     34  C   UNL     1      33.969 -13.362 -23.512  0.00  0.00    +0.264 C 
ATOM     35  C   UNL     1      33.827 -10.906 -23.999  0.00  0.00    +0.111 C 
ATOM     36  H   UNL     1      34.580 -11.835 -22.276  0.00  0.00    +0.150 HD
ENDBRANCH  29  34
ENDBRANCH  25  27
ENDBRANCH   3  25
TORSDOF 6
ENDMDL
