MODEL 1
REMARK VINA RESULT:     -11.2      0.000      0.000
REMARK  Name = 4369498
REMARK  8 active torsions:
REMARK  status: ('A' for Active; 'I' for Inactive)
REMARK    1  A    between atoms: N_2  and  C_11
REMARK    2  A    between atoms: C_5  and  C_25
REMARK    3  A    between atoms: C_8  and  S_14
REMARK    4  A    between atoms: C_13  and  O_23
REMARK    5  A    between atoms: S_14  and  N_17
REMARK    6  A    between atoms: N_17  and  C_19
REMARK    7  A    between atoms: C_19  and  C_20
REMARK    8  A    between atoms: C_26  and  C_32
REMARK                            x       y       z     vdW  Elec       q    Type
REMARK                         _______ _______ _______ _____ _____    ______ ____
ROOT
ATOM      1  O   UNL     1      34.178 -20.509 -20.299  0.00  0.00    -0.424 OA
ATOM      2  N   UNL     1      33.842 -21.810 -18.435  0.00  0.00    -0.265 N 
ATOM      3  N   UNL     1      35.981 -20.849 -18.976  0.00  0.00    -0.193 NA
ATOM      4  C   UNL     1      34.704 -21.082 -19.181  0.00  0.00    +0.293 C 
ATOM      5  C   UNL     1      35.237 -19.852 -20.848  0.00  0.00    +0.168 C 
ATOM      6  C   UNL     1      36.328 -20.061 -20.043  0.00  0.00    +0.141 C 
ATOM      7  H   UNL     1      32.922 -21.848 -18.784  0.00  0.00    +0.157 HD
ENDROOT
BRANCH   2  11
ATOM      8  C   UNL     1      35.565 -23.325 -15.516  0.00  0.00    +0.123 C 
ATOM      9  C   UNL     1      35.342 -22.618 -16.699  0.00  0.00    +0.038 C 
ATOM     10  C   UNL     1      34.500 -23.944 -14.863  0.00  0.00    +0.023 C 
ATOM     11  C   UNL     1      34.055 -22.532 -17.227  0.00  0.00    +0.087 C 
ATOM     12  C   UNL     1      33.212 -23.858 -15.392  0.00  0.00    +0.040 C 
ATOM     13  C   UNL     1      32.989 -23.152 -16.573  0.00  0.00    +0.152 C 
BRANCH   8  14
ATOM     14  S   UNL     1      37.178 -23.436 -14.855  0.00  0.00    +0.060 S 
ATOM     15  O   UNL     1      38.093 -22.707 -15.724  0.00  0.00    -0.153 OA
ATOM     16  O   UNL     1      37.104 -23.088 -13.443  0.00  0.00    -0.153 OA
BRANCH  14  17
ATOM     17  N   UNL     1      37.515 -25.107 -14.987  0.00  0.00    -0.179 NA
ATOM     18  H   UNL     1      38.194 -25.213 -15.741  0.00  0.00    +0.149 HD
BRANCH  17  19
ATOM     19  C   UNL     1      38.048 -25.839 -13.829  0.00  0.00    +0.091 C 
BRANCH  19  20
ATOM     20  C   UNL     1      39.475 -25.476 -13.585  0.00  0.00    +0.017 C 
ATOM     21  C   UNL     1      40.549 -26.481 -13.884  0.00  0.00    +0.001 C 
ATOM     22  C   UNL     1      40.390 -25.272 -14.757  0.00  0.00    +0.001 C 
ENDBRANCH  19  20
ENDBRANCH  17  19
ENDBRANCH  14  17
ENDBRANCH   8  14
BRANCH  13  23
ATOM     23  O   UNL     1      31.724 -23.081 -17.074  0.00  0.00    -0.470 OA
ATOM     24  C   UNL     1      30.671 -22.842 -16.142  0.00  0.00    +0.253 C 
ENDBRANCH  13  23
ENDBRANCH   2  11
BRANCH   5  25
ATOM     25  C   UNL     1      34.980 -19.134 -22.073  0.00  0.00    +0.036 C 
ATOM     26  C   UNL     1      34.560 -17.058 -23.235  0.00  0.00    +0.002 C 
ATOM     27  C   UNL     1      34.808 -17.751 -22.050  0.00  0.00    +0.003 C 
ATOM     28  C   UNL     1      34.906 -19.826 -23.283  0.00  0.00    +0.003 C 
ATOM     29  C   UNL     1      34.485 -17.750 -24.444  0.00  0.00    +0.000 C 
ATOM     30  C   UNL     1      34.659 -19.134 -24.468  0.00  0.00    +0.000 C 
BRANCH  26  32
ATOM     31  N   UNL     1      34.585 -13.536 -22.006  0.00  0.00    -0.242 NA
ATOM     32  C   UNL     1      34.380 -15.623 -23.210  0.00  0.00    +0.019 C 
ATOM     33  C   UNL     1      33.853 -14.947 -24.305  0.00  0.00    +0.003 C 
ATOM     34  C   UNL     1      34.727 -14.877 -22.094  0.00  0.00    +0.099 C 
ATOM     35  C   UNL     1      33.692 -13.567 -24.251  0.00  0.00    +0.021 C 
ATOM     36  C   UNL     1      34.070 -12.915 -23.089  0.00  0.00    +0.099 C 
ENDBRANCH  26  32
ENDBRANCH   5  25
TORSDOF 8
ENDMDL
MODEL 2
REMARK VINA RESULT:     -11.1      1.777      2.289
REMARK  Name = 4369498
REMARK  8 active torsions:
REMARK  status: ('A' for Active; 'I' for Inactive)
REMARK    1  A    between atoms: N_2  and  C_11
REMARK    2  A    between atoms: C_5  and  C_25
REMARK    3  A    between atoms: C_8  and  S_14
REMARK    4  A    between atoms: C_13  and  O_23
REMARK    5  A    between atoms: S_14  and  N_17
REMARK    6  A    between atoms: N_17  and  C_19
REMARK    7  A    between atoms: C_19  and  C_20
REMARK    8  A    between atoms: C_26  and  C_32
REMARK                            x       y       z     vdW  Elec       q    Type
REMARK                         _______ _______ _______ _____ _____    ______ ____
ROOT
ATOM      1  O   UNL     1      34.103 -21.000 -19.356  0.00  0.00    -0.424 OA
ATOM      2  N   UNL     1      33.518 -22.299 -17.553  0.00  0.00    -0.265 N 
ATOM      3  N   UNL     1      35.808 -21.867 -18.149  0.00  0.00    -0.193 NA
ATOM      4  C   UNL     1      34.507 -21.760 -18.300  0.00  0.00    +0.293 C 
ATOM      5  C   UNL     1      35.273 -20.592 -19.922  0.00  0.00    +0.168 C 
ATOM      6  C   UNL     1      36.304 -21.120 -19.187  0.00  0.00    +0.141 C 
ATOM      7  H   UNL     1      32.606 -22.082 -17.855  0.00  0.00    +0.157 HD
ENDROOT
BRANCH   2  11
ATOM      8  C   UNL     1      34.856 -24.610 -14.974  0.00  0.00    +0.123 C 
ATOM      9  C   UNL     1      34.777 -23.789 -16.100  0.00  0.00    +0.038 C 
ATOM     10  C   UNL     1      33.743 -24.770 -14.148  0.00  0.00    +0.023 C 
ATOM     11  C   UNL     1      33.585 -23.130 -16.399  0.00  0.00    +0.087 C 
ATOM     12  C   UNL     1      32.551 -24.110 -14.448  0.00  0.00    +0.040 C 
ATOM     13  C   UNL     1      32.472 -23.290 -15.574  0.00  0.00    +0.152 C 
BRANCH   8  14
ATOM     14  S   UNL     1      36.346 -25.439 -14.600  0.00  0.00    +0.060 S 
ATOM     15  O   UNL     1      36.377 -26.701 -15.328  0.00  0.00    -0.153 OA
ATOM     16  O   UNL     1      37.438 -24.490 -14.771  0.00  0.00    -0.153 OA
BRANCH  14  17
ATOM     17  N   UNL     1      36.172 -25.774 -12.932  0.00  0.00    -0.179 NA
ATOM     18  H   UNL     1      35.904 -26.755 -12.855  0.00  0.00    +0.149 HD
BRANCH  17  19
ATOM     19  C   UNL     1      37.309 -25.571 -12.023  0.00  0.00    +0.091 C 
BRANCH  19  20
ATOM     20  C   UNL     1      37.039 -24.446 -11.081  0.00  0.00    +0.017 C 
ATOM     21  C   UNL     1      37.480 -23.059 -11.449  0.00  0.00    +0.001 C 
ATOM     22  C   UNL     1      36.021 -23.408 -11.452  0.00  0.00    +0.001 C 
ENDBRANCH  19  20
ENDBRANCH  17  19
ENDBRANCH  14  17
ENDBRANCH   8  14
BRANCH  13  23
ATOM     23  O   UNL     1      31.298 -22.655 -15.850  0.00  0.00    -0.470 OA
ATOM     24  C   UNL     1      30.169 -23.007 -15.053  0.00  0.00    +0.253 C 
ENDBRANCH  13  23
ENDBRANCH   2  11
BRANCH   5  25
ATOM     25  C   UNL     1      35.161 -19.753 -21.089  0.00  0.00    +0.036 C 
ATOM     26  C   UNL     1      34.913 -17.562 -22.077  0.00  0.00    +0.002 C 
ATOM     27  C   UNL     1      35.020 -18.372 -20.948  0.00  0.00    +0.003 C 
ATOM     28  C   UNL     1      35.195 -20.322 -22.363  0.00  0.00    +0.003 C 
ATOM     29  C   UNL     1      34.946 -18.132 -23.350  0.00  0.00    +0.000 C 
ATOM     30  C   UNL     1      35.088 -19.512 -23.493  0.00  0.00    +0.000 C 
BRANCH  26  32
ATOM     31  N   UNL     1      34.545 -13.959 -22.970  0.00  0.00    -0.242 NA
ATOM     32  C   UNL     1      34.766 -16.130 -21.929  0.00  0.00    +0.019 C 
ATOM     33  C   UNL     1      34.703 -15.541 -20.671  0.00  0.00    +0.003 C 
ATOM     34  C   UNL     1      34.682 -15.302 -23.037  0.00  0.00    +0.099 C 
ATOM     35  C   UNL     1      34.562 -14.163 -20.562  0.00  0.00    +0.021 C 
ATOM     36  C   UNL     1      34.488 -13.423 -21.731  0.00  0.00    +0.099 C 
ENDBRANCH  26  32
ENDBRANCH   5  25
TORSDOF 8
ENDMDL
MODEL 3
REMARK VINA RESULT:     -11.1      6.729     13.283
REMARK  Name = 4369498
REMARK  8 active torsions:
REMARK  status: ('A' for Active; 'I' for Inactive)
REMARK    1  A    between atoms: N_2  and  C_11
REMARK    2  A    between atoms: C_5  and  C_25
REMARK    3  A    between atoms: C_8  and  S_14
REMARK    4  A    between atoms: C_13  and  O_23
REMARK    5  A    between atoms: S_14  and  N_17
REMARK    6  A    between atoms: N_17  and  C_19
REMARK    7  A    between atoms: C_19  and  C_20
REMARK    8  A    between atoms: C_26  and  C_32
REMARK                            x       y       z     vdW  Elec       q    Type
REMARK                         _______ _______ _______ _____ _____    ______ ____
ROOT
ATOM      1  O   UNL     1      33.012 -13.737 -22.519  0.00  0.00    -0.424 OA
ATOM      2  N   UNL     1      32.222 -11.740 -21.703  0.00  0.00    -0.265 N 
ATOM      3  N   UNL     1      33.947 -11.864 -23.376  0.00  0.00    -0.193 NA
ATOM      4  C   UNL     1      33.071 -12.376 -22.541  0.00  0.00    +0.293 C 
ATOM      5  C   UNL     1      33.949 -14.111 -23.436  0.00  0.00    +0.168 C 
ATOM      6  C   UNL     1      34.513 -12.971 -23.952  0.00  0.00    +0.141 C 
ATOM      7  H   UNL     1      31.650 -12.333 -21.164  0.00  0.00    +0.157 HD
ENDROOT
BRANCH   2  11
ATOM      8  C   UNL     1      31.593  -8.139 -22.350  0.00  0.00    +0.123 C 
ATOM      9  C   UNL     1      31.784  -9.505 -22.559  0.00  0.00    +0.038 C 
ATOM     10  C   UNL     1      31.642  -7.617 -21.058  0.00  0.00    +0.023 C 
ATOM     11  C   UNL     1      32.026 -10.348 -21.475  0.00  0.00    +0.087 C 
ATOM     12  C   UNL     1      31.884  -8.461 -19.973  0.00  0.00    +0.040 C 
ATOM     13  C   UNL     1      32.075  -9.827 -20.182  0.00  0.00    +0.152 C 
BRANCH   8  14
ATOM     14  S   UNL     1      31.294  -7.080 -23.707  0.00  0.00    +0.060 S 
ATOM     15  O   UNL     1      30.226  -7.649 -24.519  0.00  0.00    -0.153 OA
ATOM     16  O   UNL     1      31.154  -5.725 -23.191  0.00  0.00    -0.153 OA
BRANCH  14  17
ATOM     17  N   UNL     1      32.759  -7.181 -24.582  0.00  0.00    -0.179 NA
ATOM     18  H   UNL     1      32.511  -7.203 -25.571  0.00  0.00    +0.149 HD
BRANCH  17  19
ATOM     19  C   UNL     1      33.780  -6.135 -24.423  0.00  0.00    +0.091 C 
BRANCH  19  20
ATOM     20  C   UNL     1      35.087  -6.729 -24.017  0.00  0.00    +0.017 C 
ATOM     21  C   UNL     1      35.313  -7.090 -22.578  0.00  0.00    +0.001 C 
ATOM     22  C   UNL     1      35.141  -8.171 -23.604  0.00  0.00    +0.001 C 
ENDBRANCH  19  20
ENDBRANCH  17  19
ENDBRANCH  14  17
ENDBRANCH   8  14
BRANCH  13  23
ATOM     23  O   UNL     1      32.311 -10.634 -19.110  0.00  0.00    -0.470 OA
ATOM     24  C   UNL     1      31.607 -10.334 -17.906  0.00  0.00    +0.253 C 
ENDBRANCH  13  23
ENDBRANCH   2  11
BRANCH   5  25
ATOM     25  C   UNL     1      34.118 -15.529 -23.635  0.00  0.00    +0.036 C 
ATOM     26  C   UNL     1      34.862 -17.683 -22.831  0.00  0.00    +0.002 C 
ATOM     27  C   UNL     1      34.699 -16.312 -22.637  0.00  0.00    +0.003 C 
ATOM     28  C   UNL     1      33.700 -16.120 -24.828  0.00  0.00    +0.003 C 
ATOM     29  C   UNL     1      34.444 -18.272 -24.025  0.00  0.00    +0.000 C 
ATOM     30  C   UNL     1      33.863 -17.491 -25.023  0.00  0.00    +0.000 C 
BRANCH  26  32
ATOM     31  N   UNL     1      37.379 -18.966 -20.396  0.00  0.00    -0.242 NA
ATOM     32  C   UNL     1      35.465 -18.493 -21.796  0.00  0.00    +0.019 C 
ATOM     33  C   UNL     1      34.768 -19.543 -21.209  0.00  0.00    +0.003 C 
ATOM     34  C   UNL     1      36.757 -18.248 -21.357  0.00  0.00    +0.099 C 
ATOM     35  C   UNL     1      35.375 -20.305 -20.217  0.00  0.00    +0.021 C 
ATOM     36  C   UNL     1      36.670 -19.978 -19.849  0.00  0.00    +0.099 C 
ENDBRANCH  26  32
ENDBRANCH   5  25
TORSDOF 8
ENDMDL
MODEL 4
REMARK VINA RESULT:     -10.9      7.927     14.557
REMARK  Name = 4369498
REMARK  8 active torsions:
REMARK  status: ('A' for Active; 'I' for Inactive)
REMARK    1  A    between atoms: N_2  and  C_11
REMARK    2  A    between atoms: C_5  and  C_25
REMARK    3  A    between atoms: C_8  and  S_14
REMARK    4  A    between atoms: C_13  and  O_23
REMARK    5  A    between atoms: S_14  and  N_17
REMARK    6  A    between atoms: N_17  and  C_19
REMARK    7  A    between atoms: C_19  and  C_20
REMARK    8  A    between atoms: C_26  and  C_32
REMARK                            x       y       z     vdW  Elec       q    Type
REMARK                         _______ _______ _______ _____ _____    ______ ____
ROOT
ATOM      1  O   UNL     1      32.687 -11.857 -22.940  0.00  0.00    -0.424 OA
ATOM      2  N   UNL     1      32.022  -9.869 -22.001  0.00  0.00    -0.265 N 
ATOM      3  N   UNL     1      34.000 -10.063 -23.356  0.00  0.00    -0.193 NA
ATOM      4  C   UNL     1      32.924 -10.528 -22.763  0.00  0.00    +0.293 C 
ATOM      5  C   UNL     1      33.724 -12.263 -23.726  0.00  0.00    +0.168 C 
ATOM      6  C   UNL     1      34.518 -11.172 -23.975  0.00  0.00    +0.141 C 
ATOM      7  H   UNL     1      31.286 -10.425 -21.656  0.00  0.00    +0.157 HD
ENDROOT
BRANCH   2  11
ATOM      8  C   UNL     1      31.519  -6.195 -22.196  0.00  0.00    +0.123 C 
ATOM      9  C   UNL     1      31.575  -7.543 -22.556  0.00  0.00    +0.038 C 
ATOM     10  C   UNL     1      31.855  -5.806 -20.900  0.00  0.00    +0.023 C 
ATOM     11  C   UNL     1      31.967  -8.498 -21.620  0.00  0.00    +0.087 C 
ATOM     12  C   UNL     1      32.247  -6.762 -19.963  0.00  0.00    +0.040 C 
ATOM     13  C   UNL     1      32.302  -8.109 -20.323  0.00  0.00    +0.152 C 
BRANCH   8  14
ATOM     14  S   UNL     1      31.032  -4.996 -23.369  0.00  0.00    +0.060 S 
ATOM     15  O   UNL     1      30.481  -5.677 -24.534  0.00  0.00    -0.153 OA
ATOM     16  O   UNL     1      30.227  -4.000 -22.677  0.00  0.00    -0.153 OA
BRANCH  14  17
ATOM     17  N   UNL     1      32.523  -4.284 -23.807  0.00  0.00    -0.179 NA
ATOM     18  H   UNL     1      33.213  -4.602 -23.128  0.00  0.00    +0.149 HD
BRANCH  17  19
ATOM     19  C   UNL     1      33.091  -4.536 -25.140  0.00  0.00    +0.091 C 
BRANCH  19  20
ATOM     20  C   UNL     1      33.857  -5.816 -25.155  0.00  0.00    +0.017 C 
ATOM     21  C   UNL     1      35.348  -5.777 -25.319  0.00  0.00    +0.001 C 
ATOM     22  C   UNL     1      34.749  -6.151 -23.995  0.00  0.00    +0.001 C 
ENDBRANCH  19  20
ENDBRANCH  17  19
ENDBRANCH  14  17
ENDBRANCH   8  14
BRANCH  13  23
ATOM     23  O   UNL     1      32.689  -9.027 -19.393  0.00  0.00    -0.470 OA
ATOM     24  C   UNL     1      31.663  -9.606 -18.590  0.00  0.00    +0.253 C 
ENDBRANCH  13  23
ENDBRANCH   2  11
BRANCH   5  25
ATOM     25  C   UNL     1      33.744 -13.659 -24.088  0.00  0.00    +0.036 C 
ATOM     26  C   UNL     1      34.363 -15.942 -23.595  0.00  0.00    +0.002 C 
ATOM     27  C   UNL     1      34.345 -14.593 -23.244  0.00  0.00    +0.003 C 
ATOM     28  C   UNL     1      33.160 -14.077 -25.285  0.00  0.00    +0.003 C 
ATOM     29  C   UNL     1      33.780 -16.358 -24.792  0.00  0.00    +0.000 C 
ATOM     30  C   UNL     1      33.178 -15.426 -25.637  0.00  0.00    +0.000 C 
BRANCH  26  32
ATOM     31  N   UNL     1      35.898 -17.440 -20.543  0.00  0.00    -0.242 NA
ATOM     32  C   UNL     1      34.988 -16.909 -22.720  0.00  0.00    +0.019 C 
ATOM     33  C   UNL     1      35.279 -18.194 -23.162  0.00  0.00    +0.003 C 
ATOM     34  C   UNL     1      35.314 -16.585 -21.412  0.00  0.00    +0.099 C 
ATOM     35  C   UNL     1      35.880 -19.102 -22.297  0.00  0.00    +0.021 C 
ATOM     36  C   UNL     1      36.166 -18.679 -21.009  0.00  0.00    +0.099 C 
ENDBRANCH  26  32
ENDBRANCH   5  25
TORSDOF 8
ENDMDL
MODEL 5
REMARK VINA RESULT:     -10.7      2.515      5.562
REMARK  Name = 4369498
REMARK  8 active torsions:
REMARK  status: ('A' for Active; 'I' for Inactive)
REMARK    1  A    between atoms: N_2  and  C_11
REMARK    2  A    between atoms: C_5  and  C_25
REMARK    3  A    between atoms: C_8  and  S_14
REMARK    4  A    between atoms: C_13  and  O_23
REMARK    5  A    between atoms: S_14  and  N_17
REMARK    6  A    between atoms: N_17  and  C_19
REMARK    7  A    between atoms: C_19  and  C_20
REMARK    8  A    between atoms: C_26  and  C_32
REMARK                            x       y       z     vdW  Elec       q    Type
REMARK                         _______ _______ _______ _____ _____    ______ ____
ROOT
ATOM      1  O   UNL     1      35.876 -21.222 -18.214  0.00  0.00    -0.424 OA
ATOM      2  N   UNL     1      35.486 -22.499 -16.345  0.00  0.00    -0.265 N 
ATOM      3  N   UNL     1      33.916 -22.349 -18.161  0.00  0.00    -0.193 NA
ATOM      4  C   UNL     1      35.042 -22.067 -17.547  0.00  0.00    +0.293 C 
ATOM      5  C   UNL     1      35.198 -20.948 -19.364  0.00  0.00    +0.168 C 
ATOM      6  C   UNL     1      34.010 -21.634 -19.327  0.00  0.00    +0.141 C 
ATOM      7  H   UNL     1      36.370 -22.155 -16.081  0.00  0.00    +0.157 HD
ENDROOT
BRANCH   2  11
ATOM      8  C   UNL     1      32.932 -24.035 -14.131  0.00  0.00    +0.123 C 
ATOM      9  C   UNL     1      33.540 -23.187 -15.058  0.00  0.00    +0.038 C 
ATOM     10  C   UNL     1      33.664 -25.069 -13.548  0.00  0.00    +0.023 C 
ATOM     11  C   UNL     1      34.878 -23.374 -15.400  0.00  0.00    +0.087 C 
ATOM     12  C   UNL     1      35.003 -25.256 -13.891  0.00  0.00    +0.040 C 
ATOM     13  C   UNL     1      35.610 -24.409 -14.818  0.00  0.00    +0.152 C 
BRANCH   8  14
ATOM     14  S   UNL     1      31.257 -23.799 -13.698  0.00  0.00    +0.060 S 
ATOM     15  O   UNL     1      30.986 -24.522 -12.462  0.00  0.00    -0.153 OA
ATOM     16  O   UNL     1      30.977 -22.372 -13.766  0.00  0.00    -0.153 OA
BRANCH  14  17
ATOM     17  N   UNL     1      30.433 -24.578 -14.978  0.00  0.00    -0.179 NA
ATOM     18  H   UNL     1      30.860 -25.497 -15.088  0.00  0.00    +0.149 HD
BRANCH  17  19
ATOM     19  C   UNL     1      28.981 -24.792 -14.890  0.00  0.00    +0.091 C 
BRANCH  19  20
ATOM     20  C   UNL     1      28.264 -23.982 -15.918  0.00  0.00    +0.017 C 
ATOM     21  C   UNL     1      27.568 -22.718 -15.502  0.00  0.00    +0.001 C 
ATOM     22  C   UNL     1      28.823 -22.649 -16.322  0.00  0.00    +0.001 C 
ENDBRANCH  19  20
ENDBRANCH  17  19
ENDBRANCH  14  17
ENDBRANCH   8  14
BRANCH  13  23
ATOM     23  O   UNL     1      36.920 -24.607 -15.138  0.00  0.00    -0.470 OA
ATOM     24  C   UNL     1      37.691 -25.408 -14.245  0.00  0.00    +0.253 C 
ENDBRANCH  13  23
ENDBRANCH   2  11
BRANCH   5  25
ATOM     25  C   UNL     1      35.848 -20.057 -20.294  0.00  0.00    +0.036 C 
ATOM     26  C   UNL     1      35.727 -18.527 -22.160  0.00  0.00    +0.002 C 
ATOM     27  C   UNL     1      35.098 -19.389 -21.262  0.00  0.00    +0.003 C 
ATOM     28  C   UNL     1      37.228 -19.861 -20.223  0.00  0.00    +0.003 C 
ATOM     29  C   UNL     1      37.107 -18.333 -22.089  0.00  0.00    +0.000 C 
ATOM     30  C   UNL     1      37.857 -18.999 -21.121  0.00  0.00    +0.000 C 
BRANCH  26  32
ATOM     31  N   UNL     1      33.417 -17.953 -25.032  0.00  0.00    -0.242 NA
ATOM     32  C   UNL     1      34.949 -17.836 -23.165  0.00  0.00    +0.019 C 
ATOM     33  C   UNL     1      34.963 -16.449 -23.255  0.00  0.00    +0.003 C 
ATOM     34  C   UNL     1      34.166 -18.536 -24.070  0.00  0.00    +0.099 C 
ATOM     35  C   UNL     1      34.205 -15.813 -24.231  0.00  0.00    +0.021 C 
ATOM     36  C   UNL     1      33.456 -16.604 -25.088  0.00  0.00    +0.099 C 
ENDBRANCH  26  32
ENDBRANCH   5  25
TORSDOF 8
ENDMDL
MODEL 6
REMARK VINA RESULT:     -10.6      3.432      5.790
REMARK  Name = 4369498
REMARK  8 active torsions:
REMARK  status: ('A' for Active; 'I' for Inactive)
REMARK    1  A    between atoms: N_2  and  C_11
REMARK    2  A    between atoms: C_5  and  C_25
REMARK    3  A    between atoms: C_8  and  S_14
REMARK    4  A    between atoms: C_13  and  O_23
REMARK    5  A    between atoms: S_14  and  N_17
REMARK    6  A    between atoms: N_17  and  C_19
REMARK    7  A    between atoms: C_19  and  C_20
REMARK    8  A    between atoms: C_26  and  C_32
REMARK                            x       y       z     vdW  Elec       q    Type
REMARK                         _______ _______ _______ _____ _____    ______ ____
ROOT
ATOM      1  O   UNL     1      34.493 -16.777 -22.474  0.00  0.00    -0.424 OA
ATOM      2  N   UNL     1      35.036 -18.761 -21.450  0.00  0.00    -0.265 N 
ATOM      3  N   UNL     1      35.161 -16.642 -20.317  0.00  0.00    -0.193 NA
ATOM      4  C   UNL     1      34.919 -17.417 -21.350  0.00  0.00    +0.293 C 
ATOM      5  C   UNL     1      34.465 -15.466 -22.103  0.00  0.00    +0.168 C 
ATOM      6  C   UNL     1      34.872 -15.389 -20.794  0.00  0.00    +0.141 C 
ATOM      7  H   UNL     1      34.798 -19.133 -22.330  0.00  0.00    +0.157 HD
ENDROOT
BRANCH   2  11
ATOM      8  C   UNL     1      34.916 -21.597 -19.057  0.00  0.00    +0.123 C 
ATOM      9  C   UNL     1      34.525 -20.650 -20.005  0.00  0.00    +0.038 C 
ATOM     10  C   UNL     1      36.230 -21.614 -18.590  0.00  0.00    +0.023 C 
ATOM     11  C   UNL     1      35.449 -19.722 -20.485  0.00  0.00    +0.087 C 
ATOM     12  C   UNL     1      37.154 -20.686 -19.070  0.00  0.00    +0.040 C 
ATOM     13  C   UNL     1      36.764 -19.740 -20.018  0.00  0.00    +0.152 C 
BRANCH   8  14
ATOM     14  S   UNL     1      33.760 -22.757 -18.452  0.00  0.00    +0.060 S 
ATOM     15  O   UNL     1      32.451 -22.120 -18.379  0.00  0.00    -0.153 OA
ATOM     16  O   UNL     1      33.915 -23.982 -19.224  0.00  0.00    -0.153 OA
BRANCH  14  17
ATOM     17  N   UNL     1      34.320 -23.040 -16.862  0.00  0.00    -0.179 NA
ATOM     18  H   UNL     1      34.524 -22.128 -16.454  0.00  0.00    +0.149 HD
BRANCH  17  19
ATOM     19  C   UNL     1      33.465 -23.754 -15.902  0.00  0.00    +0.091 C 
BRANCH  19  20
ATOM     20  C   UNL     1      32.443 -22.835 -15.320  0.00  0.00    +0.017 C 
ATOM     21  C   UNL     1      31.024 -23.307 -15.187  0.00  0.00    +0.001 C 
ATOM     22  C   UNL     1      31.875 -23.136 -13.964  0.00  0.00    +0.001 C 
ENDBRANCH  19  20
ENDBRANCH  17  19
ENDBRANCH  14  17
ENDBRANCH   8  14
BRANCH  13  23
ATOM     23  O   UNL     1      37.681 -18.841 -20.474  0.00  0.00    -0.470 OA
ATOM     24  C   UNL     1      37.972 -18.865 -21.870  0.00  0.00    +0.253 C 
ENDBRANCH  13  23
ENDBRANCH   2  11
BRANCH   5  25
ATOM     25  C   UNL     1      34.043 -14.524 -23.110  0.00  0.00    +0.036 C 
ATOM     26  C   UNL     1      33.608 -12.249 -23.798  0.00  0.00    +0.002 C 
ATOM     27  C   UNL     1      34.016 -13.159 -22.823  0.00  0.00    +0.003 C 
ATOM     28  C   UNL     1      33.663 -14.978 -24.373  0.00  0.00    +0.003 C 
ATOM     29  C   UNL     1      33.227 -12.704 -25.060  0.00  0.00    +0.000 C 
ATOM     30  C   UNL     1      33.255 -14.069 -25.348  0.00  0.00    +0.000 C 
BRANCH  26  32
ATOM     31  N   UNL     1      32.369  -8.933 -22.621  0.00  0.00    -0.242 NA
ATOM     32  C   UNL     1      33.578 -10.834 -23.499  0.00  0.00    +0.019 C 
ATOM     33  C   UNL     1      34.669 -10.019 -23.779  0.00  0.00    +0.003 C 
ATOM     34  C   UNL     1      32.461 -10.247 -22.925  0.00  0.00    +0.099 C 
ATOM     35  C   UNL     1      34.611  -8.662 -23.482  0.00  0.00    +0.021 C 
ATOM     36  C   UNL     1      33.448  -8.173 -22.908  0.00  0.00    +0.099 C 
ENDBRANCH  26  32
ENDBRANCH   5  25
TORSDOF 8
ENDMDL
MODEL 7
REMARK VINA RESULT:     -10.4      6.413     13.622
REMARK  Name = 4369498
REMARK  8 active torsions:
REMARK  status: ('A' for Active; 'I' for Inactive)
REMARK    1  A    between atoms: N_2  and  C_11
REMARK    2  A    between atoms: C_5  and  C_25
REMARK    3  A    between atoms: C_8  and  S_14
REMARK    4  A    between atoms: C_13  and  O_23
REMARK    5  A    between atoms: S_14  and  N_17
REMARK    6  A    between atoms: N_17  and  C_19
REMARK    7  A    between atoms: C_19  and  C_20
REMARK    8  A    between atoms: C_26  and  C_32
REMARK                            x       y       z     vdW  Elec       q    Type
REMARK                         _______ _______ _______ _____ _____    ______ ____
ROOT
ATOM      1  O   UNL     1      33.644 -14.443 -22.710  0.00  0.00    -0.424 OA
ATOM      2  N   UNL     1      32.866 -12.282 -22.749  0.00  0.00    -0.265 N 
ATOM      3  N   UNL     1      34.374 -13.085 -21.055  0.00  0.00    -0.193 NA
ATOM      4  C   UNL     1      33.634 -13.209 -22.134  0.00  0.00    +0.293 C 
ATOM      5  C   UNL     1      34.477 -15.163 -21.907  0.00  0.00    +0.168 C 
ATOM      6  C   UNL     1      34.917 -14.335 -20.905  0.00  0.00    +0.141 C 
ATOM      7  H   UNL     1      32.394 -12.601 -23.552  0.00  0.00    +0.157 HD
ENDROOT
BRANCH   2  11
ATOM      8  C   UNL     1      32.916  -8.574 -22.934  0.00  0.00    +0.123 C 
ATOM      9  C   UNL     1      33.137  -9.916 -23.247  0.00  0.00    +0.038 C 
ATOM     10  C   UNL     1      32.188  -8.235 -21.794  0.00  0.00    +0.023 C 
ATOM     11  C   UNL     1      32.630 -10.917 -22.419  0.00  0.00    +0.087 C 
ATOM     12  C   UNL     1      31.681  -9.237 -20.966  0.00  0.00    +0.040 C 
ATOM     13  C   UNL     1      31.902 -10.578 -21.279  0.00  0.00    +0.152 C 
BRANCH   8  14
ATOM     14  S   UNL     1      33.553  -7.319 -23.968  0.00  0.00    +0.060 S 
ATOM     15  O   UNL     1      34.964  -7.588 -24.217  0.00  0.00    -0.153 OA
ATOM     16  O   UNL     1      32.644  -7.169 -25.096  0.00  0.00    -0.153 OA
BRANCH  14  17
ATOM     17  N   UNL     1      33.429  -5.930 -22.979  0.00  0.00    -0.179 NA
ATOM     18  H   UNL     1      34.287  -5.396 -23.111  0.00  0.00    +0.149 HD
BRANCH  17  19
ATOM     19  C   UNL     1      32.312  -4.993 -23.172  0.00  0.00    +0.091 C 
BRANCH  19  20
ATOM     20  C   UNL     1      31.741  -4.574 -21.858  0.00  0.00    +0.017 C 
ATOM     21  C   UNL     1      30.641  -3.553 -21.829  0.00  0.00    +0.001 C 
ATOM     22  C   UNL     1      30.343  -4.986 -21.501  0.00  0.00    +0.001 C 
ENDBRANCH  19  20
ENDBRANCH  17  19
ENDBRANCH  14  17
ENDBRANCH   8  14
BRANCH  13  23
ATOM     23  O   UNL     1      31.399 -11.542 -20.457  0.00  0.00    -0.470 OA
ATOM     24  C   UNL     1      31.834 -11.525 -19.099  0.00  0.00    +0.253 C 
ENDBRANCH  13  23
ENDBRANCH   2  11
BRANCH   5  25
ATOM     25  C   UNL     1      34.688 -16.541 -22.275  0.00  0.00    +0.036 C 
ATOM     26  C   UNL     1      35.015 -18.850 -21.642  0.00  0.00    +0.002 C 
ATOM     27  C   UNL     1      34.812 -17.518 -21.286  0.00  0.00    +0.003 C 
ATOM     28  C   UNL     1      34.765 -16.900 -23.621  0.00  0.00    +0.003 C 
ATOM     29  C   UNL     1      35.094 -19.207 -22.989  0.00  0.00    +0.000 C 
ATOM     30  C   UNL     1      34.968 -18.232 -23.978  0.00  0.00    +0.000 C 
BRANCH  26  32
ATOM     31  N   UNL     1      34.087 -21.486 -19.171  0.00  0.00    -0.242 NA
ATOM     32  C   UNL     1      35.146 -19.862 -20.617  0.00  0.00    +0.019 C 
ATOM     33  C   UNL     1      36.389 -20.194 -20.091  0.00  0.00    +0.003 C 
ATOM     34  C   UNL     1      34.035 -20.531 -20.127  0.00  0.00    +0.099 C 
ATOM     35  C   UNL     1      36.482 -21.171 -19.106  0.00  0.00    +0.021 C 
ATOM     36  C   UNL     1      35.312 -21.781 -18.684  0.00  0.00    +0.099 C 
ENDBRANCH  26  32
ENDBRANCH   5  25
TORSDOF 8
ENDMDL
MODEL 8
REMARK VINA RESULT:     -10.3      4.971      9.532
REMARK  Name = 4369498
REMARK  8 active torsions:
REMARK  status: ('A' for Active; 'I' for Inactive)
REMARK    1  A    between atoms: N_2  and  C_11
REMARK    2  A    between atoms: C_5  and  C_25
REMARK    3  A    between atoms: C_8  and  S_14
REMARK    4  A    between atoms: C_13  and  O_23
REMARK    5  A    between atoms: S_14  and  N_17
REMARK    6  A    between atoms: N_17  and  C_19
REMARK    7  A    between atoms: C_19  and  C_20
REMARK    8  A    between atoms: C_26  and  C_32
REMARK                            x       y       z     vdW  Elec       q    Type
REMARK                         _______ _______ _______ _____ _____    ______ ____
ROOT
ATOM      1  O   UNL     1      33.411 -12.116 -21.095  0.00  0.00    -0.424 OA
ATOM      2  N   UNL     1      34.408 -14.058 -21.811  0.00  0.00    -0.265 N 
ATOM      3  N   UNL     1      32.101 -13.543 -22.263  0.00  0.00    -0.193 NA
ATOM      4  C   UNL     1      33.290 -13.298 -21.760  0.00  0.00    +0.293 C 
ATOM      5  C   UNL     1      32.168 -11.567 -21.194  0.00  0.00    +0.168 C 
ATOM      6  C   UNL     1      31.377 -12.436 -21.903  0.00  0.00    +0.141 C 
ATOM      7  H   UNL     1      35.193 -13.671 -21.360  0.00  0.00    +0.157 HD
ENDROOT
BRANCH   2  11
ATOM      8  C   UNL     1      35.205 -17.664 -22.191  0.00  0.00    +0.123 C 
ATOM      9  C   UNL     1      34.982 -16.414 -21.612  0.00  0.00    +0.038 C 
ATOM     10  C   UNL     1      35.075 -17.828 -23.570  0.00  0.00    +0.023 C 
ATOM     11  C   UNL     1      34.630 -15.328 -22.414  0.00  0.00    +0.087 C 
ATOM     12  C   UNL     1      34.723 -16.742 -24.371  0.00  0.00    +0.040 C 
ATOM     13  C   UNL     1      34.499 -15.492 -23.793  0.00  0.00    +0.152 C 
BRANCH   8  14
ATOM     14  S   UNL     1      35.650 -19.023 -21.189  0.00  0.00    +0.060 S 
ATOM     15  O   UNL     1      35.824 -20.195 -22.038  0.00  0.00    -0.153 OA
ATOM     16  O   UNL     1      36.743 -18.599 -20.324  0.00  0.00    -0.153 OA
BRANCH  14  17
ATOM     17  N   UNL     1      34.253 -19.247 -20.230  0.00  0.00    -0.179 NA
ATOM     18  H   UNL     1      33.583 -18.533 -20.514  0.00  0.00    +0.149 HD
BRANCH  17  19
ATOM     19  C   UNL     1      33.542 -20.533 -20.261  0.00  0.00    +0.091 C 
BRANCH  19  20
ATOM     20  C   UNL     1      33.809 -21.315 -19.018  0.00  0.00    +0.017 C 
ATOM     21  C   UNL     1      34.036 -22.796 -19.117  0.00  0.00    +0.001 C 
ATOM     22  C   UNL     1      35.180 -21.882 -18.788  0.00  0.00    +0.001 C 
ENDBRANCH  19  20
ENDBRANCH  17  19
ENDBRANCH  14  17
ENDBRANCH   8  14
BRANCH  13  23
ATOM     23  O   UNL     1      34.157 -14.444 -24.594  0.00  0.00    -0.470 OA
ATOM     24  C   UNL     1      33.126 -14.671 -25.552  0.00  0.00    +0.253 C 
ENDBRANCH  13  23
ENDBRANCH   2  11
BRANCH   5  25
ATOM     25  C   UNL     1      31.984 -10.280 -20.569  0.00  0.00    +0.036 C 
ATOM     26  C   UNL     1      31.692  -7.888 -20.746  0.00  0.00    +0.002 C 
ATOM     27  C   UNL     1      31.870  -9.132 -21.352  0.00  0.00    +0.003 C 
ATOM     28  C   UNL     1      31.919 -10.185 -19.178  0.00  0.00    +0.003 C 
ATOM     29  C   UNL     1      31.628  -7.794 -19.356  0.00  0.00    +0.000 C 
ATOM     30  C   UNL     1      31.741  -8.942 -18.572  0.00  0.00    +0.000 C 
BRANCH  26  32
ATOM     31  N   UNL     1      30.845  -5.668 -23.621  0.00  0.00    -0.242 NA
ATOM     32  C   UNL     1      31.576  -6.698 -21.559  0.00  0.00    +0.019 C 
ATOM     33  C   UNL     1      32.052  -5.472 -21.108  0.00  0.00    +0.003 C 
ATOM     34  C   UNL     1      30.985  -6.742 -22.812  0.00  0.00    +0.099 C 
ATOM     35  C   UNL     1      31.926  -4.345 -21.912  0.00  0.00    +0.021 C 
ATOM     36  C   UNL     1      31.320  -4.495 -23.149  0.00  0.00    +0.099 C 
ENDBRANCH  26  32
ENDBRANCH   5  25
TORSDOF 8
ENDMDL
MODEL 9
REMARK VINA RESULT:     -10.3      2.855      6.376
REMARK  Name = 4369498
REMARK  8 active torsions:
REMARK  status: ('A' for Active; 'I' for Inactive)
REMARK    1  A    between atoms: N_2  and  C_11
REMARK    2  A    between atoms: C_5  and  C_25
REMARK    3  A    between atoms: C_8  and  S_14
REMARK    4  A    between atoms: C_13  and  O_23
REMARK    5  A    between atoms: S_14  and  N_17
REMARK    6  A    between atoms: N_17  and  C_19
REMARK    7  A    between atoms: C_19  and  C_20
REMARK    8  A    between atoms: C_26  and  C_32
REMARK                            x       y       z     vdW  Elec       q    Type
REMARK                         _______ _______ _______ _____ _____    ______ ____
ROOT
ATOM      1  O   UNL     1      34.824 -21.613 -17.843  0.00  0.00    -0.424 OA
ATOM      2  N   UNL     1      33.969 -22.836 -16.096  0.00  0.00    -0.265 N 
ATOM      3  N   UNL     1      32.748 -22.462 -18.135  0.00  0.00    -0.193 NA
ATOM      4  C   UNL     1      33.787 -22.340 -17.341  0.00  0.00    +0.293 C 
ATOM      5  C   UNL     1      34.385 -21.244 -19.079  0.00  0.00    +0.168 C 
ATOM      6  C   UNL     1      33.125 -21.761 -19.251  0.00  0.00    +0.141 C 
ATOM      7  H   UNL     1      34.836 -22.617 -15.685  0.00  0.00    +0.157 HD
ENDROOT
BRANCH   2  11
ATOM      8  C   UNL     1      30.878 -24.409 -14.771  0.00  0.00    +0.123 C 
ATOM      9  C   UNL     1      31.737 -23.643 -15.560  0.00  0.00    +0.038 C 
ATOM     10  C   UNL     1      31.387 -25.156 -13.709  0.00  0.00    +0.023 C 
ATOM     11  C   UNL     1      33.104 -23.624 -15.285  0.00  0.00    +0.087 C 
ATOM     12  C   UNL     1      32.754 -25.137 -13.434  0.00  0.00    +0.040 C 
ATOM     13  C   UNL     1      33.613 -24.371 -14.223  0.00  0.00    +0.152 C 
BRANCH   8  14
ATOM     14  S   UNL     1      29.165 -24.430 -15.112  0.00  0.00    +0.060 S 
ATOM     15  O   UNL     1      28.950 -25.095 -16.391  0.00  0.00    -0.153 OA
ATOM     16  O   UNL     1      28.483 -24.928 -13.925  0.00  0.00    -0.153 OA
BRANCH  14  17
ATOM     17  N   UNL     1      28.804 -22.769 -15.291  0.00  0.00    -0.179 NA
ATOM     18  H   UNL     1      28.957 -22.538 -16.273  0.00  0.00    +0.149 HD
BRANCH  17  19
ATOM     19  C   UNL     1      27.467 -22.269 -14.941  0.00  0.00    +0.091 C 
BRANCH  19  20
ATOM     20  C   UNL     1      26.512 -22.477 -16.068  0.00  0.00    +0.017 C 
ATOM     21  C   UNL     1      26.113 -21.306 -16.917  0.00  0.00    +0.001 C 
ATOM     22  C   UNL     1      27.009 -22.369 -17.480  0.00  0.00    +0.001 C 
ENDBRANCH  19  20
ENDBRANCH  17  19
ENDBRANCH  14  17
ENDBRANCH   8  14
BRANCH  13  23
ATOM     23  O   UNL     1      34.946 -24.365 -13.937  0.00  0.00    -0.470 OA
ATOM     24  C   UNL     1      35.747 -25.362 -14.568  0.00  0.00    +0.253 C 
ENDBRANCH  13  23
ENDBRANCH   2  11
BRANCH   5  25
ATOM     25  C   UNL     1      35.290 -20.445 -19.868  0.00  0.00    +0.036 C 
ATOM     26  C   UNL     1      35.670 -18.838 -21.632  0.00  0.00    +0.002 C 
ATOM     27  C   UNL     1      34.794 -19.611 -20.871  0.00  0.00    +0.003 C 
ATOM     28  C   UNL     1      36.663 -20.504 -19.627  0.00  0.00    +0.003 C 
ATOM     29  C   UNL     1      37.043 -18.899 -21.391  0.00  0.00    +0.000 C 
ATOM     30  C   UNL     1      37.539 -19.731 -20.388  0.00  0.00    +0.000 C 
BRANCH  26  32
ATOM     31  N   UNL     1      34.843 -15.737 -23.532  0.00  0.00    -0.242 NA
ATOM     32  C   UNL     1      35.156 -17.975 -22.673  0.00  0.00    +0.019 C 
ATOM     33  C   UNL     1      34.502 -18.499 -23.782  0.00  0.00    +0.003 C 
ATOM     34  C   UNL     1      35.299 -16.598 -22.596  0.00  0.00    +0.099 C 
ATOM     35  C   UNL     1      34.018 -17.644 -24.766  0.00  0.00    +0.021 C 
ATOM     36  C   UNL     1      34.213 -16.283 -24.595  0.00  0.00    +0.099 C 
ENDBRANCH  26  32
ENDBRANCH   5  25
TORSDOF 8
ENDMDL
