MODEL 1
REMARK VINA RESULT:     -11.1      0.000      0.000
REMARK  Name = 5289411
REMARK  6 active torsions:
REMARK  status: ('A' for Active; 'I' for Inactive)
REMARK    1  A    between atoms: N_3  and  C_9
REMARK    2  A    between atoms: C_4  and  O_25
REMARK    3  A    between atoms: C_5  and  N_24
REMARK    4  A    between atoms: C_12  and  C_17
REMARK    5  A    between atoms: O_25  and  C_26
REMARK    6  A    between atoms: C_26  and  C_27
REMARK                            x       y       z     vdW  Elec       q    Type
REMARK                         _______ _______ _______ _____ _____    ______ ____
ROOT
ATOM      1  N   UNL     1      33.876 -23.770 -15.564  0.00  0.00    -0.293 NA
ATOM      2  N   UNL     1      32.324 -23.916 -13.726  0.00  0.00    -0.316 NA
ATOM      3  N   UNL     1      34.527 -24.697 -13.510  0.00  0.00    -0.238 N 
ATOM      4  C   UNL     1      32.896 -23.201 -16.295  0.00  0.00    +0.292 C 
ATOM      5  C   UNL     1      31.624 -22.961 -15.821  0.00  0.00    +0.261 C 
ATOM      6  C   UNL     1      31.392 -23.343 -14.515  0.00  0.00    +0.196 C 
ATOM      7  C   UNL     1      33.526 -24.099 -14.305  0.00  0.00    +0.207 C 
ATOM      8  H   UNL     1      34.226 -24.920 -12.598  0.00  0.00    +0.166 HD
ATOM      9  N   UNL     1      30.108 -23.129 -13.954  0.00  0.00    -0.334 N 
ATOM     10  H   UNL     1      29.926 -23.396 -13.024  0.00  0.00    +0.144 HD
ATOM     11  H   UNL     1      29.398 -22.713 -14.494  0.00  0.00    +0.144 HD
ENDROOT
BRANCH   3  12
ATOM     12  C   UNL     1      35.868 -25.036 -13.762  0.00  0.00    +0.058 C 
ATOM     13  C   UNL     1      36.897 -24.198 -13.325  0.00  0.00    +0.015 C 
ATOM     14  C   UNL     1      36.176 -26.211 -14.451  0.00  0.00    +0.015 C 
ATOM     15  C   UNL     1      38.532 -25.708 -14.266  0.00  0.00    +0.053 C 
ATOM     16  C   UNL     1      38.228 -24.534 -13.578  0.00  0.00    +0.006 C 
ATOM     17  C   UNL     1      37.507 -26.547 -14.703  0.00  0.00    +0.006 C 
BRANCH  15  20
ATOM     18  O   UNL     1      40.444 -25.835 -15.635  0.00  0.00    -0.270 OA
ATOM     19  N   UNL     1      40.651 -26.633 -13.495  0.00  0.00    -0.325 N 
ATOM     20  C   UNL     1      39.919 -26.057 -14.530  0.00  0.00    +0.243 C 
ATOM     21  H   UNL     1      41.592 -26.881 -13.637  0.00  0.00    +0.145 HD
ATOM     22  H   UNL     1      40.226 -26.790 -12.621  0.00  0.00    +0.145 HD
ENDBRANCH  15  20
ENDBRANCH   3  12
BRANCH   5  24
ATOM     23  O   UNL     1      29.621 -23.050 -16.699  0.00  0.00    -0.099 OA
ATOM     24  N   UNL     1      30.659 -22.379 -16.607  0.00  0.00    -0.030 NA
ENDBRANCH   5  24
BRANCH   4  25
ATOM     25  O   UNL     1      33.234 -22.860 -17.582  0.00  0.00    -0.453 OA
BRANCH  25  26
ATOM     26  C   UNL     1      34.602 -22.611 -17.843  0.00  0.00    +0.208 C 
BRANCH  26  27
ATOM     27  C   UNL     1      34.713 -21.846 -19.161  0.00  0.00    +0.044 C 
ATOM     28  C   UNL     1      33.449 -21.013 -19.410  0.00  0.00    +0.004 C 
ATOM     29  C   UNL     1      35.963 -20.957 -19.169  0.00  0.00    +0.004 C 
ATOM     30  C   UNL     1      33.557 -20.197 -20.697  0.00  0.00    +0.000 C 
ATOM     31  C   UNL     1      36.068 -20.141 -20.455  0.00  0.00    +0.000 C 
ATOM     32  C   UNL     1      34.806 -19.321 -20.704  0.00  0.00    +0.000 C 
ENDBRANCH  26  27
ENDBRANCH  25  26
ENDBRANCH   4  25
TORSDOF 6
ENDMDL
MODEL 2
REMARK VINA RESULT:     -11.1      2.154      6.620
REMARK  Name = 5289411
REMARK  6 active torsions:
REMARK  status: ('A' for Active; 'I' for Inactive)
REMARK    1  A    between atoms: N_3  and  C_9
REMARK    2  A    between atoms: C_4  and  O_25
REMARK    3  A    between atoms: C_5  and  N_24
REMARK    4  A    between atoms: C_12  and  C_17
REMARK    5  A    between atoms: O_25  and  C_26
REMARK    6  A    between atoms: C_26  and  C_27
REMARK                            x       y       z     vdW  Elec       q    Type
REMARK                         _______ _______ _______ _____ _____    ______ ____
ROOT
ATOM      1  N   UNL     1      34.388 -23.411 -14.960  0.00  0.00    -0.293 NA
ATOM      2  N   UNL     1      35.143 -24.129 -12.787  0.00  0.00    -0.316 NA
ATOM      3  N   UNL     1      32.858 -24.102 -13.321  0.00  0.00    -0.238 N 
ATOM      4  C   UNL     1      35.677 -23.199 -15.295  0.00  0.00    +0.292 C 
ATOM      5  C   UNL     1      36.739 -23.425 -14.445  0.00  0.00    +0.261 C 
ATOM      6  C   UNL     1      36.409 -23.895 -13.190  0.00  0.00    +0.196 C 
ATOM      7  C   UNL     1      34.195 -23.869 -13.708  0.00  0.00    +0.207 C 
ATOM      8  H   UNL     1      32.765 -24.435 -12.399  0.00  0.00    +0.166 HD
ATOM      9  N   UNL     1      37.446 -24.152 -12.258  0.00  0.00    -0.334 N 
ATOM     10  H   UNL     1      37.228 -24.487 -11.358  0.00  0.00    +0.144 HD
ATOM     11  H   UNL     1      38.385 -23.995 -12.510  0.00  0.00    +0.144 HD
ENDROOT
BRANCH   3  12
ATOM     12  C   UNL     1      31.632 -23.952 -13.994  0.00  0.00    +0.058 C 
ATOM     13  C   UNL     1      30.881 -25.077 -14.343  0.00  0.00    +0.015 C 
ATOM     14  C   UNL     1      31.162 -22.677 -14.318  0.00  0.00    +0.015 C 
ATOM     15  C   UNL     1      29.199 -23.653 -15.334  0.00  0.00    +0.053 C 
ATOM     16  C   UNL     1      29.666 -24.927 -15.012  0.00  0.00    +0.006 C 
ATOM     17  C   UNL     1      29.947 -22.527 -14.987  0.00  0.00    +0.006 C 
BRANCH  15  20
ATOM     18  O   UNL     1      27.620 -24.243 -16.978  0.00  0.00    -0.270 OA
ATOM     19  N   UNL     1      27.070 -22.498 -15.596  0.00  0.00    -0.325 N 
ATOM     20  C   UNL     1      27.933 -23.498 -16.032  0.00  0.00    +0.243 C 
ATOM     21  H   UNL     1      26.204 -22.364 -16.044  0.00  0.00    +0.145 HD
ATOM     22  H   UNL     1      27.325 -21.925 -14.837  0.00  0.00    +0.145 HD
ENDBRANCH  15  20
ENDBRANCH   3  12
BRANCH   5  24
ATOM     23  O   UNL     1      38.772 -24.185 -14.727  0.00  0.00    -0.099 OA
ATOM     24  N   UNL     1      38.036 -23.193 -14.834  0.00  0.00    -0.030 NA
ENDBRANCH   5  24
BRANCH   4  25
ATOM     25  O   UNL     1      35.893 -22.731 -16.568  0.00  0.00    -0.453 OA
BRANCH  25  26
ATOM     26  C   UNL     1      34.848 -22.911 -17.506  0.00  0.00    +0.208 C 
BRANCH  26  27
ATOM     27  C   UNL     1      34.703 -21.629 -18.323  0.00  0.00    +0.044 C 
ATOM     28  C   UNL     1      35.882 -21.469 -19.292  0.00  0.00    +0.004 C 
ATOM     29  C   UNL     1      33.369 -21.616 -19.079  0.00  0.00    +0.004 C 
ATOM     30  C   UNL     1      35.734 -20.220 -20.159  0.00  0.00    +0.000 C 
ATOM     31  C   UNL     1      33.224 -20.367 -19.946  0.00  0.00    +0.000 C 
ATOM     32  C   UNL     1      34.402 -20.207 -20.902  0.00  0.00    +0.000 C 
ENDBRANCH  26  27
ENDBRANCH  25  26
ENDBRANCH   4  25
TORSDOF 6
ENDMDL
MODEL 3
REMARK VINA RESULT:     -11.0      3.072      7.014
REMARK  Name = 5289411
REMARK  6 active torsions:
REMARK  status: ('A' for Active; 'I' for Inactive)
REMARK    1  A    between atoms: N_3  and  C_9
REMARK    2  A    between atoms: C_4  and  O_25
REMARK    3  A    between atoms: C_5  and  N_24
REMARK    4  A    between atoms: C_12  and  C_17
REMARK    5  A    between atoms: O_25  and  C_26
REMARK    6  A    between atoms: C_26  and  C_27
REMARK                            x       y       z     vdW  Elec       q    Type
REMARK                         _______ _______ _______ _____ _____    ______ ____
ROOT
ATOM      1  N   UNL     1      35.290 -23.679 -13.720  0.00  0.00    -0.293 NA
ATOM      2  N   UNL     1      37.617 -23.649 -13.094  0.00  0.00    -0.316 NA
ATOM      3  N   UNL     1      36.923 -22.860 -15.192  0.00  0.00    -0.238 N 
ATOM      4  C   UNL     1      35.013 -24.217 -12.515  0.00  0.00    +0.292 C 
ATOM      5  C   UNL     1      35.967 -24.498 -11.561  0.00  0.00    +0.261 C 
ATOM      6  C   UNL     1      37.267 -24.190 -11.908  0.00  0.00    +0.196 C 
ATOM      7  C   UNL     1      36.594 -23.424 -13.941  0.00  0.00    +0.207 C 
ATOM      8  H   UNL     1      37.887 -22.691 -15.309  0.00  0.00    +0.166 HD
ATOM      9  N   UNL     1      38.306 -24.449 -10.979  0.00  0.00    -0.334 N 
ATOM     10  H   UNL     1      39.239 -24.234 -11.211  0.00  0.00    +0.144 HD
ATOM     11  H   UNL     1      38.095 -24.841 -10.102  0.00  0.00    +0.144 HD
ENDROOT
BRANCH   3  12
ATOM     12  C   UNL     1      36.146 -22.491 -16.304  0.00  0.00    +0.058 C 
ATOM     13  C   UNL     1      36.712 -21.739 -17.337  0.00  0.00    +0.015 C 
ATOM     14  C   UNL     1      34.805 -22.872 -16.380  0.00  0.00    +0.015 C 
ATOM     15  C   UNL     1      34.601 -21.754 -18.511  0.00  0.00    +0.053 C 
ATOM     16  C   UNL     1      35.940 -21.372 -18.439  0.00  0.00    +0.006 C 
ATOM     17  C   UNL     1      34.032 -22.504 -17.482  0.00  0.00    +0.006 C 
BRANCH  15  20
ATOM     18  O   UNL     1      32.649 -21.819 -19.828  0.00  0.00    -0.270 OA
ATOM     19  N   UNL     1      34.345 -20.463 -20.562  0.00  0.00    -0.325 N 
ATOM     20  C   UNL     1      33.796 -21.369 -19.660  0.00  0.00    +0.243 C 
ATOM     21  H   UNL     1      33.830 -20.180 -21.351  0.00  0.00    +0.145 HD
ATOM     22  H   UNL     1      35.250 -20.105 -20.410  0.00  0.00    +0.145 HD
ENDBRANCH  15  20
ENDBRANCH   3  12
BRANCH   5  24
ATOM     23  O   UNL     1      35.984 -24.361  -9.376  0.00  0.00    -0.099 OA
ATOM     24  N   UNL     1      35.633 -25.048 -10.347  0.00  0.00    -0.030 NA
ENDBRANCH   5  24
BRANCH   4  25
ATOM     25  O   UNL     1      33.688 -24.484 -12.274  0.00  0.00    -0.453 OA
BRANCH  25  26
ATOM     26  C   UNL     1      32.750 -23.497 -12.661  0.00  0.00    +0.208 C 
BRANCH  26  27
ATOM     27  C   UNL     1      31.910 -24.051 -13.810  0.00  0.00    +0.044 C 
ATOM     28  C   UNL     1      30.830 -25.004 -13.280  0.00  0.00    +0.004 C 
ATOM     29  C   UNL     1      31.282 -22.910 -14.621  0.00  0.00    +0.004 C 
ATOM     30  C   UNL     1      29.941 -25.530 -14.406  0.00  0.00    +0.000 C 
ATOM     31  C   UNL     1      30.393 -23.439 -15.744  0.00  0.00    +0.000 C 
ATOM     32  C   UNL     1      29.326 -24.392 -15.214  0.00  0.00    +0.000 C 
ENDBRANCH  26  27
ENDBRANCH  25  26
ENDBRANCH   4  25
TORSDOF 6
ENDMDL
MODEL 4
REMARK VINA RESULT:     -10.9      2.752      7.085
REMARK  Name = 5289411
REMARK  6 active torsions:
REMARK  status: ('A' for Active; 'I' for Inactive)
REMARK    1  A    between atoms: N_3  and  C_9
REMARK    2  A    between atoms: C_4  and  O_25
REMARK    3  A    between atoms: C_5  and  N_24
REMARK    4  A    between atoms: C_12  and  C_17
REMARK    5  A    between atoms: O_25  and  C_26
REMARK    6  A    between atoms: C_26  and  C_27
REMARK                            x       y       z     vdW  Elec       q    Type
REMARK                         _______ _______ _______ _____ _____    ______ ____
ROOT
ATOM      1  N   UNL     1      33.906 -22.609 -16.471  0.00  0.00    -0.293 NA
ATOM      2  N   UNL     1      31.653 -23.374 -16.851  0.00  0.00    -0.316 NA
ATOM      3  N   UNL     1      32.774 -22.084 -18.458  0.00  0.00    -0.238 N 
ATOM      4  C   UNL     1      33.873 -23.228 -15.274  0.00  0.00    +0.292 C 
ATOM      5  C   UNL     1      32.784 -23.929 -14.801  0.00  0.00    +0.261 C 
ATOM      6  C   UNL     1      31.690 -23.970 -15.641  0.00  0.00    +0.196 C 
ATOM      7  C   UNL     1      32.778 -22.720 -17.198  0.00  0.00    +0.207 C 
ATOM      8  H   UNL     1      31.930 -22.191 -18.954  0.00  0.00    +0.166 HD
ATOM      9  N   UNL     1      30.530 -24.672 -15.226  0.00  0.00    -0.334 N 
ATOM     10  H   UNL     1      29.741 -24.710 -15.813  0.00  0.00    +0.144 HD
ATOM     11  H   UNL     1      30.514 -25.122 -14.351  0.00  0.00    +0.144 HD
ENDROOT
BRANCH   3  12
ATOM     12  C   UNL     1      33.741 -21.327 -19.145  0.00  0.00    +0.058 C 
ATOM     13  C   UNL     1      35.100 -21.590 -18.959  0.00  0.00    +0.015 C 
ATOM     14  C   UNL     1      33.345 -20.308 -20.014  0.00  0.00    +0.015 C 
ATOM     15  C   UNL     1      35.659 -19.821 -20.507  0.00  0.00    +0.053 C 
ATOM     16  C   UNL     1      36.058 -20.838 -19.640  0.00  0.00    +0.006 C 
ATOM     17  C   UNL     1      34.303 -19.556 -20.695  0.00  0.00    +0.006 C 
BRANCH  15  20
ATOM     18  O   UNL     1      37.808 -18.893 -20.763  0.00  0.00    -0.270 OA
ATOM     19  N   UNL     1      36.293 -18.465 -22.429  0.00  0.00    -0.325 N 
ATOM     20  C   UNL     1      36.659 -19.037 -21.215  0.00  0.00    +0.243 C 
ATOM     21  H   UNL     1      36.944 -17.928 -22.936  0.00  0.00    +0.145 HD
ATOM     22  H   UNL     1      35.384 -18.598 -22.781  0.00  0.00    +0.145 HD
ENDBRANCH  15  20
ENDBRANCH   3  12
BRANCH   5  24
ATOM     23  O   UNL     1      32.150 -23.940 -12.706  0.00  0.00    -0.099 OA
ATOM     24  N   UNL     1      32.800 -24.544 -13.572  0.00  0.00    -0.030 NA
ENDBRANCH   5  24
BRANCH   4  25
ATOM     25  O   UNL     1      35.015 -23.125 -14.518  0.00  0.00    -0.453 OA
BRANCH  25  26
ATOM     26  C   UNL     1      36.250 -23.269 -15.194  0.00  0.00    +0.208 C 
BRANCH  26  27
ATOM     27  C   UNL     1      37.113 -24.264 -14.422  0.00  0.00    +0.044 C 
ATOM     28  C   UNL     1      37.337 -23.782 -12.982  0.00  0.00    +0.004 C 
ATOM     29  C   UNL     1      36.478 -25.660 -14.438  0.00  0.00    +0.004 C 
ATOM     30  C   UNL     1      38.154 -24.786 -12.172  0.00  0.00    +0.000 C 
ATOM     31  C   UNL     1      37.296 -26.662 -13.626  0.00  0.00    +0.000 C 
ATOM     32  C   UNL     1      37.523 -26.175 -12.198  0.00  0.00    +0.000 C 
ENDBRANCH  26  27
ENDBRANCH  25  26
ENDBRANCH   4  25
TORSDOF 6
ENDMDL
MODEL 5
REMARK VINA RESULT:     -10.7      1.798      6.508
REMARK  Name = 5289411
REMARK  6 active torsions:
REMARK  status: ('A' for Active; 'I' for Inactive)
REMARK    1  A    between atoms: N_3  and  C_9
REMARK    2  A    between atoms: C_4  and  O_25
REMARK    3  A    between atoms: C_5  and  N_24
REMARK    4  A    between atoms: C_12  and  C_17
REMARK    5  A    between atoms: O_25  and  C_26
REMARK    6  A    between atoms: C_26  and  C_27
REMARK                            x       y       z     vdW  Elec       q    Type
REMARK                         _______ _______ _______ _____ _____    ______ ____
ROOT
ATOM      1  N   UNL     1      35.746 -24.100 -14.540  0.00  0.00    -0.293 NA
ATOM      2  N   UNL     1      36.342 -25.568 -12.724  0.00  0.00    -0.316 NA
ATOM      3  N   UNL     1      34.103 -24.991 -13.122  0.00  0.00    -0.238 N 
ATOM      4  C   UNL     1      37.056 -24.018 -14.851  0.00  0.00    +0.292 C 
ATOM      5  C   UNL     1      38.053 -24.670 -14.158  0.00  0.00    +0.261 C 
ATOM      6  C   UNL     1      37.634 -25.440 -13.092  0.00  0.00    +0.196 C 
ATOM      7  C   UNL     1      35.464 -24.881 -13.479  0.00  0.00    +0.207 C 
ATOM      8  H   UNL     1      33.944 -25.571 -12.342  0.00  0.00    +0.166 HD
ATOM      9  N   UNL     1      38.600 -26.143 -12.329  0.00  0.00    -0.334 N 
ATOM     10  H   UNL     1      38.317 -26.696 -11.565  0.00  0.00    +0.144 HD
ATOM     11  H   UNL     1      39.554 -26.078 -12.564  0.00  0.00    +0.144 HD
ENDROOT
BRANCH   3  12
ATOM     12  C   UNL     1      32.929 -24.436 -13.662  0.00  0.00    +0.058 C 
ATOM     13  C   UNL     1      31.718 -25.126 -13.567  0.00  0.00    +0.015 C 
ATOM     14  C   UNL     1      32.969 -23.193 -14.298  0.00  0.00    +0.015 C 
ATOM     15  C   UNL     1      30.598 -23.335 -14.739  0.00  0.00    +0.053 C 
ATOM     16  C   UNL     1      30.554 -24.576 -14.104  0.00  0.00    +0.006 C 
ATOM     17  C   UNL     1      31.805 -22.643 -14.836  0.00  0.00    +0.006 C 
BRANCH  15  20
ATOM     18  O   UNL     1      28.663 -21.997 -14.637  0.00  0.00    -0.270 OA
ATOM     19  N   UNL     1      29.063 -23.085 -16.615  0.00  0.00    -0.325 N 
ATOM     20  C   UNL     1      29.384 -22.762 -15.300  0.00  0.00    +0.243 C 
ATOM     21  H   UNL     1      28.250 -22.716 -17.028  0.00  0.00    +0.145 HD
ATOM     22  H   UNL     1      29.651 -23.682 -17.132  0.00  0.00    +0.145 HD
ENDBRANCH  15  20
ENDBRANCH   3  12
BRANCH   5  24
ATOM     23  O   UNL     1      39.894 -25.627 -14.855  0.00  0.00    -0.099 OA
ATOM     24  N   UNL     1      39.375 -24.554 -14.516  0.00  0.00    -0.030 NA
ENDBRANCH   5  24
BRANCH   4  25
ATOM     25  O   UNL     1      37.362 -23.226 -15.930  0.00  0.00    -0.453 OA
BRANCH  25  26
ATOM     26  C   UNL     1      36.535 -22.101 -16.159  0.00  0.00    +0.208 C 
BRANCH  26  27
ATOM     27  C   UNL     1      35.986 -22.183 -17.581  0.00  0.00    +0.044 C 
ATOM     28  C   UNL     1      34.457 -22.315 -17.564  0.00  0.00    +0.004 C 
ATOM     29  C   UNL     1      36.419 -20.962 -18.402  0.00  0.00    +0.004 C 
ATOM     30  C   UNL     1      33.878 -22.347 -18.978  0.00  0.00    +0.000 C 
ATOM     31  C   UNL     1      35.838 -20.994 -19.813  0.00  0.00    +0.000 C 
ATOM     32  C   UNL     1      34.319 -21.135 -19.792  0.00  0.00    +0.000 C 
ENDBRANCH  26  27
ENDBRANCH  25  26
ENDBRANCH   4  25
TORSDOF 6
ENDMDL
MODEL 6
REMARK VINA RESULT:     -10.6      2.669      5.370
REMARK  Name = 5289411
REMARK  6 active torsions:
REMARK  status: ('A' for Active; 'I' for Inactive)
REMARK    1  A    between atoms: N_3  and  C_9
REMARK    2  A    between atoms: C_4  and  O_25
REMARK    3  A    between atoms: C_5  and  N_24
REMARK    4  A    between atoms: C_12  and  C_17
REMARK    5  A    between atoms: O_25  and  C_26
REMARK    6  A    between atoms: C_26  and  C_27
REMARK                            x       y       z     vdW  Elec       q    Type
REMARK                         _______ _______ _______ _____ _____    ______ ____
ROOT
ATOM      1  N   UNL     1      34.823 -22.677 -17.128  0.00  0.00    -0.293 NA
ATOM      2  N   UNL     1      36.208 -21.261 -18.501  0.00  0.00    -0.316 NA
ATOM      3  N   UNL     1      37.052 -22.237 -16.542  0.00  0.00    -0.238 N 
ATOM      4  C   UNL     1      33.817 -22.474 -18.002  0.00  0.00    +0.292 C 
ATOM      5  C   UNL     1      33.925 -21.691 -19.131  0.00  0.00    +0.261 C 
ATOM      6  C   UNL     1      35.157 -21.102 -19.333  0.00  0.00    +0.196 C 
ATOM      7  C   UNL     1      35.975 -22.049 -17.434  0.00  0.00    +0.207 C 
ATOM      8  H   UNL     1      37.872 -21.760 -16.805  0.00  0.00    +0.166 HD
ATOM      9  N   UNL     1      35.349 -20.282 -20.473  0.00  0.00    -0.334 N 
ATOM     10  H   UNL     1      36.222 -19.855 -20.631  0.00  0.00    +0.144 HD
ATOM     11  H   UNL     1      34.609 -20.139 -21.106  0.00  0.00    +0.144 HD
ENDROOT
BRANCH   3  12
ATOM     12  C   UNL     1      37.184 -22.973 -15.350  0.00  0.00    +0.058 C 
ATOM     13  C   UNL     1      36.242 -22.829 -14.329  0.00  0.00    +0.015 C 
ATOM     14  C   UNL     1      38.258 -23.850 -15.183  0.00  0.00    +0.015 C 
ATOM     15  C   UNL     1      37.449 -24.432 -12.983  0.00  0.00    +0.053 C 
ATOM     16  C   UNL     1      36.375 -23.558 -13.147  0.00  0.00    +0.006 C 
ATOM     17  C   UNL     1      38.391 -24.579 -14.001  0.00  0.00    +0.006 C 
BRANCH  15  20
ATOM     18  O   UNL     1      37.604 -24.627 -10.641  0.00  0.00    -0.270 OA
ATOM     19  N   UNL     1      37.681 -26.576 -11.847  0.00  0.00    -0.325 N 
ATOM     20  C   UNL     1      37.587 -25.191 -11.750  0.00  0.00    +0.243 C 
ATOM     21  H   UNL     1      37.775 -27.121 -11.034  0.00  0.00    +0.145 HD
ATOM     22  H   UNL     1      37.653 -27.009 -12.731  0.00  0.00    +0.145 HD
ENDBRANCH  15  20
ENDBRANCH   3  12
BRANCH   5  24
ATOM     23  O   UNL     1      32.339 -20.397 -19.908  0.00  0.00    -0.099 OA
ATOM     24  N   UNL     1      32.868 -21.515 -19.992  0.00  0.00    -0.030 NA
ENDBRANCH   5  24
BRANCH   4  25
ATOM     25  O   UNL     1      32.634 -23.106 -17.706  0.00  0.00    -0.453 OA
BRANCH  25  26
ATOM     26  C   UNL     1      31.942 -22.669 -16.551  0.00  0.00    +0.208 C 
BRANCH  26  27
ATOM     27  C   UNL     1      31.811 -23.847 -15.589  0.00  0.00    +0.044 C 
ATOM     28  C   UNL     1      32.606 -23.586 -14.303  0.00  0.00    +0.004 C 
ATOM     29  C   UNL     1      30.336 -24.128 -15.272  0.00  0.00    +0.004 C 
ATOM     30  C   UNL     1      32.447 -24.728 -13.300  0.00  0.00    +0.000 C 
ATOM     31  C   UNL     1      30.181 -25.268 -14.269  0.00  0.00    +0.000 C 
ATOM     32  C   UNL     1      30.980 -25.009 -12.995  0.00  0.00    +0.000 C 
ENDBRANCH  26  27
ENDBRANCH  25  26
ENDBRANCH   4  25
TORSDOF 6
ENDMDL
MODEL 7
REMARK VINA RESULT:      -9.8      3.094      7.569
REMARK  Name = 5289411
REMARK  6 active torsions:
REMARK  status: ('A' for Active; 'I' for Inactive)
REMARK    1  A    between atoms: N_3  and  C_9
REMARK    2  A    between atoms: C_4  and  O_25
REMARK    3  A    between atoms: C_5  and  N_24
REMARK    4  A    between atoms: C_12  and  C_17
REMARK    5  A    between atoms: O_25  and  C_26
REMARK    6  A    between atoms: C_26  and  C_27
REMARK                            x       y       z     vdW  Elec       q    Type
REMARK                         _______ _______ _______ _____ _____    ______ ____
ROOT
ATOM      1  N   UNL     1      34.973 -22.468 -17.303  0.00  0.00    -0.293 NA
ATOM      2  N   UNL     1      37.009 -22.510 -16.014  0.00  0.00    -0.316 NA
ATOM      3  N   UNL     1      36.845 -21.219 -17.966  0.00  0.00    -0.238 N 
ATOM      4  C   UNL     1      34.434 -23.319 -16.406  0.00  0.00    +0.292 C 
ATOM      5  C   UNL     1      35.107 -23.805 -15.306  0.00  0.00    +0.261 C 
ATOM      6  C   UNL     1      36.406 -23.361 -15.158  0.00  0.00    +0.196 C 
ATOM      7  C   UNL     1      36.247 -22.109 -17.049  0.00  0.00    +0.207 C 
ATOM      8  H   UNL     1      37.775 -20.985 -17.742  0.00  0.00    +0.166 HD
ATOM      9  N   UNL     1      37.165 -23.815 -14.050  0.00  0.00    -0.334 N 
ATOM     10  H   UNL     1      38.093 -23.508 -13.930  0.00  0.00    +0.144 HD
ATOM     11  H   UNL     1      36.765 -24.436 -13.400  0.00  0.00    +0.144 HD
ENDROOT
BRANCH   3  12
ATOM     12  C   UNL     1      36.373 -20.599 -19.138  0.00  0.00    +0.058 C 
ATOM     13  C   UNL     1      37.186 -19.697 -19.829  0.00  0.00    +0.015 C 
ATOM     14  C   UNL     1      35.091 -20.881 -19.612  0.00  0.00    +0.015 C 
ATOM     15  C   UNL     1      35.435 -19.365 -21.461  0.00  0.00    +0.053 C 
ATOM     16  C   UNL     1      36.717 -19.081 -20.990  0.00  0.00    +0.006 C 
ATOM     17  C   UNL     1      34.622 -20.265 -20.773  0.00  0.00    +0.006 C 
BRANCH  15  20
ATOM     18  O   UNL     1      34.091 -19.263 -23.393  0.00  0.00    -0.270 OA
ATOM     19  N   UNL     1      35.456 -17.465 -22.988  0.00  0.00    -0.325 N 
ATOM     20  C   UNL     1      34.947 -18.721 -22.671  0.00  0.00    +0.243 C 
ATOM     21  H   UNL     1      35.148 -17.000 -23.798  0.00  0.00    +0.145 HD
ATOM     22  H   UNL     1      36.123 -17.043 -22.400  0.00  0.00    +0.145 HD
ENDBRANCH  15  20
ENDBRANCH   3  12
BRANCH   5  24
ATOM     23  O   UNL     1      34.141 -24.131 -13.369  0.00  0.00    -0.099 OA
ATOM     24  N   UNL     1      34.514 -24.672 -14.421  0.00  0.00    -0.030 NA
ENDBRANCH   5  24
BRANCH   4  25
ATOM     25  O   UNL     1      33.136 -23.696 -16.649  0.00  0.00    -0.453 OA
BRANCH  25  26
ATOM     26  C   UNL     1      32.156 -22.676 -16.635  0.00  0.00    +0.208 C 
BRANCH  26  27
ATOM     27  C   UNL     1      31.077 -23.053 -15.622  0.00  0.00    +0.044 C 
ATOM     28  C   UNL     1      29.681 -22.735 -16.175  0.00  0.00    +0.004 C 
ATOM     29  C   UNL     1      31.188 -24.533 -15.237  0.00  0.00    +0.004 C 
ATOM     30  C   UNL     1      28.581 -23.153 -15.201  0.00  0.00    +0.000 C 
ATOM     31  C   UNL     1      30.087 -24.948 -14.265  0.00  0.00    +0.000 C 
ATOM     32  C   UNL     1      28.701 -24.623 -14.814  0.00  0.00    +0.000 C 
ENDBRANCH  26  27
ENDBRANCH  25  26
ENDBRANCH   4  25
TORSDOF 6
ENDMDL
MODEL 8
REMARK VINA RESULT:      -9.3     12.302     16.791
REMARK  Name = 5289411
REMARK  6 active torsions:
REMARK  status: ('A' for Active; 'I' for Inactive)
REMARK    1  A    between atoms: N_3  and  C_9
REMARK    2  A    between atoms: C_4  and  O_25
REMARK    3  A    between atoms: C_5  and  N_24
REMARK    4  A    between atoms: C_12  and  C_17
REMARK    5  A    between atoms: O_25  and  C_26
REMARK    6  A    between atoms: C_26  and  C_27
REMARK                            x       y       z     vdW  Elec       q    Type
REMARK                         _______ _______ _______ _____ _____    ______ ____
ROOT
ATOM      1  N   UNL     1      32.634  -9.390 -22.276  0.00  0.00    -0.293 NA
ATOM      2  N   UNL     1      32.231  -8.740 -19.990  0.00  0.00    -0.316 NA
ATOM      3  N   UNL     1      33.109  -7.213 -21.541  0.00  0.00    -0.238 N 
ATOM      4  C   UNL     1      32.175 -10.619 -21.966  0.00  0.00    +0.292 C 
ATOM      5  C   UNL     1      31.734 -10.982 -20.711  0.00  0.00    +0.261 C 
ATOM      6  C   UNL     1      31.785  -9.991 -19.752  0.00  0.00    +0.196 C 
ATOM      7  C   UNL     1      32.635  -8.511 -21.255  0.00  0.00    +0.207 C 
ATOM      8  H   UNL     1      33.092  -6.605 -20.765  0.00  0.00    +0.166 HD
ATOM      9  N   UNL     1      31.348 -10.286 -18.436  0.00  0.00    -0.334 N 
ATOM     10  H   UNL     1      31.378  -9.589 -17.740  0.00  0.00    +0.144 HD
ATOM     11  H   UNL     1      31.014 -11.185 -18.218  0.00  0.00    +0.144 HD
ENDROOT
BRANCH   3  12
ATOM     12  C   UNL     1      33.600  -6.616 -22.716  0.00  0.00    +0.058 C 
ATOM     13  C   UNL     1      32.774  -5.789 -23.481  0.00  0.00    +0.015 C 
ATOM     14  C   UNL     1      34.915  -6.849 -23.123  0.00  0.00    +0.015 C 
ATOM     15  C   UNL     1      34.575  -5.434 -25.051  0.00  0.00    +0.053 C 
ATOM     16  C   UNL     1      33.262  -5.199 -24.647  0.00  0.00    +0.006 C 
ATOM     17  C   UNL     1      35.403  -6.259 -24.289  0.00  0.00    +0.006 C 
BRANCH  15  20
ATOM     18  O   UNL     1      34.998  -3.593 -26.458  0.00  0.00    -0.270 OA
ATOM     19  N   UNL     1      35.684  -5.647 -27.211  0.00  0.00    -0.325 N 
ATOM     20  C   UNL     1      35.082  -4.819 -26.268  0.00  0.00    +0.243 C 
ATOM     21  H   UNL     1      36.039  -5.265 -28.046  0.00  0.00    +0.145 HD
ATOM     22  H   UNL     1      35.755  -6.614 -27.041  0.00  0.00    +0.145 HD
ENDBRANCH  15  20
ENDBRANCH   3  12
BRANCH   5  24
ATOM     23  O   UNL     1      32.133 -12.995 -19.950  0.00  0.00    -0.099 OA
ATOM     24  N   UNL     1      31.275 -12.250 -20.446  0.00  0.00    -0.030 NA
ENDBRANCH   5  24
BRANCH   4  25
ATOM     25  O   UNL     1      32.167 -11.529 -22.995  0.00  0.00    -0.453 OA
BRANCH  25  26
ATOM     26  C   UNL     1      33.423 -11.984 -23.461  0.00  0.00    +0.208 C 
BRANCH  26  27
ATOM     27  C   UNL     1      33.412 -13.511 -23.473  0.00  0.00    +0.044 C 
ATOM     28  C   UNL     1      33.414 -14.042 -24.913  0.00  0.00    +0.004 C 
ATOM     29  C   UNL     1      34.604 -14.068 -22.684  0.00  0.00    +0.004 C 
ATOM     30  C   UNL     1      33.457 -15.568 -24.951  0.00  0.00    +0.000 C 
ATOM     31  C   UNL     1      34.645 -15.594 -22.725  0.00  0.00    +0.000 C 
ATOM     32  C   UNL     1      34.638 -16.117 -24.158  0.00  0.00    +0.000 C 
ENDBRANCH  26  27
ENDBRANCH  25  26
ENDBRANCH   4  25
TORSDOF 6
ENDMDL
MODEL 9
REMARK VINA RESULT:      -9.2     12.448     16.934
REMARK  Name = 5289411
REMARK  6 active torsions:
REMARK  status: ('A' for Active; 'I' for Inactive)
REMARK    1  A    between atoms: N_3  and  C_9
REMARK    2  A    between atoms: C_4  and  O_25
REMARK    3  A    between atoms: C_5  and  N_24
REMARK    4  A    between atoms: C_12  and  C_17
REMARK    5  A    between atoms: O_25  and  C_26
REMARK    6  A    between atoms: C_26  and  C_27
REMARK                            x       y       z     vdW  Elec       q    Type
REMARK                         _______ _______ _______ _____ _____    ______ ____
ROOT
ATOM      1  N   UNL     1      32.661  -9.236 -22.351  0.00  0.00    -0.293 NA
ATOM      2  N   UNL     1      32.289  -8.518 -20.081  0.00  0.00    -0.316 NA
ATOM      3  N   UNL     1      33.179  -7.049 -21.679  0.00  0.00    -0.238 N 
ATOM      4  C   UNL     1      32.184 -10.449 -22.004  0.00  0.00    +0.292 C 
ATOM      5  C   UNL     1      31.748 -10.770 -20.737  0.00  0.00    +0.261 C 
ATOM      6  C   UNL     1      31.824  -9.754 -19.805  0.00  0.00    +0.196 C 
ATOM      7  C   UNL     1      32.686  -8.330 -21.354  0.00  0.00    +0.207 C 
ATOM      8  H   UNL     1      33.179  -6.420 -20.920  0.00  0.00    +0.166 HD
ATOM      9  N   UNL     1      31.393 -10.006 -18.478  0.00  0.00    -0.334 N 
ATOM     10  H   UNL     1      31.441  -9.291 -17.801  0.00  0.00    +0.144 HD
ATOM     11  H   UNL     1      31.046 -10.893 -18.233  0.00  0.00    +0.144 HD
ENDROOT
BRANCH   3  12
ATOM     12  C   UNL     1      33.671  -6.492 -22.874  0.00  0.00    +0.058 C 
ATOM     13  C   UNL     1      34.959  -6.804 -23.315  0.00  0.00    +0.015 C 
ATOM     14  C   UNL     1      32.874  -5.624 -23.622  0.00  0.00    +0.015 C 
ATOM     15  C   UNL     1      34.648  -5.384 -25.244  0.00  0.00    +0.053 C 
ATOM     16  C   UNL     1      35.447  -6.251 -24.499  0.00  0.00    +0.006 C 
ATOM     17  C   UNL     1      33.361  -5.070 -24.806  0.00  0.00    +0.006 C 
BRANCH  15  20
ATOM     18  O   UNL     1      34.398  -4.510 -27.417  0.00  0.00    -0.270 OA
ATOM     19  N   UNL     1      36.527  -4.576 -26.568  0.00  0.00    -0.325 N 
ATOM     20  C   UNL     1      35.158  -4.806 -26.478  0.00  0.00    +0.243 C 
ATOM     21  H   UNL     1      36.908  -4.186 -27.388  0.00  0.00    +0.145 HD
ATOM     22  H   UNL     1      37.115  -4.803 -25.812  0.00  0.00    +0.145 HD
ENDBRANCH  15  20
ENDBRANCH   3  12
BRANCH   5  24
ATOM     23  O   UNL     1      32.113 -12.760 -19.904  0.00  0.00    -0.099 OA
ATOM     24  N   UNL     1      31.270 -12.022 -20.433  0.00  0.00    -0.030 NA
ENDBRANCH   5  24
BRANCH   4  25
ATOM     25  O   UNL     1      32.152 -11.385 -23.008  0.00  0.00    -0.453 OA
BRANCH  25  26
ATOM     26  C   UNL     1      33.397 -11.855 -23.491  0.00  0.00    +0.208 C 
BRANCH  26  27
ATOM     27  C   UNL     1      33.382 -13.382 -23.466  0.00  0.00    +0.044 C 
ATOM     28  C   UNL     1      33.415 -13.946 -24.892  0.00  0.00    +0.004 C 
ATOM     29  C   UNL     1      34.555 -13.922 -22.637  0.00  0.00    +0.004 C 
ATOM     30  C   UNL     1      33.454 -15.474 -24.893  0.00  0.00    +0.000 C 
ATOM     31  C   UNL     1      34.593 -15.449 -22.641  0.00  0.00    +0.000 C 
ATOM     32  C   UNL     1      34.617 -16.006 -24.061  0.00  0.00    +0.000 C 
ENDBRANCH  26  27
ENDBRANCH  25  26
ENDBRANCH   4  25
TORSDOF 6
ENDMDL
