MODEL 1
REMARK VINA RESULT:     -11.4      0.000      0.000
REMARK  Name = 115368
REMARK  5 active torsions:
REMARK  status: ('A' for Active; 'I' for Inactive)
REMARK    1  A    between atoms: N_2  and  C_17
REMARK    2  A    between atoms: C_17  and  C_18
REMARK    3  A    between atoms: C_18  and  C_19
REMARK    4  A    between atoms: C_19  and  C_20
REMARK    5  A    between atoms: C_20  and  N_23
REMARK                            x       y       z     vdW  Elec       q    Type
REMARK                         _______ _______ _______ _____ _____    ______ ____
ROOT
ATOM      1  S   UNL     1      32.433 -10.079 -23.502  0.00  0.00    +0.014 S 
ATOM      2  N   UNL     1      34.560 -16.309 -24.192  0.00  0.00    +0.389 N 
ATOM      3  N   UNL     1      33.717 -13.625 -23.689  0.00  0.00    -0.297 N 
ATOM      4  N   UNL     1      33.134 -11.380 -24.249  0.00  0.00    -0.194 NA
ATOM      5  C   UNL     1      34.736 -15.706 -22.865  0.00  0.00    -0.055 C 
ATOM      6  C   UNL     1      33.357 -15.767 -24.839  0.00  0.00    -0.055 C 
ATOM      7  C   UNL     1      34.860 -14.182 -22.959  0.00  0.00    +0.069 C 
ATOM      8  C   UNL     1      33.465 -14.250 -24.993  0.00  0.00    +0.069 C 
ATOM      9  C   UNL     1      33.188 -12.392 -23.380  0.00  0.00    +0.140 A 
ATOM     10  C   UNL     1      32.662 -12.150 -22.063  0.00  0.00    +0.040 A 
ATOM     11  C   UNL     1      32.182 -10.842 -21.980  0.00  0.00    +0.050 A 
ATOM     12  C   UNL     1      32.561 -12.978 -20.922  0.00  0.00    +0.003 C 
ATOM     13  C   UNL     1      31.609 -10.328 -20.806  0.00  0.00    +0.008 C 
ATOM     14  C   UNL     1      31.992 -12.476 -19.749  0.00  0.00    +0.000 C 
ATOM     15  C   UNL     1      31.523 -11.168 -19.693  0.00  0.00    +0.001 C 
ATOM     16  H   UNL     1      35.371 -16.078 -24.766  0.00  0.00    -0.080 HD
ENDROOT
BRANCH   2  17
ATOM     17  C   UNL     1      34.476 -17.766 -24.087  0.00  0.00    -0.077 C 
BRANCH  17  18
ATOM     18  C   UNL     1      35.269 -18.259 -22.878  0.00  0.00    -0.021 C 
BRANCH  18  19
ATOM     19  C   UNL     1      34.553 -19.423 -22.185  0.00  0.00    +0.020 C 
BRANCH  19  20
ATOM     20  C   UNL     1      34.485 -19.251 -20.671  0.00  0.00    +0.101 C 
BRANCH  20  23
ATOM     21  O   UNL     1      32.540 -21.165 -19.526  0.00  0.00    -0.274 OA
ATOM     22  O   UNL     1      37.082 -20.433 -19.993  0.00  0.00    -0.274 OA
ATOM     23  N   UNL     1      34.741 -20.490 -19.963  0.00  0.00    -0.230 N 
ATOM     24  C   UNL     1      34.447 -22.596 -19.036  0.00  0.00    +0.086 C 
ATOM     25  C   UNL     1      35.871 -22.116 -18.734  0.00  0.00    +0.086 C 
ATOM     26  C   UNL     1      33.735 -23.338 -17.912  0.00  0.00    +0.010 C 
ATOM     27  C   UNL     1      36.095 -21.642 -17.294  0.00  0.00    +0.010 C 
ATOM     28  C   UNL     1      33.968 -22.724 -16.538  0.00  0.00    +0.001 C 
ATOM     29  C   UNL     1      35.456 -22.560 -16.263  0.00  0.00    +0.001 C 
ATOM     30  C   UNL     1      33.749 -21.337 -19.507  0.00  0.00    +0.231 C 
ATOM     31  C   UNL     1      36.016 -20.929 -19.659  0.00  0.00    +0.231 C 
ENDBRANCH  20  23
ENDBRANCH  19  20
ENDBRANCH  18  19
ENDBRANCH  17  18
ENDBRANCH   2  17
TORSDOF 5
ENDMDL
MODEL 2
REMARK VINA RESULT:     -11.3      2.821      5.165
REMARK  Name = 115368
REMARK  5 active torsions:
REMARK  status: ('A' for Active; 'I' for Inactive)
REMARK    1  A    between atoms: N_2  and  C_17
REMARK    2  A    between atoms: C_17  and  C_18
REMARK    3  A    between atoms: C_18  and  C_19
REMARK    4  A    between atoms: C_19  and  C_20
REMARK    5  A    between atoms: C_20  and  N_23
REMARK                            x       y       z     vdW  Elec       q    Type
REMARK                         _______ _______ _______ _____ _____    ______ ____
ROOT
ATOM      1  S   UNL     1      33.756 -15.652 -25.138  0.00  0.00    +0.014 S 
ATOM      2  N   UNL     1      36.034 -20.127 -20.825  0.00  0.00    +0.389 N 
ATOM      3  N   UNL     1      35.180 -18.048 -22.591  0.00  0.00    -0.297 N 
ATOM      4  N   UNL     1      34.311 -17.121 -24.610  0.00  0.00    -0.194 NA
ATOM      5  C   UNL     1      36.529 -18.755 -20.660  0.00  0.00    -0.055 C 
ATOM      6  C   UNL     1      34.665 -20.112 -21.358  0.00  0.00    -0.055 C 
ATOM      7  C   UNL     1      36.516 -17.996 -21.989  0.00  0.00    +0.069 C 
ATOM      8  C   UNL     1      34.621 -19.400 -22.711  0.00  0.00    +0.069 C 
ATOM      9  C   UNL     1      34.674 -17.003 -23.331  0.00  0.00    +0.140 A 
ATOM     10  C   UNL     1      34.517 -15.709 -22.724  0.00  0.00    +0.040 A 
ATOM     11  C   UNL     1      33.990 -14.812 -23.655  0.00  0.00    +0.050 A 
ATOM     12  C   UNL     1      34.794 -15.240 -21.420  0.00  0.00    +0.003 C 
ATOM     13  C   UNL     1      33.730 -13.470 -23.338  0.00  0.00    +0.008 C 
ATOM     14  C   UNL     1      34.539 -13.905 -21.094  0.00  0.00    +0.000 C 
ATOM     15  C   UNL     1      34.014 -13.033 -22.042  0.00  0.00    +0.001 C 
ATOM     16  H   UNL     1      36.636 -20.613 -21.490  0.00  0.00    -0.080 HD
ENDROOT
BRANCH   2  17
ATOM     17  C   UNL     1      36.083 -20.849 -19.554  0.00  0.00    -0.077 C 
BRANCH  17  18
ATOM     18  C   UNL     1      34.757 -21.563 -19.297  0.00  0.00    -0.021 C 
BRANCH  18  19
ATOM     19  C   UNL     1      34.801 -22.355 -17.986  0.00  0.00    +0.020 C 
BRANCH  19  20
ATOM     20  C   UNL     1      33.617 -23.305 -17.835  0.00  0.00    +0.101 C 
BRANCH  20  23
ATOM     21  O   UNL     1      34.640 -24.237 -15.220  0.00  0.00    -0.274 OA
ATOM     22  O   UNL     1      30.998 -22.162 -17.173  0.00  0.00    -0.274 OA
ATOM     23  N   UNL     1      32.993 -23.206 -16.530  0.00  0.00    -0.230 N 
ATOM     24  C   UNL     1      32.701 -23.148 -14.230  0.00  0.00    +0.086 C 
ATOM     25  C   UNL     1      31.339 -22.957 -14.907  0.00  0.00    +0.086 C 
ATOM     26  C   UNL     1      32.715 -24.023 -12.983  0.00  0.00    +0.010 C 
ATOM     27  C   UNL     1      30.429 -24.189 -14.875  0.00  0.00    +0.010 C 
ATOM     28  C   UNL     1      31.835 -25.261 -13.101  0.00  0.00    +0.001 C 
ATOM     29  C   UNL     1      30.421 -24.883 -13.520  0.00  0.00    +0.001 C 
ATOM     30  C   UNL     1      33.584 -23.638 -15.358  0.00  0.00    +0.231 C 
ATOM     31  C   UNL     1      31.728 -22.684 -16.343  0.00  0.00    +0.231 C 
ENDBRANCH  20  23
ENDBRANCH  19  20
ENDBRANCH  18  19
ENDBRANCH  17  18
ENDBRANCH   2  17
TORSDOF 5
ENDMDL
MODEL 3
REMARK VINA RESULT:     -11.2      2.123      3.112
REMARK  Name = 115368
REMARK  5 active torsions:
REMARK  status: ('A' for Active; 'I' for Inactive)
REMARK    1  A    between atoms: N_2  and  C_17
REMARK    2  A    between atoms: C_17  and  C_18
REMARK    3  A    between atoms: C_18  and  C_19
REMARK    4  A    between atoms: C_19  and  C_20
REMARK    5  A    between atoms: C_20  and  N_23
REMARK                            x       y       z     vdW  Elec       q    Type
REMARK                         _______ _______ _______ _____ _____    ______ ____
ROOT
ATOM      1  S   UNL     1      31.061  -8.209 -22.831  0.00  0.00    +0.014 S 
ATOM      2  N   UNL     1      33.626 -14.285 -22.258  0.00  0.00    +0.389 N 
ATOM      3  N   UNL     1      32.660 -11.626 -22.668  0.00  0.00    -0.297 N 
ATOM      4  N   UNL     1      31.067  -9.851 -22.613  0.00  0.00    -0.194 NA
ATOM      5  C   UNL     1      34.247 -13.409 -23.258  0.00  0.00    -0.055 C 
ATOM      6  C   UNL     1      33.121 -13.488 -21.131  0.00  0.00    -0.055 C 
ATOM      7  C   UNL     1      33.252 -12.371 -23.784  0.00  0.00    +0.069 C 
ATOM      8  C   UNL     1      32.088 -12.468 -21.611  0.00  0.00    +0.069 C 
ATOM      9  C   UNL     1      32.313 -10.298 -22.782  0.00  0.00    +0.140 A 
ATOM     10  C   UNL     1      33.320  -9.322 -23.101  0.00  0.00    +0.040 A 
ATOM     11  C   UNL     1      32.742  -8.052 -23.163  0.00  0.00    +0.050 A 
ATOM     12  C   UNL     1      34.706  -9.443 -23.341  0.00  0.00    +0.003 C 
ATOM     13  C   UNL     1      33.492  -6.903 -23.457  0.00  0.00    +0.008 C 
ATOM     14  C   UNL     1      35.462  -8.304 -23.633  0.00  0.00    +0.000 C 
ATOM     15  C   UNL     1      34.861  -7.052 -23.691  0.00  0.00    +0.001 C 
ATOM     16  H   UNL     1      32.839 -14.769 -22.691  0.00  0.00    -0.080 HD
ENDROOT
BRANCH   2  17
ATOM     17  C   UNL     1      34.580 -15.290 -21.790  0.00  0.00    -0.077 C 
BRANCH  17  18
ATOM     18  C   UNL     1      35.076 -16.136 -22.961  0.00  0.00    -0.021 C 
BRANCH  18  19
ATOM     19  C   UNL     1      35.337 -17.582 -22.527  0.00  0.00    +0.020 C 
BRANCH  19  20
ATOM     20  C   UNL     1      35.160 -17.785 -21.026  0.00  0.00    +0.101 C 
BRANCH  20  23
ATOM     21  O   UNL     1      33.315 -20.018 -20.420  0.00  0.00    -0.274 OA
ATOM     22  O   UNL     1      37.811 -18.940 -20.538  0.00  0.00    -0.274 OA
ATOM     23  N   UNL     1      35.478 -19.136 -20.609  0.00  0.00    -0.230 N 
ATOM     24  C   UNL     1      35.298 -21.412 -20.198  0.00  0.00    +0.086 C 
ATOM     25  C   UNL     1      36.682 -20.934 -19.742  0.00  0.00    +0.086 C 
ATOM     26  C   UNL     1      34.609 -22.431 -19.300  0.00  0.00    +0.010 C 
ATOM     27  C   UNL     1      36.841 -20.790 -18.225  0.00  0.00    +0.010 C 
ATOM     28  C   UNL     1      34.770 -22.137 -17.815  0.00  0.00    +0.001 C 
ATOM     29  C   UNL     1      36.239 -21.956 -17.454  0.00  0.00    +0.001 C 
ATOM     30  C   UNL     1      34.532 -20.121 -20.395  0.00  0.00    +0.231 C 
ATOM     31  C   UNL     1      36.771 -19.559 -20.366  0.00  0.00    +0.231 C 
ENDBRANCH  20  23
ENDBRANCH  19  20
ENDBRANCH  18  19
ENDBRANCH  17  18
ENDBRANCH   2  17
TORSDOF 5
ENDMDL
MODEL 4
REMARK VINA RESULT:     -10.9      3.570      9.389
REMARK  Name = 115368
REMARK  5 active torsions:
REMARK  status: ('A' for Active; 'I' for Inactive)
REMARK    1  A    between atoms: N_2  and  C_17
REMARK    2  A    between atoms: C_17  and  C_18
REMARK    3  A    between atoms: C_18  and  C_19
REMARK    4  A    between atoms: C_19  and  C_20
REMARK    5  A    between atoms: C_20  and  N_23
REMARK                            x       y       z     vdW  Elec       q    Type
REMARK                         _______ _______ _______ _____ _____    ______ ____
ROOT
ATOM      1  S   UNL     1      37.110 -20.426 -19.033  0.00  0.00    +0.014 S 
ATOM      2  N   UNL     1      34.599 -17.027 -24.127  0.00  0.00    +0.389 N 
ATOM      3  N   UNL     1      35.554 -18.661 -21.986  0.00  0.00    -0.297 N 
ATOM      4  N   UNL     1      37.111 -19.411 -20.342  0.00  0.00    -0.194 NA
ATOM      5  C   UNL     1      34.044 -18.367 -23.905  0.00  0.00    -0.055 C 
ATOM      6  C   UNL     1      35.001 -16.426 -22.848  0.00  0.00    -0.055 C 
ATOM      7  C   UNL     1      35.063 -19.283 -23.219  0.00  0.00    +0.069 C 
ATOM      8  C   UNL     1      36.054 -17.291 -22.154  0.00  0.00    +0.069 C 
ATOM      9  C   UNL     1      35.889 -19.407 -20.878  0.00  0.00    +0.140 A 
ATOM     10  C   UNL     1      34.896 -20.233 -20.247  0.00  0.00    +0.040 A 
ATOM     11  C   UNL     1      35.458 -20.892 -19.151  0.00  0.00    +0.050 A 
ATOM     12  C   UNL     1      33.534 -20.463 -20.544  0.00  0.00    +0.003 C 
ATOM     13  C   UNL     1      34.716 -21.768 -18.345  0.00  0.00    +0.008 C 
ATOM     14  C   UNL     1      32.787 -21.334 -19.746  0.00  0.00    +0.000 C 
ATOM     15  C   UNL     1      33.372 -21.978 -18.662  0.00  0.00    +0.001 C 
ATOM     16  H   UNL     1      35.424 -17.109 -24.722  0.00  0.00    -0.080 HD
ENDROOT
BRANCH   2  17
ATOM     17  C   UNL     1      33.626 -16.175 -24.812  0.00  0.00    -0.077 C 
BRANCH  17  18
ATOM     18  C   UNL     1      34.078 -14.716 -24.774  0.00  0.00    -0.021 C 
BRANCH  18  19
ATOM     19  C   UNL     1      33.069 -13.844 -24.020  0.00  0.00    +0.020 C 
BRANCH  19  20
ATOM     20  C   UNL     1      33.673 -13.183 -22.785  0.00  0.00    +0.101 C 
BRANCH  20  23
ATOM     21  O   UNL     1      33.289 -10.278 -23.201  0.00  0.00    -0.274 OA
ATOM     22  O   UNL     1      31.742 -13.829 -20.675  0.00  0.00    -0.274 OA
ATOM     23  N   UNL     1      32.742 -12.288 -22.127  0.00  0.00    -0.230 N 
ATOM     24  C   UNL     1      31.396 -10.452 -21.681  0.00  0.00    +0.086 C 
ATOM     25  C   UNL     1      31.261 -11.456 -20.530  0.00  0.00    +0.086 C 
ATOM     26  C   UNL     1      31.442  -8.981 -21.288  0.00  0.00    +0.010 C 
ATOM     27  C   UNL     1      32.013 -11.069 -19.252  0.00  0.00    +0.010 C 
ATOM     28  C   UNL     1      32.285  -8.711 -20.049  0.00  0.00    +0.001 C 
ATOM     29  C   UNL     1      31.849  -9.600 -18.892  0.00  0.00    +0.001 C 
ATOM     30  C   UNL     1      32.615 -10.946 -22.433  0.00  0.00    +0.231 C 
ATOM     31  C   UNL     1      31.904 -12.697 -21.108  0.00  0.00    +0.231 C 
ENDBRANCH  20  23
ENDBRANCH  19  20
ENDBRANCH  18  19
ENDBRANCH  17  18
ENDBRANCH   2  17
TORSDOF 5
ENDMDL
MODEL 5
REMARK VINA RESULT:     -10.8      4.071     10.211
REMARK  Name = 115368
REMARK  5 active torsions:
REMARK  status: ('A' for Active; 'I' for Inactive)
REMARK    1  A    between atoms: N_2  and  C_17
REMARK    2  A    between atoms: C_17  and  C_18
REMARK    3  A    between atoms: C_18  and  C_19
REMARK    4  A    between atoms: C_19  and  C_20
REMARK    5  A    between atoms: C_20  and  N_23
REMARK                            x       y       z     vdW  Elec       q    Type
REMARK                         _______ _______ _______ _____ _____    ______ ____
ROOT
ATOM      1  S   UNL     1      34.895 -24.556 -14.029  0.00  0.00    +0.014 S 
ATOM      2  N   UNL     1      35.219 -21.266 -19.764  0.00  0.00    +0.389 N 
ATOM      3  N   UNL     1      34.876 -22.746 -17.343  0.00  0.00    -0.297 N 
ATOM      4  N   UNL     1      35.571 -23.997 -15.434  0.00  0.00    -0.194 NA
ATOM      5  C   UNL     1      33.942 -21.925 -19.465  0.00  0.00    -0.055 C 
ATOM      6  C   UNL     1      35.868 -20.829 -18.520  0.00  0.00    -0.055 C 
ATOM      7  C   UNL     1      34.143 -23.138 -18.551  0.00  0.00    +0.069 C 
ATOM      8  C   UNL     1      36.127 -22.023 -17.600  0.00  0.00    +0.069 C 
ATOM      9  C   UNL     1      34.637 -23.339 -16.123  0.00  0.00    +0.140 A 
ATOM     10  C   UNL     1      33.326 -23.262 -15.538  0.00  0.00    +0.040 A 
ATOM     11  C   UNL     1      33.318 -23.927 -14.310  0.00  0.00    +0.050 A 
ATOM     12  C   UNL     1      32.129 -22.657 -15.983  0.00  0.00    +0.003 C 
ATOM     13  C   UNL     1      32.167 -24.012 -13.513  0.00  0.00    +0.008 C 
ATOM     14  C   UNL     1      30.977 -22.736 -15.196  0.00  0.00    +0.000 C 
ATOM     15  C   UNL     1      30.997 -23.406 -13.977  0.00  0.00    +0.001 C 
ATOM     16  H   UNL     1      35.830 -21.936 -20.232  0.00  0.00    -0.080 HD
ENDROOT
BRANCH   2  17
ATOM     17  C   UNL     1      35.014 -20.130 -20.663  0.00  0.00    -0.077 C 
BRANCH  17  18
ATOM     18  C   UNL     1      36.289 -19.295 -20.763  0.00  0.00    -0.021 C 
BRANCH  18  19
ATOM     19  C   UNL     1      36.398 -18.615 -22.132  0.00  0.00    +0.020 C 
BRANCH  19  20
ATOM     20  C   UNL     1      35.047 -18.146 -22.663  0.00  0.00    +0.101 C 
BRANCH  20  23
ATOM     21  O   UNL     1      34.755 -16.323 -20.351  0.00  0.00    -0.274 OA
ATOM     22  O   UNL     1      34.980 -16.337 -24.970  0.00  0.00    -0.274 OA
ATOM     23  N   UNL     1      34.922 -16.702 -22.657  0.00  0.00    -0.230 N 
ATOM     24  C   UNL     1      34.945 -14.495 -21.946  0.00  0.00    +0.086 C 
ATOM     25  C   UNL     1      34.505 -14.537 -23.414  0.00  0.00    +0.086 C 
ATOM     26  C   UNL     1      34.215 -13.500 -21.053  0.00  0.00    +0.010 C 
ATOM     27  C   UNL     1      33.003 -14.328 -23.637  0.00  0.00    +0.010 C 
ATOM     28  C   UNL     1      32.716 -13.440 -21.314  0.00  0.00    +0.001 C 
ATOM     29  C   UNL     1      32.431 -13.201 -22.791  0.00  0.00    +0.001 C 
ATOM     30  C   UNL     1      34.836 -15.940 -21.508  0.00  0.00    +0.231 C 
ATOM     31  C   UNL     1      34.857 -15.952 -23.816  0.00  0.00    +0.231 C 
ENDBRANCH  20  23
ENDBRANCH  19  20
ENDBRANCH  18  19
ENDBRANCH  17  18
ENDBRANCH   2  17
TORSDOF 5
ENDMDL
MODEL 6
REMARK VINA RESULT:     -10.6      2.201      4.273
REMARK  Name = 115368
REMARK  5 active torsions:
REMARK  status: ('A' for Active; 'I' for Inactive)
REMARK    1  A    between atoms: N_2  and  C_17
REMARK    2  A    between atoms: C_17  and  C_18
REMARK    3  A    between atoms: C_18  and  C_19
REMARK    4  A    between atoms: C_19  and  C_20
REMARK    5  A    between atoms: C_20  and  N_23
REMARK                            x       y       z     vdW  Elec       q    Type
REMARK                         _______ _______ _______ _____ _____    ______ ____
ROOT
ATOM      1  S   UNL     1      33.875 -14.753 -25.571  0.00  0.00    +0.014 S 
ATOM      2  N   UNL     1      35.374 -19.649 -21.376  0.00  0.00    +0.389 N 
ATOM      3  N   UNL     1      34.817 -17.397 -23.045  0.00  0.00    -0.297 N 
ATOM      4  N   UNL     1      34.396 -16.251 -25.095  0.00  0.00    -0.194 NA
ATOM      5  C   UNL     1      35.706 -18.290 -20.933  0.00  0.00    -0.055 C 
ATOM      6  C   UNL     1      34.178 -19.626 -22.229  0.00  0.00    -0.055 C 
ATOM      7  C   UNL     1      35.959 -17.362 -22.125  0.00  0.00    +0.069 C 
ATOM      8  C   UNL     1      34.410 -18.745 -23.458  0.00  0.00    +0.069 C 
ATOM      9  C   UNL     1      34.427 -16.287 -23.761  0.00  0.00    +0.140 A 
ATOM     10  C   UNL     1      34.028 -15.093 -23.067  0.00  0.00    +0.040 A 
ATOM     11  C   UNL     1      33.676 -14.106 -23.990  0.00  0.00    +0.050 A 
ATOM     12  C   UNL     1      33.943 -14.787 -21.690  0.00  0.00    +0.003 C 
ATOM     13  C   UNL     1      33.244 -12.831 -23.593  0.00  0.00    +0.008 C 
ATOM     14  C   UNL     1      33.514 -13.520 -21.285  0.00  0.00    +0.000 C 
ATOM     15  C   UNL     1      33.170 -12.556 -22.226  0.00  0.00    +0.001 C 
ATOM     16  H   UNL     1      36.155 -20.015 -21.920  0.00  0.00    -0.080 HD
ENDROOT
BRANCH   2  17
ATOM     17  C   UNL     1      35.168 -20.529 -20.226  0.00  0.00    -0.077 C 
BRANCH  17  18
ATOM     18  C   UNL     1      33.690 -20.562 -19.840  0.00  0.00    -0.021 C 
BRANCH  18  19
ATOM     19  C   UNL     1      33.432 -21.584 -18.728  0.00  0.00    +0.020 C 
BRANCH  19  20
ATOM     20  C   UNL     1      34.607 -22.534 -18.521  0.00  0.00    +0.101 C 
BRANCH  20  23
ATOM     21  O   UNL     1      37.150 -21.950 -17.127  0.00  0.00    -0.274 OA
ATOM     22  O   UNL     1      32.896 -23.607 -16.394  0.00  0.00    -0.274 OA
ATOM     23  N   UNL     1      34.934 -22.710 -17.120  0.00  0.00    -0.230 N 
ATOM     24  C   UNL     1      35.985 -22.501 -15.062  0.00  0.00    +0.086 C 
ATOM     25  C   UNL     1      34.825 -23.494 -14.927  0.00  0.00    +0.086 C 
ATOM     26  C   UNL     1      37.263 -22.853 -14.311  0.00  0.00    +0.010 C 
ATOM     27  C   UNL     1      35.246 -24.966 -14.862  0.00  0.00    +0.010 C 
ATOM     28  C   UNL     1      37.621 -24.331 -14.387  0.00  0.00    +0.001 C 
ATOM     29  C   UNL     1      36.446 -25.197 -13.955  0.00  0.00    +0.001 C 
ATOM     30  C   UNL     1      36.149 -22.360 -16.561  0.00  0.00    +0.231 C 
ATOM     31  C   UNL     1      34.057 -23.271 -16.211  0.00  0.00    +0.231 C 
ENDBRANCH  20  23
ENDBRANCH  19  20
ENDBRANCH  18  19
ENDBRANCH  17  18
ENDBRANCH   2  17
TORSDOF 5
ENDMDL
MODEL 7
REMARK VINA RESULT:     -10.6      3.338      5.777
REMARK  Name = 115368
REMARK  5 active torsions:
REMARK  status: ('A' for Active; 'I' for Inactive)
REMARK    1  A    between atoms: N_2  and  C_17
REMARK    2  A    between atoms: C_17  and  C_18
REMARK    3  A    between atoms: C_18  and  C_19
REMARK    4  A    between atoms: C_19  and  C_20
REMARK    5  A    between atoms: C_20  and  N_23
REMARK                            x       y       z     vdW  Elec       q    Type
REMARK                         _______ _______ _______ _____ _____    ______ ____
ROOT
ATOM      1  S   UNL     1      34.388 -15.892 -24.479  0.00  0.00    +0.014 S 
ATOM      2  N   UNL     1      35.973 -20.698 -20.212  0.00  0.00    +0.389 N 
ATOM      3  N   UNL     1      35.409 -18.487 -21.933  0.00  0.00    -0.297 N 
ATOM      4  N   UNL     1      34.829 -17.408 -23.981  0.00  0.00    -0.194 NA
ATOM      5  C   UNL     1      36.482 -19.357 -19.899  0.00  0.00    -0.055 C 
ATOM      6  C   UNL     1      34.682 -20.600 -20.908  0.00  0.00    -0.055 C 
ATOM      7  C   UNL     1      36.660 -18.520 -21.169  0.00  0.00    +0.069 C 
ATOM      8  C   UNL     1      34.830 -19.807 -22.208  0.00  0.00    +0.069 C 
ATOM      9  C   UNL     1      35.031 -17.381 -22.662  0.00  0.00    +0.140 A 
ATOM     10  C   UNL     1      34.837 -16.121 -21.997  0.00  0.00    +0.040 A 
ATOM     11  C   UNL     1      34.457 -15.151 -22.928  0.00  0.00    +0.050 A 
ATOM     12  C   UNL     1      34.961 -15.741 -20.643  0.00  0.00    +0.003 C 
ATOM     13  C   UNL     1      34.200 -13.822 -22.560  0.00  0.00    +0.008 C 
ATOM     14  C   UNL     1      34.705 -14.419 -20.266  0.00  0.00    +0.000 C 
ATOM     15  C   UNL     1      34.331 -13.473 -21.214  0.00  0.00    +0.001 C 
ATOM     16  H   UNL     1      36.639 -21.165 -20.827  0.00  0.00    -0.080 HD
ENDROOT
BRANCH   2  17
ATOM     17  C   UNL     1      35.840 -21.496 -18.993  0.00  0.00    -0.077 C 
BRANCH  17  18
ATOM     18  C   UNL     1      36.827 -21.013 -17.932  0.00  0.00    -0.021 C 
BRANCH  18  19
ATOM     19  C   UNL     1      37.035 -22.074 -16.847  0.00  0.00    +0.020 C 
BRANCH  19  20
ATOM     20  C   UNL     1      36.094 -21.892 -15.660  0.00  0.00    +0.101 C 
BRANCH  20  23
ATOM     21  O   UNL     1      37.631 -22.593 -13.231  0.00  0.00    -0.274 OA
ATOM     22  O   UNL     1      34.350 -24.216 -16.056  0.00  0.00    -0.274 OA
ATOM     23  N   UNL     1      36.001 -23.084 -14.841  0.00  0.00    -0.230 N 
ATOM     24  C   UNL     1      36.178 -24.536 -13.041  0.00  0.00    +0.086 C 
ATOM     25  C   UNL     1      35.512 -25.274 -14.208  0.00  0.00    +0.086 C 
ATOM     26  C   UNL     1      37.183 -25.338 -12.223  0.00  0.00    +0.010 C 
ATOM     27  C   UNL     1      36.424 -26.261 -14.944  0.00  0.00    +0.010 C 
ATOM     28  C   UNL     1      38.087 -26.221 -13.073  0.00  0.00    +0.001 C 
ATOM     29  C   UNL     1      37.265 -27.106 -13.999  0.00  0.00    +0.001 C 
ATOM     30  C   UNL     1      36.742 -23.290 -13.692  0.00  0.00    +0.231 C 
ATOM     31  C   UNL     1      35.169 -24.142 -15.151  0.00  0.00    +0.231 C 
ENDBRANCH  20  23
ENDBRANCH  19  20
ENDBRANCH  18  19
ENDBRANCH  17  18
ENDBRANCH   2  17
TORSDOF 5
ENDMDL
MODEL 8
REMARK VINA RESULT:     -10.2      4.760     11.423
REMARK  Name = 115368
REMARK  5 active torsions:
REMARK  status: ('A' for Active; 'I' for Inactive)
REMARK    1  A    between atoms: N_2  and  C_17
REMARK    2  A    between atoms: C_17  and  C_18
REMARK    3  A    between atoms: C_18  and  C_19
REMARK    4  A    between atoms: C_19  and  C_20
REMARK    5  A    between atoms: C_20  and  N_23
REMARK                            x       y       z     vdW  Elec       q    Type
REMARK                         _______ _______ _______ _____ _____    ______ ____
ROOT
ATOM      1  S   UNL     1      35.421 -24.644 -11.635  0.00  0.00    +0.014 S 
ATOM      2  N   UNL     1      34.582 -22.116 -17.695  0.00  0.00    +0.389 N 
ATOM      3  N   UNL     1      35.156 -23.156 -15.096  0.00  0.00    -0.297 N 
ATOM      4  N   UNL     1      34.679 -23.791 -12.846  0.00  0.00    -0.194 NA
ATOM      5  C   UNL     1      35.957 -22.129 -17.182  0.00  0.00    -0.055 C 
ATOM      6  C   UNL     1      33.832 -23.262 -17.164  0.00  0.00    -0.055 C 
ATOM      7  C   UNL     1      35.980 -22.077 -15.651  0.00  0.00    +0.069 C 
ATOM      8  C   UNL     1      33.793 -23.220 -15.636  0.00  0.00    +0.069 C 
ATOM      9  C   UNL     1      35.480 -23.784 -13.913  0.00  0.00    +0.140 A 
ATOM     10  C   UNL     1      36.737 -24.473 -13.792  0.00  0.00    +0.040 A 
ATOM     11  C   UNL     1      36.848 -25.029 -12.516  0.00  0.00    +0.050 A 
ATOM     12  C   UNL     1      37.800 -24.661 -14.703  0.00  0.00    +0.003 C 
ATOM     13  C   UNL     1      37.975 -25.762 -12.116  0.00  0.00    +0.008 C 
ATOM     14  C   UNL     1      38.927 -25.390 -14.314  0.00  0.00    +0.000 C 
ATOM     15  C   UNL     1      39.012 -25.932 -13.036  0.00  0.00    +0.001 C 
ATOM     16  H   UNL     1      34.127 -21.257 -17.386  0.00  0.00    -0.080 HD
ENDROOT
BRANCH   2  17
ATOM     17  C   UNL     1      34.579 -22.132 -19.158  0.00  0.00    -0.077 C 
BRANCH  17  18
ATOM     18  C   UNL     1      35.916 -21.628 -19.698  0.00  0.00    -0.021 C 
BRANCH  18  19
ATOM     19  C   UNL     1      35.846 -20.137 -20.043  0.00  0.00    +0.020 C 
BRANCH  19  20
ATOM     20  C   UNL     1      34.635 -19.791 -20.904  0.00  0.00    +0.101 C 
BRANCH  20  23
ATOM     21  O   UNL     1      34.974 -16.879 -20.505  0.00  0.00    -0.274 OA
ATOM     22  O   UNL     1      34.995 -20.129 -23.795  0.00  0.00    -0.274 OA
ATOM     23  N   UNL     1      34.930 -18.770 -21.889  0.00  0.00    -0.230 N 
ATOM     24  C   UNL     1      35.616 -16.773 -22.850  0.00  0.00    +0.086 C 
ATOM     25  C   UNL     1      35.121 -17.712 -23.957  0.00  0.00    +0.086 C 
ATOM     26  C   UNL     1      35.239 -15.304 -22.996  0.00  0.00    +0.010 C 
ATOM     27  C   UNL     1      33.735 -17.369 -24.514  0.00  0.00    +0.010 C 
ATOM     28  C   UNL     1      33.811 -15.090 -23.479  0.00  0.00    +0.001 C 
ATOM     29  C   UNL     1      33.547 -15.879 -24.755  0.00  0.00    +0.001 C 
ATOM     30  C   UNL     1      35.114 -17.434 -21.584  0.00  0.00    +0.231 C 
ATOM     31  C   UNL     1      35.036 -19.040 -23.240  0.00  0.00    +0.231 C 
ENDBRANCH  20  23
ENDBRANCH  19  20
ENDBRANCH  18  19
ENDBRANCH  17  18
ENDBRANCH   2  17
TORSDOF 5
ENDMDL
MODEL 9
REMARK VINA RESULT:     -10.2      4.317     10.434
REMARK  Name = 115368
REMARK  5 active torsions:
REMARK  status: ('A' for Active; 'I' for Inactive)
REMARK    1  A    between atoms: N_2  and  C_17
REMARK    2  A    between atoms: C_17  and  C_18
REMARK    3  A    between atoms: C_18  and  C_19
REMARK    4  A    between atoms: C_19  and  C_20
REMARK    5  A    between atoms: C_20  and  N_23
REMARK                            x       y       z     vdW  Elec       q    Type
REMARK                         _______ _______ _______ _____ _____    ______ ____
ROOT
ATOM      1  S   UNL     1      32.679 -24.886 -13.403  0.00  0.00    +0.014 S 
ATOM      2  N   UNL     1      35.917 -21.934 -18.364  0.00  0.00    +0.389 N 
ATOM      3  N   UNL     1      34.352 -23.237 -16.359  0.00  0.00    -0.297 N 
ATOM      4  N   UNL     1      33.965 -24.503 -14.374  0.00  0.00    -0.194 NA
ATOM      5  C   UNL     1      34.544 -22.365 -18.651  0.00  0.00    -0.055 C 
ATOM      6  C   UNL     1      36.045 -21.556 -16.950  0.00  0.00    -0.055 C 
ATOM      7  C   UNL     1      34.141 -23.555 -17.775  0.00  0.00    +0.069 C 
ATOM      8  C   UNL     1      35.695 -22.736 -16.043  0.00  0.00    +0.069 C 
ATOM      9  C   UNL     1      33.529 -23.732 -15.372  0.00  0.00    +0.140 A 
ATOM     10  C   UNL     1      32.125 -23.420 -15.391  0.00  0.00    +0.040 A 
ATOM     11  C   UNL     1      31.493 -24.023 -14.302  0.00  0.00    +0.050 A 
ATOM     12  C   UNL     1      31.343 -22.649 -16.280  0.00  0.00    +0.003 C 
ATOM     13  C   UNL     1      30.117 -23.888 -14.067  0.00  0.00    +0.008 C 
ATOM     14  C   UNL     1      29.971 -22.508 -16.054  0.00  0.00    +0.000 C 
ATOM     15  C   UNL     1      29.367 -23.121 -14.962  0.00  0.00    +0.001 C 
ATOM     16  H   UNL     1      36.549 -22.712 -18.552  0.00  0.00    -0.080 HD
ENDROOT
BRANCH   2  17
ATOM     17  C   UNL     1      36.298 -20.818 -19.231  0.00  0.00    -0.077 C 
BRANCH  17  18
ATOM     18  C   UNL     1      35.145 -20.454 -20.165  0.00  0.00    -0.021 C 
BRANCH  18  19
ATOM     19  C   UNL     1      35.623 -19.551 -21.307  0.00  0.00    +0.020 C 
BRANCH  19  20
ATOM     20  C   UNL     1      34.482 -19.094 -22.210  0.00  0.00    +0.101 C 
BRANCH  20  23
ATOM     21  O   UNL     1      34.751 -16.567 -20.695  0.00  0.00    -0.274 OA
ATOM     22  O   UNL     1      34.673 -18.234 -25.007  0.00  0.00    -0.274 OA
ATOM     23  N   UNL     1      34.683 -17.751 -22.716  0.00  0.00    -0.230 N 
ATOM     24  C   UNL     1      35.242 -15.502 -22.828  0.00  0.00    +0.086 C 
ATOM     25  C   UNL     1      34.710 -15.949 -24.195  0.00  0.00    +0.086 C 
ATOM     26  C   UNL     1      34.809 -14.120 -22.357  0.00  0.00    +0.010 C 
ATOM     27  C   UNL     1      33.282 -15.490 -24.507  0.00  0.00    +0.010 C 
ATOM     28  C   UNL     1      33.347 -13.810 -22.651  0.00  0.00    +0.001 C 
ATOM     29  C   UNL     1      33.030 -14.039 -24.123  0.00  0.00    +0.001 C 
ATOM     30  C   UNL     1      34.841 -16.639 -21.910  0.00  0.00    +0.231 C 
ATOM     31  C   UNL     1      34.713 -17.456 -24.066  0.00  0.00    +0.231 C 
ENDBRANCH  20  23
ENDBRANCH  19  20
ENDBRANCH  18  19
ENDBRANCH  17  18
ENDBRANCH   2  17
TORSDOF 5
ENDMDL
