MODEL 1
REMARK VINA RESULT:     -11.7      0.000      0.000
REMARK  Name = 6420159
REMARK  9 active torsions:
REMARK  status: ('A' for Active; 'I' for Inactive)
REMARK    1  A    between atoms: C_1  and  N_3
REMARK    2  A    between atoms: C_1  and  C_15
REMARK    3  A    between atoms: C_1  and  C_29
REMARK    4  A    between atoms: N_14  and  C_17
REMARK    5  A    between atoms: C_17  and  C_18
REMARK    6  A    between atoms: C_18  and  N_19
REMARK    7  A    between atoms: N_19  and  C_21
REMARK    8  A    between atoms: C_26  and  O_27
REMARK    9  A    between atoms: C_29  and  C_30
REMARK                            x       y       z     vdW  Elec       q    Type
REMARK                         _______ _______ _______ _____ _____    ______ ____
ROOT
ATOM      1  C   UNL     1      33.504 -23.369 -16.738  0.00  0.00    +0.151 C 
ENDROOT
BRANCH   1   3
ATOM      2  O   UNL     1      36.028 -22.916 -14.117  0.00  0.00    -0.414 OA
ATOM      3  N   UNL     1      34.411 -22.831 -15.746  0.00  0.00    -0.271 N 
ATOM      4  N   UNL     1      35.401 -24.900 -15.020  0.00  0.00    -0.356 NA
ATOM      5  C   UNL     1      35.264 -23.611 -14.986  0.00  0.00    +0.345 C 
ATOM      6  C   UNL     1      36.755 -23.902 -13.513  0.00  0.00    +0.175 C 
ATOM      7  C   UNL     1      36.369 -25.114 -14.068  0.00  0.00    +0.152 C 
ATOM      8  C   UNL     1      37.715 -23.757 -12.520  0.00  0.00    +0.040 C 
ATOM      9  C   UNL     1      36.976 -26.292 -13.611  0.00  0.00    +0.088 C 
ATOM     10  C   UNL     1      38.312 -24.942 -12.075  0.00  0.00    -0.001 C 
ATOM     11  C   UNL     1      37.951 -26.185 -12.609  0.00  0.00    -0.018 C 
ATOM     12  H   UNL     1      34.421 -21.857 -15.604  0.00  0.00    +0.153 HD
ENDBRANCH   1   3
BRANCH   1  15
ATOM     13  O   UNL     1      33.812 -23.753 -19.110  0.00  0.00    -0.273 OA
ATOM     14  N   UNL     1      34.883 -21.947 -18.126  0.00  0.00    -0.301 N 
ATOM     15  C   UNL     1      34.062 -23.065 -18.122  0.00  0.00    +0.240 C 
ATOM     16  H   UNL     1      35.026 -21.457 -17.285  0.00  0.00    +0.150 HD
BRANCH  14  17
ATOM     17  C   UNL     1      35.533 -21.478 -19.326  0.00  0.00    +0.111 C 
BRANCH  17  18
ATOM     18  C   UNL     1      34.695 -20.450 -20.070  0.00  0.00    +0.109 C 
BRANCH  18  19
ATOM     19  N   UNL     1      35.529 -19.379 -20.561  0.00  0.00    -0.331 N 
ATOM     20  H   UNL     1      36.347 -19.159 -20.058  0.00  0.00    +0.147 HD
BRANCH  19  21
ATOM     21  C   UNL     1      35.245 -18.642 -21.699  0.00  0.00    +0.045 C 
ATOM     22  C   UNL     1      35.481 -17.255 -21.739  0.00  0.00    +0.017 C 
ATOM     23  C   UNL     1      34.712 -19.259 -22.845  0.00  0.00    +0.017 C 
ATOM     24  C   UNL     1      35.193 -16.512 -22.884  0.00  0.00    +0.038 C 
ATOM     25  C   UNL     1      34.424 -18.517 -23.991  0.00  0.00    +0.038 C 
ATOM     26  C   UNL     1      34.665 -17.143 -24.010  0.00  0.00    +0.139 C 
BRANCH  26  27
ATOM     27  O   UNL     1      34.385 -16.420 -25.128  0.00  0.00    -0.471 OA
ATOM     28  C   UNL     1      33.504 -15.308 -24.980  0.00  0.00    +0.252 C 
ENDBRANCH  26  27
ENDBRANCH  19  21
ENDBRANCH  18  19
ENDBRANCH  17  18
ENDBRANCH  14  17
ENDBRANCH   1  15
BRANCH   1  29
ATOM     29  C   UNL     1      32.116 -22.745 -16.584  0.00  0.00    +0.029 C 
BRANCH  29  30
ATOM     30  C   UNL     1      31.072 -23.753 -16.108  0.00  0.00    +0.002 C 
ATOM     31  C   UNL     1      29.680 -23.110 -16.059  0.00  0.00    +0.000 C 
ATOM     32  C   UNL     1      31.456 -24.327 -14.737  0.00  0.00    +0.000 C 
ATOM     33  C   UNL     1      28.626 -24.084 -15.536  0.00  0.00    +0.000 C 
ATOM     34  C   UNL     1      30.401 -25.298 -14.216  0.00  0.00    +0.000 C 
ATOM     35  C   UNL     1      29.016 -24.658 -14.177  0.00  0.00    +0.000 C 
ENDBRANCH  29  30
ENDBRANCH   1  29
TORSDOF 9
ENDMDL
MODEL 2
REMARK VINA RESULT:     -10.9      1.320      5.018
REMARK  Name = 6420159
REMARK  9 active torsions:
REMARK  status: ('A' for Active; 'I' for Inactive)
REMARK    1  A    between atoms: C_1  and  N_3
REMARK    2  A    between atoms: C_1  and  C_15
REMARK    3  A    between atoms: C_1  and  C_29
REMARK    4  A    between atoms: N_14  and  C_17
REMARK    5  A    between atoms: C_17  and  C_18
REMARK    6  A    between atoms: C_18  and  N_19
REMARK    7  A    between atoms: N_19  and  C_21
REMARK    8  A    between atoms: C_26  and  O_27
REMARK    9  A    between atoms: C_29  and  C_30
REMARK                            x       y       z     vdW  Elec       q    Type
REMARK                         _______ _______ _______ _____ _____    ______ ____
ROOT
ATOM      1  C   UNL     1      35.585 -22.677 -15.640  0.00  0.00    +0.151 C 
ENDROOT
BRANCH   1   3
ATOM      2  O   UNL     1      32.060 -23.486 -16.242  0.00  0.00    -0.414 OA
ATOM      3  N   UNL     1      34.267 -22.852 -16.214  0.00  0.00    -0.271 N 
ATOM      4  N   UNL     1      33.190 -23.860 -14.313  0.00  0.00    -0.356 NA
ATOM      5  C   UNL     1      33.203 -23.412 -15.529  0.00  0.00    +0.345 C 
ATOM      6  C   UNL     1      31.197 -24.061 -15.354  0.00  0.00    +0.175 C 
ATOM      7  C   UNL     1      31.892 -24.289 -14.175  0.00  0.00    +0.152 C 
ATOM      8  C   UNL     1      29.860 -24.378 -15.557  0.00  0.00    +0.040 C 
ATOM      9  C   UNL     1      31.220 -24.878 -13.095  0.00  0.00    +0.088 C 
ATOM     10  C   UNL     1      29.203 -24.965 -14.470  0.00  0.00    -0.001 C 
ATOM     11  C   UNL     1      29.868 -25.211 -13.262  0.00  0.00    -0.018 C 
ATOM     12  H   UNL     1      34.121 -22.557 -17.141  0.00  0.00    +0.153 HD
ENDBRANCH   1   3
BRANCH   1  15
ATOM     13  O   UNL     1      37.478 -21.317 -16.298  0.00  0.00    -0.273 OA
ATOM     14  N   UNL     1      35.915 -21.902 -17.907  0.00  0.00    -0.301 N 
ATOM     15  C   UNL     1      36.443 -21.894 -16.625  0.00  0.00    +0.240 C 
ATOM     16  H   UNL     1      35.079 -22.392 -18.075  0.00  0.00    +0.150 HD
BRANCH  14  17
ATOM     17  C   UNL     1      36.553 -21.214 -19.003  0.00  0.00    +0.111 C 
BRANCH  17  18
ATOM     18  C   UNL     1      35.549 -20.697 -20.021  0.00  0.00    +0.109 C 
BRANCH  18  19
ATOM     19  N   UNL     1      35.807 -19.309 -20.324  0.00  0.00    -0.331 N 
ATOM     20  H   UNL     1      36.284 -18.768 -19.653  0.00  0.00    +0.147 HD
BRANCH  19  21
ATOM     21  C   UNL     1      35.420 -18.693 -21.504  0.00  0.00    +0.045 C 
ATOM     22  C   UNL     1      35.588 -17.308 -21.684  0.00  0.00    +0.017 C 
ATOM     23  C   UNL     1      34.847 -19.437 -22.552  0.00  0.00    +0.017 C 
ATOM     24  C   UNL     1      35.197 -16.688 -22.871  0.00  0.00    +0.038 C 
ATOM     25  C   UNL     1      34.456 -18.817 -23.739  0.00  0.00    +0.038 C 
ATOM     26  C   UNL     1      34.631 -17.443 -23.898  0.00  0.00    +0.139 C 
BRANCH  26  27
ATOM     27  O   UNL     1      34.251 -16.839 -25.057  0.00  0.00    -0.471 OA
ATOM     28  C   UNL     1      33.654 -15.547 -24.952  0.00  0.00    +0.252 C 
ENDBRANCH  26  27
ENDBRANCH  19  21
ENDBRANCH  18  19
ENDBRANCH  17  18
ENDBRANCH  14  17
ENDBRANCH   1  15
BRANCH   1  29
ATOM     29  C   UNL     1      36.225 -24.036 -15.351  0.00  0.00    +0.029 C 
BRANCH  29  30
ATOM     30  C   UNL     1      37.133 -24.005 -14.124  0.00  0.00    +0.002 C 
ATOM     31  C   UNL     1      37.444 -25.428 -13.643  0.00  0.00    +0.000 C 
ATOM     32  C   UNL     1      36.498 -23.176 -12.999  0.00  0.00    +0.000 C 
ATOM     33  C   UNL     1      38.309 -25.423 -12.385  0.00  0.00    +0.000 C 
ATOM     34  C   UNL     1      37.363 -23.174 -11.742  0.00  0.00    +0.000 C 
ATOM     35  C   UNL     1      37.677 -24.591 -11.272  0.00  0.00    +0.000 C 
ENDBRANCH  29  30
ENDBRANCH   1  29
TORSDOF 9
ENDMDL
MODEL 3
REMARK VINA RESULT:     -10.6      9.617     14.518
REMARK  Name = 6420159
REMARK  9 active torsions:
REMARK  status: ('A' for Active; 'I' for Inactive)
REMARK    1  A    between atoms: C_1  and  N_3
REMARK    2  A    between atoms: C_1  and  C_15
REMARK    3  A    between atoms: C_1  and  C_29
REMARK    4  A    between atoms: N_14  and  C_17
REMARK    5  A    between atoms: C_17  and  C_18
REMARK    6  A    between atoms: C_18  and  N_19
REMARK    7  A    between atoms: N_19  and  C_21
REMARK    8  A    between atoms: C_26  and  O_27
REMARK    9  A    between atoms: C_29  and  C_30
REMARK                            x       y       z     vdW  Elec       q    Type
REMARK                         _______ _______ _______ _____ _____    ______ ____
ROOT
ATOM      1  C   UNL     1      32.874 -10.639 -23.222  0.00  0.00    +0.151 C 
ENDROOT
BRANCH   1   3
ATOM      2  O   UNL     1      33.434 -13.967 -24.655  0.00  0.00    -0.414 OA
ATOM      3  N   UNL     1      32.930 -11.800 -24.085  0.00  0.00    -0.271 N 
ATOM      4  N   UNL     1      34.018 -13.314 -22.565  0.00  0.00    -0.356 NA
ATOM      5  C   UNL     1      33.480 -13.011 -23.704  0.00  0.00    +0.345 C 
ATOM      6  C   UNL     1      34.026 -15.029 -24.033  0.00  0.00    +0.175 C 
ATOM      7  C   UNL     1      34.382 -14.626 -22.754  0.00  0.00    +0.152 C 
ATOM      8  C   UNL     1      34.249 -16.298 -24.553  0.00  0.00    +0.040 C 
ATOM      9  C   UNL     1      35.014 -15.545 -21.905  0.00  0.00    +0.088 C 
ATOM     10  C   UNL     1      34.880 -17.203 -23.694  0.00  0.00    -0.001 C 
ATOM     11  C   UNL     1      35.256 -16.837 -22.395  0.00  0.00    -0.018 C 
ATOM     12  H   UNL     1      32.557 -11.723 -24.993  0.00  0.00    +0.153 HD
ENDBRANCH   1   3
BRANCH   1  15
ATOM     13  O   UNL     1      30.685 -11.065 -22.278  0.00  0.00    -0.273 OA
ATOM     14  N   UNL     1      32.513 -10.978 -20.855  0.00  0.00    -0.301 N 
ATOM     15  C   UNL     1      31.891 -10.920 -22.093  0.00  0.00    +0.240 C 
ATOM     16  H   UNL     1      33.488 -10.851 -20.804  0.00  0.00    +0.150 HD
BRANCH  14  17
ATOM     17  C   UNL     1      31.777 -11.222 -19.638  0.00  0.00    +0.111 C 
BRANCH  17  18
ATOM     18  C   UNL     1      31.497  -9.940 -18.868  0.00  0.00    +0.109 C 
BRANCH  18  19
ATOM     19  N   UNL     1      32.524  -8.960 -19.132  0.00  0.00    -0.331 N 
ATOM     20  H   UNL     1      33.427  -9.125 -18.775  0.00  0.00    +0.147 HD
BRANCH  19  21
ATOM     21  C   UNL     1      32.311  -7.799 -19.859  0.00  0.00    +0.045 C 
ATOM     22  C   UNL     1      33.223  -6.729 -19.794  0.00  0.00    +0.017 C 
ATOM     23  C   UNL     1      31.177  -7.658 -20.679  0.00  0.00    +0.017 C 
ATOM     24  C   UNL     1      33.009  -5.560 -20.524  0.00  0.00    +0.038 C 
ATOM     25  C   UNL     1      30.962  -6.489 -21.409  0.00  0.00    +0.038 C 
ATOM     26  C   UNL     1      31.878  -5.440 -21.331  0.00  0.00    +0.139 C 
BRANCH  26  27
ATOM     27  O   UNL     1      31.669  -4.301 -22.045  0.00  0.00    -0.471 OA
ATOM     28  C   UNL     1      30.589  -3.464 -21.633  0.00  0.00    +0.252 C 
ENDBRANCH  26  27
ENDBRANCH  19  21
ENDBRANCH  18  19
ENDBRANCH  17  18
ENDBRANCH  14  17
ENDBRANCH   1  15
BRANCH   1  29
ATOM     29  C   UNL     1      32.427  -9.409 -24.013  0.00  0.00    +0.029 C 
BRANCH  29  30
ATOM     30  C   UNL     1      33.203  -8.151 -23.625  0.00  0.00    +0.002 C 
ATOM     31  C   UNL     1      33.060  -7.071 -24.705  0.00  0.00    +0.000 C 
ATOM     32  C   UNL     1      34.681  -8.480 -23.375  0.00  0.00    +0.000 C 
ATOM     33  C   UNL     1      33.870  -5.822 -24.364  0.00  0.00    +0.000 C 
ATOM     34  C   UNL     1      35.488  -7.230 -23.037  0.00  0.00    +0.000 C 
ATOM     35  C   UNL     1      35.336  -6.155 -24.108  0.00  0.00    +0.000 C 
ENDBRANCH  29  30
ENDBRANCH   1  29
TORSDOF 9
ENDMDL
MODEL 4
REMARK VINA RESULT:     -10.0      2.379      5.197
REMARK  Name = 6420159
REMARK  9 active torsions:
REMARK  status: ('A' for Active; 'I' for Inactive)
REMARK    1  A    between atoms: C_1  and  N_3
REMARK    2  A    between atoms: C_1  and  C_15
REMARK    3  A    between atoms: C_1  and  C_29
REMARK    4  A    between atoms: N_14  and  C_17
REMARK    5  A    between atoms: C_17  and  C_18
REMARK    6  A    between atoms: C_18  and  N_19
REMARK    7  A    between atoms: N_19  and  C_21
REMARK    8  A    between atoms: C_26  and  O_27
REMARK    9  A    between atoms: C_29  and  C_30
REMARK                            x       y       z     vdW  Elec       q    Type
REMARK                         _______ _______ _______ _____ _____    ______ ____
ROOT
ATOM      1  C   UNL     1      33.540 -21.589 -18.166  0.00  0.00    +0.151 C 
ENDROOT
BRANCH   1   3
ATOM      2  O   UNL     1      30.747 -23.566 -16.851  0.00  0.00    -0.414 OA
ATOM      3  N   UNL     1      32.334 -22.372 -18.005  0.00  0.00    -0.271 N 
ATOM      4  N   UNL     1      32.452 -22.710 -15.626  0.00  0.00    -0.356 NA
ATOM      5  C   UNL     1      31.894 -22.858 -16.787  0.00  0.00    +0.345 C 
ATOM      6  C   UNL     1      30.545 -23.917 -15.547  0.00  0.00    +0.175 C 
ATOM      7  C   UNL     1      31.590 -23.392 -14.800  0.00  0.00    +0.152 C 
ATOM      8  C   UNL     1      29.497 -24.664 -15.024  0.00  0.00    +0.040 C 
ATOM      9  C   UNL     1      31.614 -23.615 -13.417  0.00  0.00    +0.088 C 
ATOM     10  C   UNL     1      29.535 -24.878 -13.642  0.00  0.00    -0.001 C 
ATOM     11  C   UNL     1      30.572 -24.365 -12.852  0.00  0.00    -0.018 C 
ATOM     12  H   UNL     1      31.798 -22.571 -18.806  0.00  0.00    +0.153 HD
ENDBRANCH   1   3
BRANCH   1  15
ATOM     13  O   UNL     1      32.466 -20.809 -20.192  0.00  0.00    -0.273 OA
ATOM     14  N   UNL     1      34.728 -20.395 -19.902  0.00  0.00    -0.301 N 
ATOM     15  C   UNL     1      33.492 -20.895 -19.521  0.00  0.00    +0.240 C 
ATOM     16  H   UNL     1      35.496 -20.511 -19.298  0.00  0.00    +0.150 HD
BRANCH  14  17
ATOM     17  C   UNL     1      34.924 -19.708 -21.156  0.00  0.00    +0.111 C 
BRANCH  17  18
ATOM     18  C   UNL     1      36.099 -18.744 -21.106  0.00  0.00    +0.109 C 
BRANCH  18  19
ATOM     19  N   UNL     1      35.996 -17.768 -22.165  0.00  0.00    -0.331 N 
ATOM     20  H   UNL     1      36.437 -17.966 -23.024  0.00  0.00    +0.147 HD
BRANCH  19  21
ATOM     21  C   UNL     1      35.313 -16.569 -22.043  0.00  0.00    +0.045 C 
ATOM     22  C   UNL     1      34.939 -15.831 -23.181  0.00  0.00    +0.017 C 
ATOM     23  C   UNL     1      34.976 -16.056 -20.777  0.00  0.00    +0.017 C 
ATOM     24  C   UNL     1      34.253 -14.623 -23.058  0.00  0.00    +0.038 C 
ATOM     25  C   UNL     1      34.289 -14.848 -20.653  0.00  0.00    +0.038 C 
ATOM     26  C   UNL     1      33.928 -14.131 -21.794  0.00  0.00    +0.139 C 
BRANCH  26  27
ATOM     27  O   UNL     1      33.257 -12.953 -21.673  0.00  0.00    -0.471 OA
ATOM     28  C   UNL     1      32.014 -12.982 -20.974  0.00  0.00    +0.252 C 
ENDBRANCH  26  27
ENDBRANCH  19  21
ENDBRANCH  18  19
ENDBRANCH  17  18
ENDBRANCH  14  17
ENDBRANCH   1  15
BRANCH   1  29
ATOM     29  C   UNL     1      34.775 -22.488 -18.081  0.00  0.00    +0.029 C 
BRANCH  29  30
ATOM     30  C   UNL     1      35.529 -22.321 -16.763  0.00  0.00    +0.002 C 
ATOM     31  C   UNL     1      36.998 -21.960 -17.021  0.00  0.00    +0.000 C 
ATOM     32  C   UNL     1      35.421 -23.593 -15.911  0.00  0.00    +0.000 C 
ATOM     33  C   UNL     1      37.786 -21.840 -15.719  0.00  0.00    +0.000 C 
ATOM     34  C   UNL     1      36.212 -23.471 -14.612  0.00  0.00    +0.000 C 
ATOM     35  C   UNL     1      37.670 -23.103 -14.872  0.00  0.00    +0.000 C 
ENDBRANCH  29  30
ENDBRANCH   1  29
TORSDOF 9
ENDMDL
MODEL 5
REMARK VINA RESULT:      -9.9     10.492     15.175
REMARK  Name = 6420159
REMARK  9 active torsions:
REMARK  status: ('A' for Active; 'I' for Inactive)
REMARK    1  A    between atoms: C_1  and  N_3
REMARK    2  A    between atoms: C_1  and  C_15
REMARK    3  A    between atoms: C_1  and  C_29
REMARK    4  A    between atoms: N_14  and  C_17
REMARK    5  A    between atoms: C_17  and  C_18
REMARK    6  A    between atoms: C_18  and  N_19
REMARK    7  A    between atoms: N_19  and  C_21
REMARK    8  A    between atoms: C_26  and  O_27
REMARK    9  A    between atoms: C_29  and  C_30
REMARK                            x       y       z     vdW  Elec       q    Type
REMARK                         _______ _______ _______ _____ _____    ______ ____
ROOT
ATOM      1  C   UNL     1      31.985 -12.047 -22.333  0.00  0.00    +0.151 C 
ENDROOT
BRANCH   1   3
ATOM      2  O   UNL     1      31.958  -8.761 -23.958  0.00  0.00    -0.414 OA
ATOM      3  N   UNL     1      31.623 -10.846 -23.056  0.00  0.00    -0.271 N 
ATOM      4  N   UNL     1      33.718  -9.678 -22.861  0.00  0.00    -0.356 NA
ATOM      5  C   UNL     1      32.489  -9.786 -23.259  0.00  0.00    +0.345 C 
ATOM      6  C   UNL     1      32.996  -7.875 -24.013  0.00  0.00    +0.175 C 
ATOM      7  C   UNL     1      34.071  -8.439 -23.341  0.00  0.00    +0.152 C 
ATOM      8  C   UNL     1      33.011  -6.626 -24.621  0.00  0.00    +0.040 C 
ATOM      9  C   UNL     1      35.270  -7.719 -23.255  0.00  0.00    +0.088 C 
ATOM     10  C   UNL     1      34.215  -5.920 -24.527  0.00  0.00    -0.001 C 
ATOM     11  C   UNL     1      35.324  -6.454 -23.858  0.00  0.00    -0.018 C 
ATOM     12  H   UNL     1      30.712 -10.780 -23.422  0.00  0.00    +0.153 HD
ENDBRANCH   1   3
BRANCH   1  15
ATOM     13  O   UNL     1      32.324 -12.539 -19.985  0.00  0.00    -0.273 OA
ATOM     14  N   UNL     1      31.345 -10.520 -20.570  0.00  0.00    -0.301 N 
ATOM     15  C   UNL     1      31.919 -11.754 -20.840  0.00  0.00    +0.240 C 
ATOM     16  H   UNL     1      31.050  -9.957 -21.321  0.00  0.00    +0.150 HD
BRANCH  14  17
ATOM     17  C   UNL     1      31.169 -10.036 -19.222  0.00  0.00    +0.111 C 
BRANCH  17  18
ATOM     18  C   UNL     1      31.956  -8.761 -18.960  0.00  0.00    +0.109 C 
BRANCH  18  19
ATOM     19  N   UNL     1      32.448  -8.210 -20.200  0.00  0.00    -0.331 N 
ATOM     20  H   UNL     1      33.121  -8.724 -20.703  0.00  0.00    +0.147 HD
BRANCH  19  21
ATOM     21  C   UNL     1      32.029  -6.996 -20.723  0.00  0.00    +0.045 C 
ATOM     22  C   UNL     1      32.827  -5.843 -20.600  0.00  0.00    +0.017 C 
ATOM     23  C   UNL     1      30.795  -6.885 -21.389  0.00  0.00    +0.017 C 
ATOM     24  C   UNL     1      32.405  -4.622 -21.125  0.00  0.00    +0.038 C 
ATOM     25  C   UNL     1      30.373  -5.663 -21.914  0.00  0.00    +0.038 C 
ATOM     26  C   UNL     1      31.177  -4.532 -21.782  0.00  0.00    +0.139 C 
BRANCH  26  27
ATOM     27  O   UNL     1      30.765  -3.341 -22.296  0.00  0.00    -0.471 OA
ATOM     28  C   UNL     1      31.762  -2.340 -22.498  0.00  0.00    +0.252 C 
ENDBRANCH  26  27
ENDBRANCH  19  21
ENDBRANCH  18  19
ENDBRANCH  17  18
ENDBRANCH  14  17
ENDBRANCH   1  15
BRANCH   1  29
ATOM     29  C   UNL     1      33.396 -12.496 -22.718  0.00  0.00    +0.029 C 
BRANCH  29  30
ATOM     30  C   UNL     1      33.454 -13.972 -23.103  0.00  0.00    +0.002 C 
ATOM     31  C   UNL     1      34.730 -14.626 -22.555  0.00  0.00    +0.000 C 
ATOM     32  C   UNL     1      33.367 -14.139 -24.627  0.00  0.00    +0.000 C 
ATOM     33  C   UNL     1      34.837 -16.091 -22.973  0.00  0.00    +0.000 C 
ATOM     34  C   UNL     1      33.478 -15.604 -25.041  0.00  0.00    +0.000 C 
ATOM     35  C   UNL     1      34.742 -16.253 -24.486  0.00  0.00    +0.000 C 
ENDBRANCH  29  30
ENDBRANCH   1  29
TORSDOF 9
ENDMDL
MODEL 6
REMARK VINA RESULT:      -9.8     10.063     14.334
REMARK  Name = 6420159
REMARK  9 active torsions:
REMARK  status: ('A' for Active; 'I' for Inactive)
REMARK    1  A    between atoms: C_1  and  N_3
REMARK    2  A    between atoms: C_1  and  C_15
REMARK    3  A    between atoms: C_1  and  C_29
REMARK    4  A    between atoms: N_14  and  C_17
REMARK    5  A    between atoms: C_17  and  C_18
REMARK    6  A    between atoms: C_18  and  N_19
REMARK    7  A    between atoms: N_19  and  C_21
REMARK    8  A    between atoms: C_26  and  O_27
REMARK    9  A    between atoms: C_29  and  C_30
REMARK                            x       y       z     vdW  Elec       q    Type
REMARK                         _______ _______ _______ _____ _____    ______ ____
ROOT
ATOM      1  C   UNL     1      32.351 -10.779 -23.362  0.00  0.00    +0.151 C 
ENDROOT
BRANCH   1   3
ATOM      2  O   UNL     1      34.463 -13.624 -22.419  0.00  0.00    -0.414 OA
ATOM      3  N   UNL     1      33.297 -11.669 -22.721  0.00  0.00    -0.271 N 
ATOM      4  N   UNL     1      33.008 -13.578 -24.156  0.00  0.00    -0.356 NA
ATOM      5  C   UNL     1      33.547 -12.959 -23.153  0.00  0.00    +0.345 C 
ATOM      6  C   UNL     1      34.517 -14.837 -23.044  0.00  0.00    +0.175 C 
ATOM      7  C   UNL     1      33.625 -14.805 -24.107  0.00  0.00    +0.152 C 
ATOM      8  C   UNL     1      35.307 -15.928 -22.707  0.00  0.00    +0.040 C 
ATOM      9  C   UNL     1      33.493 -15.943 -24.914  0.00  0.00    +0.088 C 
ATOM     10  C   UNL     1      35.163 -17.056 -23.522  0.00  0.00    -0.001 C 
ATOM     11  C   UNL     1      34.275 -17.065 -24.605  0.00  0.00    -0.018 C 
ATOM     12  H   UNL     1      33.789 -11.337 -21.936  0.00  0.00    +0.153 HD
ENDBRANCH   1   3
BRANCH   1  15
ATOM     13  O   UNL     1      32.576  -8.668 -24.527  0.00  0.00    -0.273 OA
ATOM     14  N   UNL     1      34.399  -9.492 -23.356  0.00  0.00    -0.301 N 
ATOM     15  C   UNL     1      33.092  -9.530 -23.819  0.00  0.00    +0.240 C 
ATOM     16  H   UNL     1      34.726 -10.230 -22.792  0.00  0.00    +0.150 HD
BRANCH  14  17
ATOM     17  C   UNL     1      35.294  -8.406 -23.674  0.00  0.00    +0.111 C 
BRANCH  17  18
ATOM     18  C   UNL     1      34.973  -7.146 -22.885  0.00  0.00    +0.109 C 
BRANCH  18  19
ATOM     19  N   UNL     1      34.202  -6.230 -23.692  0.00  0.00    -0.331 N 
ATOM     20  H   UNL     1      34.441  -6.133 -24.642  0.00  0.00    +0.147 HD
BRANCH  19  21
ATOM     21  C   UNL     1      33.144  -5.479 -23.205  0.00  0.00    +0.045 C 
ATOM     22  C   UNL     1      32.703  -5.629 -21.877  0.00  0.00    +0.017 C 
ATOM     23  C   UNL     1      32.481  -4.547 -24.025  0.00  0.00    +0.017 C 
ATOM     24  C   UNL     1      31.637  -4.874 -21.387  0.00  0.00    +0.038 C 
ATOM     25  C   UNL     1      31.415  -3.792 -23.535  0.00  0.00    +0.038 C 
ATOM     26  C   UNL     1      30.993  -3.956 -22.216  0.00  0.00    +0.139 C 
BRANCH  26  27
ATOM     27  O   UNL     1      29.954  -3.218 -21.738  0.00  0.00    -0.471 OA
ATOM     28  C   UNL     1      29.975  -1.817 -22.004  0.00  0.00    +0.252 C 
ENDBRANCH  26  27
ENDBRANCH  19  21
ENDBRANCH  18  19
ENDBRANCH  17  18
ENDBRANCH  14  17
ENDBRANCH   1  15
BRANCH   1  29
ATOM     29  C   UNL     1      31.233 -10.401 -22.389  0.00  0.00    +0.029 C 
BRANCH  29  30
ATOM     30  C   UNL     1      31.759 -10.075 -20.993  0.00  0.00    +0.002 C 
ATOM     31  C   UNL     1      30.925 -10.788 -19.920  0.00  0.00    +0.000 C 
ATOM     32  C   UNL     1      31.770  -8.559 -20.757  0.00  0.00    +0.000 C 
ATOM     33  C   UNL     1      31.399 -10.436 -18.511  0.00  0.00    +0.000 C 
ATOM     34  C   UNL     1      32.241  -8.210 -19.348  0.00  0.00    +0.000 C 
ATOM     35  C   UNL     1      31.416  -8.928 -18.284  0.00  0.00    +0.000 C 
ENDBRANCH  29  30
ENDBRANCH   1  29
TORSDOF 9
ENDMDL
MODEL 7
REMARK VINA RESULT:      -9.8      6.429     13.569
REMARK  Name = 6420159
REMARK  9 active torsions:
REMARK  status: ('A' for Active; 'I' for Inactive)
REMARK    1  A    between atoms: C_1  and  N_3
REMARK    2  A    between atoms: C_1  and  C_15
REMARK    3  A    between atoms: C_1  and  C_29
REMARK    4  A    between atoms: N_14  and  C_17
REMARK    5  A    between atoms: C_17  and  C_18
REMARK    6  A    between atoms: C_18  and  N_19
REMARK    7  A    between atoms: N_19  and  C_21
REMARK    8  A    between atoms: C_26  and  O_27
REMARK    9  A    between atoms: C_29  and  C_30
REMARK                            x       y       z     vdW  Elec       q    Type
REMARK                         _______ _______ _______ _____ _____    ______ ____
ROOT
ATOM      1  C   UNL     1      33.038 -12.315 -22.332  0.00  0.00    +0.151 C 
ENDROOT
BRANCH   1   3
ATOM      2  O   UNL     1      32.317  -9.205 -24.134  0.00  0.00    -0.414 OA
ATOM      3  N   UNL     1      32.438 -11.267 -23.130  0.00  0.00    -0.271 N 
ATOM      4  N   UNL     1      34.194  -9.633 -22.937  0.00  0.00    -0.356 NA
ATOM      5  C   UNL     1      33.042 -10.044 -23.365  0.00  0.00    +0.345 C 
ATOM      6  C   UNL     1      33.122  -8.104 -24.207  0.00  0.00    +0.175 C 
ATOM      7  C   UNL     1      34.269  -8.370 -23.473  0.00  0.00    +0.152 C 
ATOM      8  C   UNL     1      32.872  -6.916 -24.882  0.00  0.00    +0.040 C 
ATOM      9  C   UNL     1      35.264  -7.386 -23.391  0.00  0.00    +0.088 C 
ATOM     10  C   UNL     1      33.874  -5.944 -24.791  0.00  0.00    -0.001 C 
ATOM     11  C   UNL     1      35.048  -6.172 -24.060  0.00  0.00    -0.018 C 
ATOM     12  H   UNL     1      31.553 -11.433 -23.527  0.00  0.00    +0.153 HD
ENDBRANCH   1   3
BRANCH   1  15
ATOM     13  O   UNL     1      34.876 -13.722 -23.047  0.00  0.00    -0.273 OA
ATOM     14  N   UNL     1      32.975 -13.615 -24.371  0.00  0.00    -0.301 N 
ATOM     15  C   UNL     1      33.745 -13.290 -23.264  0.00  0.00    +0.240 C 
ATOM     16  H   UNL     1      32.078 -13.220 -24.460  0.00  0.00    +0.150 HD
BRANCH  14  17
ATOM     17  C   UNL     1      33.447 -14.514 -25.396  0.00  0.00    +0.111 C 
BRANCH  17  18
ATOM     18  C   UNL     1      33.395 -15.968 -24.954  0.00  0.00    +0.109 C 
BRANCH  18  19
ATOM     19  N   UNL     1      34.694 -16.404 -24.499  0.00  0.00    -0.331 N 
ATOM     20  H   UNL     1      35.490 -16.051 -24.959  0.00  0.00    +0.147 HD
BRANCH  19  21
ATOM     21  C   UNL     1      34.885 -17.293 -23.453  0.00  0.00    +0.045 C 
ATOM     22  C   UNL     1      35.387 -16.852 -22.214  0.00  0.00    +0.017 C 
ATOM     23  C   UNL     1      34.584 -18.659 -23.602  0.00  0.00    +0.017 C 
ATOM     24  C   UNL     1      35.581 -17.746 -21.161  0.00  0.00    +0.038 C 
ATOM     25  C   UNL     1      34.778 -19.553 -22.549  0.00  0.00    +0.038 C 
ATOM     26  C   UNL     1      35.276 -19.097 -21.329  0.00  0.00    +0.139 C 
BRANCH  26  27
ATOM     27  O   UNL     1      35.464 -19.970 -20.302  0.00  0.00    -0.471 OA
ATOM     28  C   UNL     1      34.311 -20.651 -19.808  0.00  0.00    +0.252 C 
ENDBRANCH  26  27
ENDBRANCH  19  21
ENDBRANCH  18  19
ENDBRANCH  17  18
ENDBRANCH  14  17
ENDBRANCH   1  15
BRANCH   1  29
ATOM     29  C   UNL     1      31.966 -13.046 -21.522  0.00  0.00    +0.029 C 
BRANCH  29  30
ATOM     30  C   UNL     1      31.504 -12.245 -20.307  0.00  0.00    +0.002 C 
ATOM     31  C   UNL     1      30.559 -11.113 -20.732  0.00  0.00    +0.000 C 
ATOM     32  C   UNL     1      32.707 -11.690 -19.532  0.00  0.00    +0.000 C 
ATOM     33  C   UNL     1      30.124 -10.264 -19.539  0.00  0.00    +0.000 C 
ATOM     34  C   UNL     1      32.269 -10.840 -18.343  0.00  0.00    +0.000 C 
ATOM     35  C   UNL     1      31.323  -9.721 -18.768  0.00  0.00    +0.000 C 
ENDBRANCH  29  30
ENDBRANCH   1  29
TORSDOF 9
ENDMDL
MODEL 8
REMARK VINA RESULT:      -9.7      5.883     13.595
REMARK  Name = 6420159
REMARK  9 active torsions:
REMARK  status: ('A' for Active; 'I' for Inactive)
REMARK    1  A    between atoms: C_1  and  N_3
REMARK    2  A    between atoms: C_1  and  C_15
REMARK    3  A    between atoms: C_1  and  C_29
REMARK    4  A    between atoms: N_14  and  C_17
REMARK    5  A    between atoms: C_17  and  C_18
REMARK    6  A    between atoms: C_18  and  N_19
REMARK    7  A    between atoms: N_19  and  C_21
REMARK    8  A    between atoms: C_26  and  O_27
REMARK    9  A    between atoms: C_29  and  C_30
REMARK                            x       y       z     vdW  Elec       q    Type
REMARK                         _______ _______ _______ _____ _____    ______ ____
ROOT
ATOM      1  C   UNL     1      33.128 -12.490 -22.269  0.00  0.00    +0.151 C 
ENDROOT
BRANCH   1   3
ATOM      2  O   UNL     1      32.301  -9.602 -24.371  0.00  0.00    -0.414 OA
ATOM      3  N   UNL     1      32.677 -11.615 -23.331  0.00  0.00    -0.271 N 
ATOM      4  N   UNL     1      33.273  -9.512 -22.325  0.00  0.00    -0.356 NA
ATOM      5  C   UNL     1      32.780 -10.236 -23.280  0.00  0.00    +0.345 C 
ATOM      6  C   UNL     1      32.520  -8.289 -24.068  0.00  0.00    +0.175 C 
ATOM      7  C   UNL     1      33.115  -8.237 -22.815  0.00  0.00    +0.152 C 
ATOM      8  C   UNL     1      32.217  -7.179 -24.845  0.00  0.00    +0.040 C 
ATOM      9  C   UNL     1      33.444  -6.988 -22.272  0.00  0.00    +0.088 C 
ATOM     10  C   UNL     1      32.551  -5.939 -24.290  0.00  0.00    -0.001 C 
ATOM     11  C   UNL     1      33.153  -5.843 -23.029  0.00  0.00    -0.018 C 
ATOM     12  H   UNL     1      32.275 -12.023 -24.131  0.00  0.00    +0.153 HD
ENDBRANCH   1   3
BRANCH   1  15
ATOM     13  O   UNL     1      34.418 -13.543 -24.029  0.00  0.00    -0.273 OA
ATOM     14  N   UNL     1      34.201 -14.641 -21.998  0.00  0.00    -0.301 N 
ATOM     15  C   UNL     1      33.985 -13.592 -22.879  0.00  0.00    +0.240 C 
ATOM     16  H   UNL     1      33.814 -14.592 -21.094  0.00  0.00    +0.150 HD
BRANCH  14  17
ATOM     17  C   UNL     1      34.975 -15.802 -22.364  0.00  0.00    +0.111 C 
BRANCH  17  18
ATOM     18  C   UNL     1      35.224 -16.724 -21.181  0.00  0.00    +0.109 C 
BRANCH  18  19
ATOM     19  N   UNL     1      35.508 -18.064 -21.637  0.00  0.00    -0.331 N 
ATOM     20  H   UNL     1      35.806 -18.185 -22.568  0.00  0.00    +0.147 HD
BRANCH  19  21
ATOM     21  C   UNL     1      35.384 -19.191 -20.839  0.00  0.00    +0.045 C 
ATOM     22  C   UNL     1      36.516 -19.790 -20.256  0.00  0.00    +0.017 C 
ATOM     23  C   UNL     1      34.125 -19.767 -20.593  0.00  0.00    +0.017 C 
ATOM     24  C   UNL     1      36.392 -20.925 -19.455  0.00  0.00    +0.038 C 
ATOM     25  C   UNL     1      34.001 -20.902 -19.792  0.00  0.00    +0.038 C 
ATOM     26  C   UNL     1      35.134 -21.481 -19.223  0.00  0.00    +0.139 C 
BRANCH  26  27
ATOM     27  O   UNL     1      35.013 -22.588 -18.440  0.00  0.00    -0.471 OA
ATOM     28  C   UNL     1      33.715 -22.880 -17.924  0.00  0.00    +0.252 C 
ENDBRANCH  26  27
ENDBRANCH  19  21
ENDBRANCH  18  19
ENDBRANCH  17  18
ENDBRANCH  14  17
ENDBRANCH   1  15
BRANCH   1  29
ATOM     29  C   UNL     1      31.932 -13.100 -21.537  0.00  0.00    +0.029 C 
BRANCH  29  30
ATOM     30  C   UNL     1      31.501 -12.272 -20.329  0.00  0.00    +0.002 C 
ATOM     31  C   UNL     1      30.558 -11.140 -20.756  0.00  0.00    +0.000 C 
ATOM     32  C   UNL     1      32.725 -11.713 -19.590  0.00  0.00    +0.000 C 
ATOM     33  C   UNL     1      30.155 -10.264 -19.571  0.00  0.00    +0.000 C 
ATOM     34  C   UNL     1      32.319 -10.836 -18.409  0.00  0.00    +0.000 C 
ATOM     35  C   UNL     1      31.374  -9.718 -18.836  0.00  0.00    +0.000 C 
ENDBRANCH  29  30
ENDBRANCH   1  29
TORSDOF 9
ENDMDL
MODEL 9
REMARK VINA RESULT:      -9.6     10.851     15.468
REMARK  Name = 6420159
REMARK  9 active torsions:
REMARK  status: ('A' for Active; 'I' for Inactive)
REMARK    1  A    between atoms: C_1  and  N_3
REMARK    2  A    between atoms: C_1  and  C_15
REMARK    3  A    between atoms: C_1  and  C_29
REMARK    4  A    between atoms: N_14  and  C_17
REMARK    5  A    between atoms: C_17  and  C_18
REMARK    6  A    between atoms: C_18  and  N_19
REMARK    7  A    between atoms: N_19  and  C_21
REMARK    8  A    between atoms: C_26  and  O_27
REMARK    9  A    between atoms: C_29  and  C_30
REMARK                            x       y       z     vdW  Elec       q    Type
REMARK                         _______ _______ _______ _____ _____    ______ ____
ROOT
ATOM      1  C   UNL     1      32.661 -11.648 -22.632  0.00  0.00    +0.151 C 
ENDROOT
BRANCH   1   3
ATOM      2  O   UNL     1      34.715  -8.684 -23.288  0.00  0.00    -0.414 OA
ATOM      3  N   UNL     1      33.731 -10.677 -22.712  0.00  0.00    -0.271 N 
ATOM      4  N   UNL     1      32.549  -8.952 -23.903  0.00  0.00    -0.356 NA
ATOM      5  C   UNL     1      33.599  -9.442 -23.321  0.00  0.00    +0.345 C 
ATOM      6  C   UNL     1      34.319  -7.551 -23.941  0.00  0.00    +0.175 C 
ATOM      7  C   UNL     1      32.994  -7.719 -24.315  0.00  0.00    +0.152 C 
ATOM      8  C   UNL     1      35.077  -6.416 -24.201  0.00  0.00    +0.040 C 
ATOM      9  C   UNL     1      32.349  -6.685 -25.007  0.00  0.00    +0.088 C 
ATOM     10  C   UNL     1      34.419  -5.393 -24.892  0.00  0.00    -0.001 C 
ATOM     11  C   UNL     1      33.082  -5.523 -25.288  0.00  0.00    -0.018 C 
ATOM     12  H   UNL     1      34.600 -10.908 -22.311  0.00  0.00    +0.153 HD
ENDBRANCH   1   3
BRANCH   1  15
ATOM     13  O   UNL     1      30.403 -10.932 -22.126  0.00  0.00    -0.273 OA
ATOM     14  N   UNL     1      32.020 -10.765 -20.474  0.00  0.00    -0.301 N 
ATOM     15  C   UNL     1      31.560 -11.087 -21.742  0.00  0.00    +0.240 C 
ATOM     16  H   UNL     1      32.966 -10.925 -20.255  0.00  0.00    +0.150 HD
BRANCH  14  17
ATOM     17  C   UNL     1      31.155 -10.206 -19.463  0.00  0.00    +0.111 C 
BRANCH  17  18
ATOM     18  C   UNL     1      31.592  -8.813 -19.038  0.00  0.00    +0.109 C 
BRANCH  18  19
ATOM     19  N   UNL     1      32.378  -8.192 -20.078  0.00  0.00    -0.331 N 
ATOM     20  H   UNL     1      33.233  -8.611 -20.328  0.00  0.00    +0.147 HD
BRANCH  19  21
ATOM     21  C   UNL     1      31.997  -7.038 -20.745  0.00  0.00    +0.045 C 
ATOM     22  C   UNL     1      32.767  -5.864 -20.654  0.00  0.00    +0.017 C 
ATOM     23  C   UNL     1      30.830  -7.009 -21.530  0.00  0.00    +0.017 C 
ATOM     24  C   UNL     1      32.383  -4.702 -21.324  0.00  0.00    +0.038 C 
ATOM     25  C   UNL     1      30.446  -5.848 -22.200  0.00  0.00    +0.038 C 
ATOM     26  C   UNL     1      31.222  -4.694 -22.096  0.00  0.00    +0.139 C 
BRANCH  26  27
ATOM     27  O   UNL     1      30.848  -3.561 -22.752  0.00  0.00    -0.471 OA
ATOM     28  C   UNL     1      30.605  -2.401 -21.958  0.00  0.00    +0.252 C 
ENDBRANCH  26  27
ENDBRANCH  19  21
ENDBRANCH  18  19
ENDBRANCH  17  18
ENDBRANCH  14  17
ENDBRANCH   1  15
BRANCH   1  29
ATOM     29  C   UNL     1      33.180 -12.967 -22.056  0.00  0.00    +0.029 C 
BRANCH  29  30
ATOM     30  C   UNL     1      33.895 -13.820 -23.101  0.00  0.00    +0.002 C 
ATOM     31  C   UNL     1      32.951 -14.162 -24.261  0.00  0.00    +0.000 C 
ATOM     32  C   UNL     1      34.461 -15.097 -22.464  0.00  0.00    +0.000 C 
ATOM     33  C   UNL     1      33.629 -15.059 -25.294  0.00  0.00    +0.000 C 
ATOM     34  C   UNL     1      35.135 -15.993 -23.499  0.00  0.00    +0.000 C 
ATOM     35  C   UNL     1      34.197 -16.323 -24.656  0.00  0.00    +0.000 C 
ENDBRANCH  29  30
ENDBRANCH   1  29
TORSDOF 9
ENDMDL
