MODEL 1
REMARK VINA RESULT:     -11.3      0.000      0.000
REMARK  Name = 3055168
REMARK  6 active torsions:
REMARK  status: ('A' for Active; 'I' for Inactive)
REMARK    1  A    between atoms: C_1  and  C_21
REMARK    2  A    between atoms: C_4  and  O_7
REMARK    3  A    between atoms: O_7  and  C_8
REMARK    4  A    between atoms: C_8  and  C_12
REMARK    5  A    between atoms: C_17  and  O_19
REMARK    6  A    between atoms: C_21  and  C_26
REMARK                            x       y       z     vdW  Elec       q    Type
REMARK                         _______ _______ _______ _____ _____    ______ ____
ROOT
ATOM      1  C   UNL     1      34.229 -22.423 -18.038  0.00  0.00    -0.021 C 
ATOM      2  C   UNL     1      33.464 -21.714 -18.965  0.00  0.00    -0.001 C 
ATOM      3  C   UNL     1      35.596 -22.173 -17.925  0.00  0.00    -0.001 C 
ATOM      4  C   UNL     1      35.433 -20.510 -19.662  0.00  0.00    +0.139 C 
ATOM      5  C   UNL     1      34.068 -20.756 -19.780  0.00  0.00    +0.037 C 
ATOM      6  C   UNL     1      36.200 -21.214 -18.738  0.00  0.00    +0.037 C 
ENDROOT
BRANCH   4   7
ATOM      7  O   UNL     1      36.024 -19.569 -20.460  0.00  0.00    -0.466 OA
BRANCH   7   8
ATOM      8  C   UNL     1      35.469 -19.393 -21.761  0.00  0.00    +0.279 C 
BRANCH   8  12
ATOM      9  N   UNL     1      34.757 -17.439 -23.130  0.00  0.00    -0.274 N 
ATOM     10  N   UNL     1      35.260 -17.033 -21.004  0.00  0.00    -0.390 NA
ATOM     11  C   UNL     1      34.568 -16.091 -22.959  0.00  0.00    +0.153 C 
ATOM     12  C   UNL     1      35.171 -17.957 -21.935  0.00  0.00    +0.205 C 
ATOM     13  C   UNL     1      34.889 -15.863 -21.623  0.00  0.00    +0.133 C 
ATOM     14  C   UNL     1      34.157 -15.083 -23.831  0.00  0.00    +0.037 C 
ATOM     15  C   UNL     1      34.554 -18.175 -24.356  0.00  0.00    +0.115 C 
ATOM     16  C   UNL     1      34.800 -14.557 -21.111  0.00  0.00    +0.033 C 
ATOM     17  C   UNL     1      34.074 -13.790 -23.304  0.00  0.00    +0.137 C 
ATOM     18  C   UNL     1      34.389 -13.530 -21.968  0.00  0.00    +0.039 C 
BRANCH  17  19
ATOM     19  O   UNL     1      33.678 -12.764 -24.111  0.00  0.00    -0.472 OA
ATOM     20  C   UNL     1      34.035 -11.445 -23.702  0.00  0.00    +0.252 C 
ENDBRANCH  17  19
ENDBRANCH   8  12
ENDBRANCH   7   8
ENDBRANCH   4   7
BRANCH   1  21
ATOM     21  C   UNL     1      33.583 -23.448 -17.169  0.00  0.00    +0.047 C 
BRANCH  21  26
ATOM     22  S   UNL     1      32.220 -23.218 -14.781  0.00  0.00    -0.048 S 
ATOM     23  O   UNL     1      35.803 -24.497 -15.432  0.00  0.00    -0.274 OA
ATOM     24  O   UNL     1      32.054 -24.899 -12.765  0.00  0.00    -0.263 OA
ATOM     25  N   UNL     1      34.032 -24.832 -13.983  0.00  0.00    -0.246 N 
ATOM     26  C   UNL     1      33.799 -23.170 -15.683  0.00  0.00    +0.137 C 
ATOM     27  C   UNL     1      34.672 -24.226 -15.045  0.00  0.00    +0.239 C 
ATOM     28  C   UNL     1      32.752 -24.460 -13.667  0.00  0.00    +0.279 C 
ATOM     29  H   UNL     1      34.492 -25.525 -13.455  0.00  0.00    +0.158 HD
ENDBRANCH  21  26
ENDBRANCH   1  21
TORSDOF 6
ENDMDL
MODEL 2
REMARK VINA RESULT:     -11.2      2.863     10.856
REMARK  Name = 3055168
REMARK  6 active torsions:
REMARK  status: ('A' for Active; 'I' for Inactive)
REMARK    1  A    between atoms: C_1  and  C_21
REMARK    2  A    between atoms: C_4  and  O_7
REMARK    3  A    between atoms: O_7  and  C_8
REMARK    4  A    between atoms: C_8  and  C_12
REMARK    5  A    between atoms: C_17  and  O_19
REMARK    6  A    between atoms: C_21  and  C_26
REMARK                            x       y       z     vdW  Elec       q    Type
REMARK                         _______ _______ _______ _____ _____    ______ ____
ROOT
ATOM      1  C   UNL     1      35.353 -20.131 -20.231  0.00  0.00    -0.021 C 
ATOM      2  C   UNL     1      33.978 -20.368 -20.207  0.00  0.00    -0.001 C 
ATOM      3  C   UNL     1      36.216 -20.962 -19.517  0.00  0.00    -0.001 C 
ATOM      4  C   UNL     1      34.333 -22.261 -18.759  0.00  0.00    +0.139 C 
ATOM      5  C   UNL     1      33.468 -21.436 -19.469  0.00  0.00    +0.037 C 
ATOM      6  C   UNL     1      35.706 -22.030 -18.780  0.00  0.00    +0.037 C 
ENDROOT
BRANCH   4   7
ATOM      7  O   UNL     1      33.832 -23.310 -18.037  0.00  0.00    -0.466 OA
BRANCH   7   8
ATOM      8  C   UNL     1      33.219 -22.991 -16.789  0.00  0.00    +0.279 C 
BRANCH   8  12
ATOM      9  N   UNL     1      33.645 -23.621 -14.417  0.00  0.00    -0.274 N 
ATOM     10  N   UNL     1      35.289 -24.010 -15.861  0.00  0.00    -0.390 NA
ATOM     11  C   UNL     1      34.659 -24.174 -13.677  0.00  0.00    +0.153 C 
ATOM     12  C   UNL     1      34.070 -23.543 -15.714  0.00  0.00    +0.205 C 
ATOM     13  C   UNL     1      35.674 -24.408 -14.601  0.00  0.00    +0.133 C 
ATOM     14  C   UNL     1      34.771 -24.480 -12.321  0.00  0.00    +0.037 C 
ATOM     15  C   UNL     1      32.359 -23.198 -13.912  0.00  0.00    +0.115 C 
ATOM     16  C   UNL     1      36.880 -24.980 -14.163  0.00  0.00    +0.033 C 
ATOM     17  C   UNL     1      35.978 -25.050 -11.902  0.00  0.00    +0.137 C 
ATOM     18  C   UNL     1      37.015 -25.296 -12.805  0.00  0.00    +0.039 C 
BRANCH  17  19
ATOM     19  O   UNL     1      36.145 -25.369 -10.587  0.00  0.00    -0.472 OA
ATOM     20  C   UNL     1      35.734 -24.397  -9.628  0.00  0.00    +0.252 C 
ENDBRANCH  17  19
ENDBRANCH   8  12
ENDBRANCH   7   8
ENDBRANCH   4   7
BRANCH   1  21
ATOM     21  C   UNL     1      35.899 -18.989 -21.019  0.00  0.00    +0.047 C 
BRANCH  21  26
ATOM     22  S   UNL     1      34.996 -16.384 -21.125  0.00  0.00    -0.048 S 
ATOM     23  O   UNL     1      34.805 -19.144 -23.815  0.00  0.00    -0.274 OA
ATOM     24  O   UNL     1      35.196 -14.606 -23.052  0.00  0.00    -0.263 OA
ATOM     25  N   UNL     1      34.992 -16.846 -23.637  0.00  0.00    -0.246 N 
ATOM     26  C   UNL     1      34.799 -18.122 -21.626  0.00  0.00    +0.137 C 
ATOM     27  C   UNL     1      34.864 -18.126 -23.136  0.00  0.00    +0.239 C 
ATOM     28  C   UNL     1      35.077 -15.789 -22.770  0.00  0.00    +0.279 C 
ATOM     29  H   UNL     1      35.023 -16.694 -24.610  0.00  0.00    +0.158 HD
ENDBRANCH  21  26
ENDBRANCH   1  21
TORSDOF 6
ENDMDL
MODEL 3
REMARK VINA RESULT:     -11.0      2.039      2.677
REMARK  Name = 3055168
REMARK  6 active torsions:
REMARK  status: ('A' for Active; 'I' for Inactive)
REMARK    1  A    between atoms: C_1  and  C_21
REMARK    2  A    between atoms: C_4  and  O_7
REMARK    3  A    between atoms: O_7  and  C_8
REMARK    4  A    between atoms: C_8  and  C_12
REMARK    5  A    between atoms: C_17  and  O_19
REMARK    6  A    between atoms: C_21  and  C_26
REMARK                            x       y       z     vdW  Elec       q    Type
REMARK                         _______ _______ _______ _____ _____    ______ ____
ROOT
ATOM      1  C   UNL     1      34.865 -22.988 -16.471  0.00  0.00    -0.021 C 
ATOM      2  C   UNL     1      36.027 -22.332 -16.876  0.00  0.00    -0.001 C 
ATOM      3  C   UNL     1      33.719 -22.931 -17.265  0.00  0.00    -0.001 C 
ATOM      4  C   UNL     1      34.898 -21.566 -18.863  0.00  0.00    +0.139 C 
ATOM      5  C   UNL     1      36.044 -21.619 -18.076  0.00  0.00    +0.037 C 
ATOM      6  C   UNL     1      33.736 -22.219 -18.464  0.00  0.00    +0.037 C 
ENDROOT
BRANCH   4   7
ATOM      7  O   UNL     1      34.916 -20.868 -20.040  0.00  0.00    -0.466 OA
BRANCH   7   8
ATOM      8  C   UNL     1      36.089 -20.105 -20.314  0.00  0.00    +0.279 C 
BRANCH   8  12
ATOM      9  N   UNL     1      35.351 -19.047 -22.444  0.00  0.00    -0.274 N 
ATOM     10  N   UNL     1      35.609 -17.695 -20.699  0.00  0.00    -0.390 NA
ATOM     11  C   UNL     1      35.032 -17.794 -22.901  0.00  0.00    +0.153 C 
ATOM     12  C   UNL     1      35.688 -18.936 -21.124  0.00  0.00    +0.205 C 
ATOM     13  C   UNL     1      35.201 -16.968 -21.793  0.00  0.00    +0.133 C 
ATOM     14  C   UNL     1      34.624 -17.326 -24.150  0.00  0.00    +0.037 C 
ATOM     15  C   UNL     1      35.330 -20.265 -23.222  0.00  0.00    +0.115 C 
ATOM     16  C   UNL     1      34.952 -15.590 -21.921  0.00  0.00    +0.033 C 
ATOM     17  C   UNL     1      34.380 -15.953 -24.260  0.00  0.00    +0.137 C 
ATOM     18  C   UNL     1      34.541 -15.099 -23.166  0.00  0.00    +0.039 C 
BRANCH  17  19
ATOM     19  O   UNL     1      33.980 -15.439 -25.458  0.00  0.00    -0.472 OA
ATOM     20  C   UNL     1      33.103 -14.316 -25.419  0.00  0.00    +0.252 C 
ENDBRANCH  17  19
ENDBRANCH   8  12
ENDBRANCH   7   8
ENDBRANCH   4   7
BRANCH   1  21
ATOM     21  C   UNL     1      34.846 -23.749 -15.189  0.00  0.00    +0.047 C 
BRANCH  21  26
ATOM     22  S   UNL     1      36.678 -23.486 -13.142  0.00  0.00    -0.048 S 
ATOM     23  O   UNL     1      36.032 -26.498 -15.468  0.00  0.00    -0.274 OA
ATOM     24  O   UNL     1      37.333 -25.177 -11.238  0.00  0.00    -0.263 OA
ATOM     25  N   UNL     1      36.719 -26.035 -13.309  0.00  0.00    -0.246 N 
ATOM     26  C   UNL     1      36.241 -24.197 -14.759  0.00  0.00    +0.137 C 
ATOM     27  C   UNL     1      36.308 -25.697 -14.582  0.00  0.00    +0.239 C 
ATOM     28  C   UNL     1      36.968 -25.044 -12.396  0.00  0.00    +0.279 C 
ATOM     29  H   UNL     1      36.831 -26.981 -13.057  0.00  0.00    +0.158 HD
ENDBRANCH  21  26
ENDBRANCH   1  21
TORSDOF 6
ENDMDL
MODEL 4
REMARK VINA RESULT:     -10.9      3.675      7.169
REMARK  Name = 3055168
REMARK  6 active torsions:
REMARK  status: ('A' for Active; 'I' for Inactive)
REMARK    1  A    between atoms: C_1  and  C_21
REMARK    2  A    between atoms: C_4  and  O_7
REMARK    3  A    between atoms: O_7  and  C_8
REMARK    4  A    between atoms: C_8  and  C_12
REMARK    5  A    between atoms: C_17  and  O_19
REMARK    6  A    between atoms: C_21  and  C_26
REMARK                            x       y       z     vdW  Elec       q    Type
REMARK                         _______ _______ _______ _____ _____    ______ ____
ROOT
ATOM      1  C   UNL     1      35.023 -17.341 -22.973  0.00  0.00    -0.021 C 
ATOM      2  C   UNL     1      34.551 -17.144 -24.271  0.00  0.00    -0.001 C 
ATOM      3  C   UNL     1      35.084 -16.269 -22.083  0.00  0.00    -0.001 C 
ATOM      4  C   UNL     1      34.203 -14.809 -23.786  0.00  0.00    +0.139 C 
ATOM      5  C   UNL     1      34.141 -15.874 -24.679  0.00  0.00    +0.037 C 
ATOM      6  C   UNL     1      34.672 -15.000 -22.490  0.00  0.00    +0.037 C 
ENDROOT
BRANCH   4   7
ATOM      7  O   UNL     1      33.798 -13.564 -24.186  0.00  0.00    -0.466 OA
BRANCH   7   8
ATOM      8  C   UNL     1      32.770 -12.947 -23.412  0.00  0.00    +0.279 C 
BRANCH   8  12
ATOM      9  N   UNL     1      32.310 -10.643 -22.590  0.00  0.00    -0.274 N 
ATOM     10  N   UNL     1      34.218 -10.944 -23.689  0.00  0.00    -0.390 NA
ATOM     11  C   UNL     1      32.919  -9.414 -22.610  0.00  0.00    +0.153 C 
ATOM     12  C   UNL     1      33.124 -11.523 -23.247  0.00  0.00    +0.205 C 
ATOM     13  C   UNL     1      34.108  -9.629 -23.302  0.00  0.00    +0.133 C 
ATOM     14  C   UNL     1      32.543  -8.171 -22.100  0.00  0.00    +0.037 C 
ATOM     15  C   UNL     1      31.036 -10.948 -21.981  0.00  0.00    +0.115 C 
ATOM     16  C   UNL     1      34.987  -8.550 -23.506  0.00  0.00    +0.033 C 
ATOM     17  C   UNL     1      33.429  -7.110 -22.311  0.00  0.00    +0.137 C 
ATOM     18  C   UNL     1      34.629  -7.294 -23.001  0.00  0.00    +0.039 C 
BRANCH  17  19
ATOM     19  O   UNL     1      33.113  -5.872 -21.835  0.00  0.00    -0.472 OA
ATOM     20  C   UNL     1      31.890  -5.749 -21.112  0.00  0.00    +0.252 C 
ENDBRANCH  17  19
ENDBRANCH   8  12
ENDBRANCH   7   8
ENDBRANCH   4   7
BRANCH   1  21
ATOM     21  C   UNL     1      35.463 -18.697 -22.538  0.00  0.00    +0.047 C 
BRANCH  21  26
ATOM     22  S   UNL     1      34.193 -20.064 -20.506  0.00  0.00    -0.048 S 
ATOM     23  O   UNL     1      37.846 -18.838 -20.710  0.00  0.00    -0.274 OA
ATOM     24  O   UNL     1      35.023 -22.104 -19.068  0.00  0.00    -0.263 OA
ATOM     25  N   UNL     1      36.596 -20.553 -19.792  0.00  0.00    -0.246 N 
ATOM     26  C   UNL     1      35.450 -18.854 -21.020  0.00  0.00    +0.137 C 
ATOM     27  C   UNL     1      36.769 -19.386 -20.508  0.00  0.00    +0.239 C 
ATOM     28  C   UNL     1      35.340 -21.084 -19.663  0.00  0.00    +0.279 C 
ATOM     29  H   UNL     1      37.369 -21.001 -19.378  0.00  0.00    +0.158 HD
ENDBRANCH  21  26
ENDBRANCH   1  21
TORSDOF 6
ENDMDL
MODEL 5
REMARK VINA RESULT:     -10.8      1.061      2.037
REMARK  Name = 3055168
REMARK  6 active torsions:
REMARK  status: ('A' for Active; 'I' for Inactive)
REMARK    1  A    between atoms: C_1  and  C_21
REMARK    2  A    between atoms: C_4  and  O_7
REMARK    3  A    between atoms: O_7  and  C_8
REMARK    4  A    between atoms: C_8  and  C_12
REMARK    5  A    between atoms: C_17  and  O_19
REMARK    6  A    between atoms: C_21  and  C_26
REMARK                            x       y       z     vdW  Elec       q    Type
REMARK                         _______ _______ _______ _____ _____    ______ ____
ROOT
ATOM      1  C   UNL     1      34.127 -22.135 -18.758  0.00  0.00    -0.021 C 
ATOM      2  C   UNL     1      35.489 -21.992 -19.023  0.00  0.00    -0.001 C 
ATOM      3  C   UNL     1      33.204 -21.291 -19.375  0.00  0.00    -0.001 C 
ATOM      4  C   UNL     1      35.003 -20.165 -20.517  0.00  0.00    +0.139 C 
ATOM      5  C   UNL     1      35.928 -21.003 -19.904  0.00  0.00    +0.037 C 
ATOM      6  C   UNL     1      33.642 -20.304 -20.257  0.00  0.00    +0.037 C 
ENDROOT
BRANCH   4   7
ATOM      7  O   UNL     1      35.433 -19.197 -21.383  0.00  0.00    -0.466 OA
BRANCH   7   8
ATOM      8  C   UNL     1      35.663 -17.902 -20.832  0.00  0.00    +0.279 C 
BRANCH   8  12
ATOM      9  N   UNL     1      34.764 -15.649 -21.395  0.00  0.00    -0.274 N 
ATOM     10  N   UNL     1      34.967 -17.088 -23.076  0.00  0.00    -0.390 NA
ATOM     11  C   UNL     1      34.324 -14.978 -22.508  0.00  0.00    +0.153 C 
ATOM     12  C   UNL     1      35.137 -16.905 -21.786  0.00  0.00    +0.205 C 
ATOM     13  C   UNL     1      34.461 -15.898 -23.544  0.00  0.00    +0.133 C 
ATOM     14  C   UNL     1      33.832 -13.685 -22.690  0.00  0.00    +0.037 C 
ATOM     15  C   UNL     1      34.822 -15.119 -20.052  0.00  0.00    +0.115 C 
ATOM     16  C   UNL     1      34.090 -15.523 -24.847  0.00  0.00    +0.033 C 
ATOM     17  C   UNL     1      33.469 -13.328 -23.993  0.00  0.00    +0.137 C 
ATOM     18  C   UNL     1      33.595 -14.229 -25.053  0.00  0.00    +0.039 C 
BRANCH  17  19
ATOM     19  O   UNL     1      32.981 -12.078 -24.232  0.00  0.00    -0.472 OA
ATOM     20  C   UNL     1      32.853 -11.208 -23.109  0.00  0.00    +0.252 C 
ENDBRANCH  17  19
ENDBRANCH   8  12
ENDBRANCH   7   8
ENDBRANCH   4   7
BRANCH   1  21
ATOM     21  C   UNL     1      33.658 -23.191 -17.815  0.00  0.00    +0.047 C 
BRANCH  21  26
ATOM     22  S   UNL     1      32.097 -23.100 -15.542  0.00  0.00    -0.048 S 
ATOM     23  O   UNL     1      35.928 -23.444 -15.860  0.00  0.00    -0.274 OA
ATOM     24  O   UNL     1      32.209 -24.562 -13.359  0.00  0.00    -0.263 OA
ATOM     25  N   UNL     1      34.194 -24.093 -14.473  0.00  0.00    -0.246 N 
ATOM     26  C   UNL     1      33.677 -22.724 -16.362  0.00  0.00    +0.137 C 
ATOM     27  C   UNL     1      34.738 -23.445 -15.564  0.00  0.00    +0.239 C 
ATOM     28  C   UNL     1      32.841 -24.043 -14.268  0.00  0.00    +0.279 C 
ATOM     29  H   UNL     1      34.774 -24.586 -13.848  0.00  0.00    +0.158 HD
ENDBRANCH  21  26
ENDBRANCH   1  21
TORSDOF 6
ENDMDL
MODEL 6
REMARK VINA RESULT:     -10.6      3.510      6.539
REMARK  Name = 3055168
REMARK  6 active torsions:
REMARK  status: ('A' for Active; 'I' for Inactive)
REMARK    1  A    between atoms: C_1  and  C_21
REMARK    2  A    between atoms: C_4  and  O_7
REMARK    3  A    between atoms: O_7  and  C_8
REMARK    4  A    between atoms: C_8  and  C_12
REMARK    5  A    between atoms: C_17  and  O_19
REMARK    6  A    between atoms: C_21  and  C_26
REMARK                            x       y       z     vdW  Elec       q    Type
REMARK                         _______ _______ _______ _____ _____    ______ ____
ROOT
ATOM      1  C   UNL     1      35.047 -17.779 -22.736  0.00  0.00    -0.021 C 
ATOM      2  C   UNL     1      35.230 -16.704 -21.865  0.00  0.00    -0.001 C 
ATOM      3  C   UNL     1      34.580 -17.556 -24.031  0.00  0.00    -0.001 C 
ATOM      4  C   UNL     1      34.480 -15.190 -23.584  0.00  0.00    +0.139 C 
ATOM      5  C   UNL     1      34.945 -15.406 -22.291  0.00  0.00    +0.037 C 
ATOM      6  C   UNL     1      34.297 -16.258 -24.457  0.00  0.00    +0.037 C 
ENDROOT
BRANCH   4   7
ATOM      7  O   UNL     1      34.202 -13.917 -24.001  0.00  0.00    -0.466 OA
BRANCH   7   8
ATOM      8  C   UNL     1      32.827 -13.543 -24.044  0.00  0.00    +0.279 C 
BRANCH   8  12
ATOM      9  N   UNL     1      32.593 -11.289 -23.011  0.00  0.00    -0.274 N 
ATOM     10  N   UNL     1      32.285 -13.035 -21.670  0.00  0.00    -0.390 NA
ATOM     11  C   UNL     1      32.312 -10.759 -21.777  0.00  0.00    +0.153 C 
ATOM     12  C   UNL     1      32.565 -12.651 -22.895  0.00  0.00    +0.205 C 
ATOM     13  C   UNL     1      32.124 -11.870 -20.958  0.00  0.00    +0.133 C 
ATOM     14  C   UNL     1      32.211  -9.445 -21.322  0.00  0.00    +0.037 C 
ATOM     15  C   UNL     1      32.868 -10.539 -24.214  0.00  0.00    +0.115 C 
ATOM     16  C   UNL     1      31.815 -11.675 -19.601  0.00  0.00    +0.033 C 
ATOM     17  C   UNL     1      31.902  -9.269 -19.969  0.00  0.00    +0.137 C 
ATOM     18  C   UNL     1      31.708 -10.363 -19.122  0.00  0.00    +0.039 C 
BRANCH  17  19
ATOM     19  O   UNL     1      31.791  -8.006 -19.468  0.00  0.00    -0.472 OA
ATOM     20  C   UNL     1      32.552  -6.986 -20.110  0.00  0.00    +0.252 C 
ENDBRANCH  17  19
ENDBRANCH   8  12
ENDBRANCH   7   8
ENDBRANCH   4   7
BRANCH   1  21
ATOM     21  C   UNL     1      35.350 -19.166 -22.281  0.00  0.00    +0.047 C 
BRANCH  21  26
ATOM     22  S   UNL     1      34.164 -20.613 -20.253  0.00  0.00    -0.048 S 
ATOM     23  O   UNL     1      37.695 -19.062 -20.402  0.00  0.00    -0.274 OA
ATOM     24  O   UNL     1      35.144 -22.546 -18.764  0.00  0.00    -0.263 OA
ATOM     25  N   UNL     1      36.586 -20.870 -19.482  0.00  0.00    -0.246 N 
ATOM     26  C   UNL     1      35.317 -19.301 -20.761  0.00  0.00    +0.137 C 
ATOM     27  C   UNL     1      36.668 -19.703 -20.213  0.00  0.00    +0.239 C 
ATOM     28  C   UNL     1      35.380 -21.511 -19.369  0.00  0.00    +0.279 C 
ATOM     29  H   UNL     1      37.387 -21.240 -19.044  0.00  0.00    +0.158 HD
ENDBRANCH  21  26
ENDBRANCH   1  21
TORSDOF 6
ENDMDL
MODEL 7
REMARK VINA RESULT:     -10.4      4.170     10.765
REMARK  Name = 3055168
REMARK  6 active torsions:
REMARK  status: ('A' for Active; 'I' for Inactive)
REMARK    1  A    between atoms: C_1  and  C_21
REMARK    2  A    between atoms: C_4  and  O_7
REMARK    3  A    between atoms: O_7  and  C_8
REMARK    4  A    between atoms: C_8  and  C_12
REMARK    5  A    between atoms: C_17  and  O_19
REMARK    6  A    between atoms: C_21  and  C_26
REMARK                            x       y       z     vdW  Elec       q    Type
REMARK                         _______ _______ _______ _____ _____    ______ ____
ROOT
ATOM      1  C   UNL     1      32.926 -13.603 -22.173  0.00  0.00    -0.021 C 
ATOM      2  C   UNL     1      33.414 -14.075 -20.955  0.00  0.00    -0.001 C 
ATOM      3  C   UNL     1      33.382 -14.158 -23.369  0.00  0.00    -0.001 C 
ATOM      4  C   UNL     1      34.810 -15.650 -22.128  0.00  0.00    +0.139 C 
ATOM      5  C   UNL     1      34.359 -15.101 -20.932  0.00  0.00    +0.037 C 
ATOM      6  C   UNL     1      34.325 -15.184 -23.347  0.00  0.00    +0.037 C 
ENDROOT
BRANCH   4   7
ATOM      7  O   UNL     1      35.736 -16.658 -22.106  0.00  0.00    -0.466 OA
BRANCH   7   8
ATOM      8  C   UNL     1      35.377 -17.870 -22.765  0.00  0.00    +0.279 C 
BRANCH   8  12
ATOM      9  N   UNL     1      36.080 -19.378 -20.912  0.00  0.00    -0.274 N 
ATOM     10  N   UNL     1      33.928 -19.417 -21.464  0.00  0.00    -0.390 NA
ATOM     11  C   UNL     1      35.501 -20.291 -20.068  0.00  0.00    +0.153 C 
ATOM     12  C   UNL     1      35.100 -18.884 -21.727  0.00  0.00    +0.205 C 
ATOM     13  C   UNL     1      34.158 -20.297 -20.433  0.00  0.00    +0.133 C 
ATOM     14  C   UNL     1      36.022 -21.088 -19.048  0.00  0.00    +0.037 C 
ATOM     15  C   UNL     1      37.476 -19.006 -20.932  0.00  0.00    +0.115 C 
ATOM     16  C   UNL     1      33.266 -21.143 -19.751  0.00  0.00    +0.033 C 
ATOM     17  C   UNL     1      35.121 -21.923 -18.379  0.00  0.00    +0.137 C 
ATOM     18  C   UNL     1      33.767 -21.951 -18.723  0.00  0.00    +0.039 C 
BRANCH  17  19
ATOM     19  O   UNL     1      35.574 -22.725 -17.374  0.00  0.00    -0.472 OA
ATOM     20  C   UNL     1      36.549 -22.171 -16.494  0.00  0.00    +0.252 C 
ENDBRANCH  17  19
ENDBRANCH   8  12
ENDBRANCH   7   8
ENDBRANCH   4   7
BRANCH   1  21
ATOM     21  C   UNL     1      31.916 -12.506 -22.197  0.00  0.00    +0.047 C 
BRANCH  21  26
ATOM     22  S   UNL     1      32.971 -10.465 -23.725  0.00  0.00    -0.048 S 
ATOM     23  O   UNL     1      31.084 -10.273 -20.364  0.00  0.00    -0.274 OA
ATOM     24  O   UNL     1      31.941  -8.132 -24.366  0.00  0.00    -0.263 OA
ATOM     25  N   UNL     1      31.402  -9.043 -22.296  0.00  0.00    -0.246 N 
ATOM     26  C   UNL     1      32.555 -11.125 -22.081  0.00  0.00    +0.137 C 
ATOM     27  C   UNL     1      31.602 -10.126 -21.465  0.00  0.00    +0.239 C 
ATOM     28  C   UNL     1      32.018  -9.010 -23.520  0.00  0.00    +0.279 C 
ATOM     29  H   UNL     1      30.821  -8.299 -22.013  0.00  0.00    +0.158 HD
ENDBRANCH  21  26
ENDBRANCH   1  21
TORSDOF 6
ENDMDL
MODEL 8
REMARK VINA RESULT:     -10.4      3.644     10.498
REMARK  Name = 3055168
REMARK  6 active torsions:
REMARK  status: ('A' for Active; 'I' for Inactive)
REMARK    1  A    between atoms: C_1  and  C_21
REMARK    2  A    between atoms: C_4  and  O_7
REMARK    3  A    between atoms: O_7  and  C_8
REMARK    4  A    between atoms: C_8  and  C_12
REMARK    5  A    between atoms: C_17  and  O_19
REMARK    6  A    between atoms: C_21  and  C_26
REMARK                            x       y       z     vdW  Elec       q    Type
REMARK                         _______ _______ _______ _____ _____    ______ ____
ROOT
ATOM      1  C   UNL     1      33.908 -13.202 -23.330  0.00  0.00    -0.021 C 
ATOM      2  C   UNL     1      33.489 -13.933 -24.441  0.00  0.00    -0.001 C 
ATOM      3  C   UNL     1      34.556 -13.846 -22.276  0.00  0.00    -0.001 C 
ATOM      4  C   UNL     1      34.363 -15.945 -23.444  0.00  0.00    +0.139 C 
ATOM      5  C   UNL     1      33.716 -15.308 -24.498  0.00  0.00    +0.037 C 
ATOM      6  C   UNL     1      34.785 -15.220 -22.333  0.00  0.00    +0.037 C 
ENDROOT
BRANCH   4   7
ATOM      7  O   UNL     1      34.588 -17.293 -23.501  0.00  0.00    -0.466 OA
BRANCH   7   8
ATOM      8  C   UNL     1      35.743 -17.778 -22.818  0.00  0.00    +0.279 C 
BRANCH   8  12
ATOM      9  N   UNL     1      36.155 -19.359 -20.938  0.00  0.00    -0.274 N 
ATOM     10  N   UNL     1      34.064 -19.217 -21.678  0.00  0.00    -0.390 NA
ATOM     11  C   UNL     1      35.433 -20.232 -20.165  0.00  0.00    +0.153 C 
ATOM     12  C   UNL     1      35.294 -18.778 -21.826  0.00  0.00    +0.205 C 
ATOM     13  C   UNL     1      34.131 -20.124 -20.646  0.00  0.00    +0.133 C 
ATOM     14  C   UNL     1      35.796 -21.080 -19.119  0.00  0.00    +0.037 C 
ATOM     15  C   UNL     1      37.573 -19.103 -20.829  0.00  0.00    +0.115 C 
ATOM     16  C   UNL     1      33.117 -20.903 -20.061  0.00  0.00    +0.033 C 
ATOM     17  C   UNL     1      34.775 -21.847 -18.547  0.00  0.00    +0.137 C 
ATOM     18  C   UNL     1      33.459 -21.761 -19.008  0.00  0.00    +0.039 C 
BRANCH  17  19
ATOM     19  O   UNL     1      35.071 -22.695 -17.521  0.00  0.00    -0.472 OA
ATOM     20  C   UNL     1      33.982 -23.142 -16.716  0.00  0.00    +0.252 C 
ENDBRANCH  17  19
ENDBRANCH   8  12
ENDBRANCH   7   8
ENDBRANCH   4   7
BRANCH   1  21
ATOM     21  C   UNL     1      33.664 -11.732 -23.269  0.00  0.00    +0.047 C 
BRANCH  21  26
ATOM     22  S   UNL     1      31.854 -11.938 -21.197  0.00  0.00    -0.048 S 
ATOM     23  O   UNL     1      32.171  -9.199 -23.898  0.00  0.00    -0.274 OA
ATOM     24  O   UNL     1      30.987 -10.102 -19.526  0.00  0.00    -0.263 OA
ATOM     25  N   UNL     1      31.520  -9.454 -21.694  0.00  0.00    -0.246 N 
ATOM     26  C   UNL     1      32.223 -11.397 -22.894  0.00  0.00    +0.137 C 
ATOM     27  C   UNL     1      31.980  -9.905 -22.914  0.00  0.00    +0.239 C 
ATOM     28  C   UNL     1      31.377 -10.341 -20.659  0.00  0.00    +0.279 C 
ATOM     29  H   UNL     1      31.296  -8.503 -21.567  0.00  0.00    +0.158 HD
ENDBRANCH  21  26
ENDBRANCH   1  21
TORSDOF 6
ENDMDL
MODEL 9
REMARK VINA RESULT:     -10.4      2.934     10.701
REMARK  Name = 3055168
REMARK  6 active torsions:
REMARK  status: ('A' for Active; 'I' for Inactive)
REMARK    1  A    between atoms: C_1  and  C_21
REMARK    2  A    between atoms: C_4  and  O_7
REMARK    3  A    between atoms: O_7  and  C_8
REMARK    4  A    between atoms: C_8  and  C_12
REMARK    5  A    between atoms: C_17  and  O_19
REMARK    6  A    between atoms: C_21  and  C_26
REMARK                            x       y       z     vdW  Elec       q    Type
REMARK                         _______ _______ _______ _____ _____    ______ ____
ROOT
ATOM      1  C   UNL     1      35.825 -18.452 -21.493  0.00  0.00    -0.021 C 
ATOM      2  C   UNL     1      34.592 -19.094 -21.377  0.00  0.00    -0.001 C 
ATOM      3  C   UNL     1      36.924 -18.915 -20.769  0.00  0.00    -0.001 C 
ATOM      4  C   UNL     1      35.558 -20.657 -19.816  0.00  0.00    +0.139 C 
ATOM      5  C   UNL     1      34.459 -20.199 -20.535  0.00  0.00    +0.037 C 
ATOM      6  C   UNL     1      36.791 -20.020 -19.929  0.00  0.00    +0.037 C 
ENDROOT
BRANCH   4   7
ATOM      7  O   UNL     1      35.427 -21.742 -18.992  0.00  0.00    -0.466 OA
BRANCH   7   8
ATOM      8  C   UNL     1      36.410 -21.891 -17.970  0.00  0.00    +0.279 C 
BRANCH   8  12
ATOM      9  N   UNL     1      36.429 -22.772 -15.641  0.00  0.00    -0.274 N 
ATOM     10  N   UNL     1      34.467 -22.764 -16.685  0.00  0.00    -0.390 NA
ATOM     11  C   UNL     1      35.533 -23.292 -14.742  0.00  0.00    +0.153 C 
ATOM     12  C   UNL     1      35.745 -22.473 -16.786  0.00  0.00    +0.205 C 
ATOM     13  C   UNL     1      34.316 -23.276 -15.418  0.00  0.00    +0.133 C 
ATOM     14  C   UNL     1      35.679 -23.761 -13.436  0.00  0.00    +0.037 C 
ATOM     15  C   UNL     1      37.842 -22.577 -15.414  0.00  0.00    +0.115 C 
ATOM     16  C   UNL     1      33.165 -23.753 -14.767  0.00  0.00    +0.033 C 
ATOM     17  C   UNL     1      34.523 -24.231 -12.803  0.00  0.00    +0.137 C 
ATOM     18  C   UNL     1      33.288 -24.228 -13.456  0.00  0.00    +0.039 C 
BRANCH  17  19
ATOM     19  O   UNL     1      34.605 -24.702 -11.527  0.00  0.00    -0.472 OA
ATOM     20  C   UNL     1      35.787 -24.383 -10.794  0.00  0.00    +0.252 C 
ENDBRANCH  17  19
ENDBRANCH   8  12
ENDBRANCH   7   8
ENDBRANCH   4   7
BRANCH   1  21
ATOM     21  C   UNL     1      35.968 -17.271 -22.392  0.00  0.00    +0.047 C 
BRANCH  21  26
ATOM     22  S   UNL     1      34.546 -15.049 -21.583  0.00  0.00    -0.048 S 
ATOM     23  O   UNL     1      34.568 -16.817 -25.014  0.00  0.00    -0.274 OA
ATOM     24  O   UNL     1      34.122 -12.773 -22.829  0.00  0.00    -0.263 OA
ATOM     25  N   UNL     1      34.304 -14.708 -24.103  0.00  0.00    -0.246 N 
ATOM     26  C   UNL     1      34.644 -16.545 -22.614  0.00  0.00    +0.137 C 
ATOM     27  C   UNL     1      34.507 -16.072 -24.043  0.00  0.00    +0.239 C 
ATOM     28  C   UNL     1      34.286 -13.978 -22.944  0.00  0.00    +0.279 C 
ATOM     29  H   UNL     1      34.173 -14.263 -24.972  0.00  0.00    +0.158 HD
ENDBRANCH  21  26
ENDBRANCH   1  21
TORSDOF 6
ENDMDL
