MODEL 1
REMARK VINA RESULT:     -10.7      0.000      0.000
REMARK  Name = 16041426
REMARK  5 active torsions:
REMARK  status: ('A' for Active; 'I' for Inactive)
REMARK    1  A    between atoms: C_1  and  C_5
REMARK    2  A    between atoms: C_1  and  O_15
REMARK    3  A    between atoms: C_7  and  C_9
REMARK    4  A    between atoms: O_15  and  C_19
REMARK    5  A    between atoms: C_20  and  C_23
REMARK                            x       y       z     vdW  Elec       q    Type
REMARK                         _______ _______ _______ _____ _____    ______ ____
ROOT
ATOM      1  C   UNL     1      33.434 -14.855 -23.980  0.00  0.00    +0.212 C 
ATOM      2  C   UNL     1      33.343 -14.801 -25.514  0.00  0.00    +0.054 C 
ENDROOT
BRANCH   1   5
ATOM      3  O   UNL     1      33.030 -11.416 -23.108  0.00  0.00    -0.354 OA
ATOM      4  N   UNL     1      33.368 -12.425 -24.001  0.00  0.00    -0.078 NA
ATOM      5  C   UNL     1      33.169 -13.562 -23.329  0.00  0.00    +0.140 C 
ATOM      6  C   UNL     1      32.708 -13.336 -22.020  0.00  0.00    +0.062 C 
ATOM      7  C   UNL     1      32.640 -11.976 -21.938  0.00  0.00    +0.177 C 
BRANCH   7   9
ATOM      8 CL   UNL     1      31.675  -7.104 -20.544  0.00  0.00    -0.082 Cl
ATOM      9  C   UNL     1      32.255 -11.046 -20.905  0.00  0.00    +0.038 C 
ATOM     10  C   UNL     1      32.161  -9.684 -21.191  0.00  0.00    +0.015 C 
ATOM     11  C   UNL     1      31.979 -11.508 -19.618  0.00  0.00    +0.003 C 
ATOM     12  C   UNL     1      31.790  -8.785 -20.192  0.00  0.00    +0.058 C 
ATOM     13  C   UNL     1      31.608 -10.610 -18.618  0.00  0.00    +0.001 C 
ATOM     14  C   UNL     1      31.513  -9.248 -18.906  0.00  0.00    +0.011 C 
ENDBRANCH   7   9
ENDBRANCH   1   5
BRANCH   1  15
ATOM     15  O   UNL     1      34.740 -15.393 -23.686  0.00  0.00    -0.444 OA
BRANCH  15  19
ATOM     16  N   UNL     1      34.950 -17.169 -22.128  0.00  0.00    -0.264 N 
ATOM     17  N   UNL     1      34.674 -17.673 -24.239  0.00  0.00    -0.092 NA
ATOM     18  N   UNL     1      34.772 -18.848 -23.520  0.00  0.00    -0.126 NA
ATOM     19  C   UNL     1      34.785 -16.718 -23.378  0.00  0.00    +0.320 A 
ATOM     20  C   UNL     1      34.937 -18.525 -22.257  0.00  0.00    +0.169 A 
ATOM     21  C   UNL     1      35.106 -16.400 -20.916  0.00  0.00    +0.137 C 
BRANCH  20  23
ATOM     22  N   UNL     1      35.382 -21.227 -19.023  0.00  0.00    -0.242 NA
ATOM     23  C   UNL     1      35.088 -19.444 -21.156  0.00  0.00    +0.039 C 
ATOM     24  C   UNL     1      33.976 -20.095 -20.632  0.00  0.00    +0.024 C 
ATOM     25  C   UNL     1      36.346 -19.685 -20.616  0.00  0.00    +0.024 C 
ATOM     26  C   UNL     1      34.175 -20.968 -19.575  0.00  0.00    +0.099 C 
ATOM     27  C   UNL     1      36.439 -20.577 -19.560  0.00  0.00    +0.099 C 
ENDBRANCH  20  23
ENDBRANCH  15  19
ENDBRANCH   1  15
TORSDOF 5
ENDMDL
MODEL 2
REMARK VINA RESULT:     -10.6      1.859      2.297
REMARK  Name = 16041426
REMARK  5 active torsions:
REMARK  status: ('A' for Active; 'I' for Inactive)
REMARK    1  A    between atoms: C_1  and  C_5
REMARK    2  A    between atoms: C_1  and  O_15
REMARK    3  A    between atoms: C_7  and  C_9
REMARK    4  A    between atoms: O_15  and  C_19
REMARK    5  A    between atoms: C_20  and  C_23
REMARK                            x       y       z     vdW  Elec       q    Type
REMARK                         _______ _______ _______ _____ _____    ______ ____
ROOT
ATOM      1  C   UNL     1      33.272 -14.174 -23.680  0.00  0.00    +0.212 C 
ATOM      2  C   UNL     1      33.090 -14.358 -25.196  0.00  0.00    +0.054 C 
ENDROOT
BRANCH   1   5
ATOM      3  O   UNL     1      31.890 -11.281 -22.109  0.00  0.00    -0.354 OA
ATOM      4  N   UNL     1      31.934 -12.650 -22.340  0.00  0.00    -0.078 NA
ATOM      5  C   UNL     1      32.936 -12.823 -23.206  0.00  0.00    +0.140 C 
ATOM      6  C   UNL     1      33.556 -11.609 -23.554  0.00  0.00    +0.062 C 
ATOM      7  C   UNL     1      32.860 -10.680 -22.838  0.00  0.00    +0.177 C 
BRANCH   7   9
ATOM      8 CL   UNL     1      35.332  -6.286 -23.930  0.00  0.00    -0.082 Cl
ATOM      9  C   UNL     1      32.938  -9.246 -22.701  0.00  0.00    +0.038 C 
ATOM     10  C   UNL     1      33.976  -8.542 -23.312  0.00  0.00    +0.015 C 
ATOM     11  C   UNL     1      31.977  -8.564 -21.956  0.00  0.00    +0.003 C 
ATOM     12  C   UNL     1      34.051  -7.156 -23.179  0.00  0.00    +0.058 C 
ATOM     13  C   UNL     1      32.052  -7.178 -21.821  0.00  0.00    +0.001 C 
ATOM     14  C   UNL     1      33.090  -6.474 -22.433  0.00  0.00    +0.011 C 
ENDBRANCH   7   9
ENDBRANCH   1   5
BRANCH   1  15
ATOM     15  O   UNL     1      34.634 -14.561 -23.402  0.00  0.00    -0.444 OA
BRANCH  15  19
ATOM     16  N   UNL     1      34.987 -16.467 -22.033  0.00  0.00    -0.264 N 
ATOM     17  N   UNL     1      34.959 -16.744 -24.203  0.00  0.00    -0.092 NA
ATOM     18  N   UNL     1      35.176 -17.972 -23.610  0.00  0.00    -0.126 NA
ATOM     19  C   UNL     1      34.855 -15.894 -23.236  0.00  0.00    +0.320 A 
ATOM     20  C   UNL     1      35.189 -17.785 -22.310  0.00  0.00    +0.169 A 
ATOM     21  C   UNL     1      34.928 -15.837 -20.735  0.00  0.00    +0.137 C 
BRANCH  20  23
ATOM     22  N   UNL     1      35.781 -20.771 -19.361  0.00  0.00    -0.242 NA
ATOM     23  C   UNL     1      35.390 -18.800 -21.306  0.00  0.00    +0.039 C 
ATOM     24  C   UNL     1      34.319 -19.572 -20.868  0.00  0.00    +0.024 C 
ATOM     25  C   UNL     1      36.656 -19.013 -20.772  0.00  0.00    +0.024 C 
ATOM     26  C   UNL     1      34.564 -20.535 -19.903  0.00  0.00    +0.099 C 
ATOM     27  C   UNL     1      36.797 -20.001 -19.811  0.00  0.00    +0.099 C 
ENDBRANCH  20  23
ENDBRANCH  15  19
ENDBRANCH   1  15
TORSDOF 5
ENDMDL
MODEL 3
REMARK VINA RESULT:     -10.6      5.314      9.026
REMARK  Name = 16041426
REMARK  5 active torsions:
REMARK  status: ('A' for Active; 'I' for Inactive)
REMARK    1  A    between atoms: C_1  and  C_5
REMARK    2  A    between atoms: C_1  and  O_15
REMARK    3  A    between atoms: C_7  and  C_9
REMARK    4  A    between atoms: O_15  and  C_19
REMARK    5  A    between atoms: C_20  and  C_23
REMARK                            x       y       z     vdW  Elec       q    Type
REMARK                         _______ _______ _______ _____ _____    ______ ____
ROOT
ATOM      1  C   UNL     1      34.791 -21.909 -18.492  0.00  0.00    +0.212 C 
ATOM      2  C   UNL     1      34.277 -23.176 -19.194  0.00  0.00    +0.054 C 
ENDROOT
BRANCH   1   5
ATOM      3  O   UNL     1      36.353 -19.311 -20.381  0.00  0.00    -0.354 OA
ATOM      4  N   UNL     1      36.366 -20.293 -19.398  0.00  0.00    -0.078 NA
ATOM      5  C   UNL     1      35.139 -20.821 -19.420  0.00  0.00    +0.140 C 
ATOM      6  C   UNL     1      34.317 -20.219 -20.389  0.00  0.00    +0.062 C 
ATOM      7  C   UNL     1      35.128 -19.283 -20.958  0.00  0.00    +0.177 C 
BRANCH   7   9
ATOM      8 CL   UNL     1      34.884 -14.320 -22.345  0.00  0.00    -0.082 Cl
ATOM      9  C   UNL     1      34.961 -18.306 -22.006  0.00  0.00    +0.038 C 
ATOM     10  C   UNL     1      35.000 -16.944 -21.704  0.00  0.00    +0.015 C 
ATOM     11  C   UNL     1      34.758 -18.722 -23.322  0.00  0.00    +0.003 C 
ATOM     12  C   UNL     1      34.838 -16.000 -22.717  0.00  0.00    +0.058 C 
ATOM     13  C   UNL     1      34.595 -17.778 -24.335  0.00  0.00    +0.001 C 
ATOM     14  C   UNL     1      34.635 -16.417 -24.032  0.00  0.00    +0.011 C 
ENDBRANCH   7   9
ENDBRANCH   1   5
BRANCH   1  15
ATOM     15  O   UNL     1      35.895 -22.340 -17.669  0.00  0.00    -0.444 OA
BRANCH  15  19
ATOM     16  N   UNL     1      36.454 -23.125 -15.502  0.00  0.00    -0.264 N 
ATOM     17  N   UNL     1      34.380 -23.325 -16.171  0.00  0.00    -0.092 NA
ATOM     18  N   UNL     1      34.477 -23.841 -14.893  0.00  0.00    -0.126 NA
ATOM     19  C   UNL     1      35.565 -22.918 -16.482  0.00  0.00    +0.320 A 
ATOM     20  C   UNL     1      35.727 -23.712 -14.510  0.00  0.00    +0.169 A 
ATOM     21  C   UNL     1      37.861 -22.802 -15.491  0.00  0.00    +0.137 C 
BRANCH  20  23
ATOM     22  N   UNL     1      37.335 -24.925 -10.781  0.00  0.00    -0.242 NA
ATOM     23  C   UNL     1      36.275 -24.124 -13.241  0.00  0.00    +0.039 C 
ATOM     24  C   UNL     1      36.281 -23.244 -12.164  0.00  0.00    +0.024 C 
ATOM     25  C   UNL     1      36.798 -25.403 -13.090  0.00  0.00    +0.024 C 
ATOM     26  C   UNL     1      36.818 -23.689 -10.967  0.00  0.00    +0.099 C 
ATOM     27  C   UNL     1      37.312 -25.751 -11.851  0.00  0.00    +0.099 C 
ENDBRANCH  20  23
ENDBRANCH  15  19
ENDBRANCH   1  15
TORSDOF 5
ENDMDL
MODEL 4
REMARK VINA RESULT:     -10.6      3.518      9.276
REMARK  Name = 16041426
REMARK  5 active torsions:
REMARK  status: ('A' for Active; 'I' for Inactive)
REMARK    1  A    between atoms: C_1  and  C_5
REMARK    2  A    between atoms: C_1  and  O_15
REMARK    3  A    between atoms: C_7  and  C_9
REMARK    4  A    between atoms: O_15  and  C_19
REMARK    5  A    between atoms: C_20  and  C_23
REMARK                            x       y       z     vdW  Elec       q    Type
REMARK                         _______ _______ _______ _____ _____    ______ ____
ROOT
ATOM      1  C   UNL     1      34.032 -14.490 -24.168  0.00  0.00    +0.212 C 
ATOM      2  C   UNL     1      33.170 -14.543 -25.441  0.00  0.00    +0.054 C 
ENDROOT
BRANCH   1   5
ATOM      3  O   UNL     1      34.937 -17.918 -23.752  0.00  0.00    -0.354 OA
ATOM      4  N   UNL     1      34.534 -16.840 -24.530  0.00  0.00    -0.078 NA
ATOM      5  C   UNL     1      34.442 -15.815 -23.679  0.00  0.00    +0.140 C 
ATOM      6  C   UNL     1      34.775 -16.182 -22.363  0.00  0.00    +0.062 C 
ATOM      7  C   UNL     1      35.076 -17.508 -22.469  0.00  0.00    +0.177 C 
BRANCH   7   9
ATOM      8 CL   UNL     1      33.804 -21.479 -19.431  0.00  0.00    -0.082 Cl
ATOM      9  C   UNL     1      35.494 -18.526 -21.536  0.00  0.00    +0.038 C 
ATOM     10  C   UNL     1      34.556 -19.408 -20.998  0.00  0.00    +0.015 C 
ATOM     11  C   UNL     1      36.835 -18.626 -21.168  0.00  0.00    +0.003 C 
ATOM     12  C   UNL     1      34.960 -20.391 -20.096  0.00  0.00    +0.058 C 
ATOM     13  C   UNL     1      37.240 -19.608 -20.265  0.00  0.00    +0.001 C 
ATOM     14  C   UNL     1      36.302 -20.491 -19.729  0.00  0.00    +0.011 C 
ENDBRANCH   7   9
ENDBRANCH   1   5
BRANCH   1  15
ATOM     15  O   UNL     1      33.263 -13.734 -23.209  0.00  0.00    -0.444 OA
BRANCH  15  19
ATOM     16  N   UNL     1      32.497 -11.542 -22.723  0.00  0.00    -0.264 N 
ATOM     17  N   UNL     1      34.332 -11.759 -23.895  0.00  0.00    -0.092 NA
ATOM     18  N   UNL     1      34.075 -10.412 -23.732  0.00  0.00    -0.126 NA
ATOM     19  C   UNL     1      33.378 -12.380 -23.285  0.00  0.00    +0.320 A 
ATOM     20  C   UNL     1      32.972 -10.303 -23.028  0.00  0.00    +0.169 A 
ATOM     21  C   UNL     1      31.313 -11.871 -21.965  0.00  0.00    +0.137 C 
BRANCH  20  23
ATOM     22  N   UNL     1      31.103  -6.686 -21.851  0.00  0.00    -0.242 NA
ATOM     23  C   UNL     1      32.337  -9.071 -22.627  0.00  0.00    +0.039 C 
ATOM     24  C   UNL     1      31.456  -8.428 -23.490  0.00  0.00    +0.024 C 
ATOM     25  C   UNL     1      32.601  -8.524 -21.377  0.00  0.00    +0.024 C 
ATOM     26  C   UNL     1      30.870  -7.248 -23.058  0.00  0.00    +0.099 C 
ATOM     27  C   UNL     1      31.964  -7.340 -21.040  0.00  0.00    +0.099 C 
ENDBRANCH  20  23
ENDBRANCH  15  19
ENDBRANCH   1  15
TORSDOF 5
ENDMDL
MODEL 5
REMARK VINA RESULT:     -10.2      5.164      8.439
REMARK  Name = 16041426
REMARK  5 active torsions:
REMARK  status: ('A' for Active; 'I' for Inactive)
REMARK    1  A    between atoms: C_1  and  C_5
REMARK    2  A    between atoms: C_1  and  O_15
REMARK    3  A    between atoms: C_7  and  C_9
REMARK    4  A    between atoms: O_15  and  C_19
REMARK    5  A    between atoms: C_20  and  C_23
REMARK                            x       y       z     vdW  Elec       q    Type
REMARK                         _______ _______ _______ _____ _____    ______ ____
ROOT
ATOM      1  C   UNL     1      36.080 -21.876 -18.644  0.00  0.00    +0.212 C 
ATOM      2  C   UNL     1      35.936 -21.569 -17.144  0.00  0.00    +0.054 C 
ENDROOT
BRANCH   1   5
ATOM      3  O   UNL     1      36.696 -18.740 -20.236  0.00  0.00    -0.354 OA
ATOM      4  N   UNL     1      36.971 -19.705 -19.274  0.00  0.00    -0.078 NA
ATOM      5  C   UNL     1      36.081 -20.676 -19.494  0.00  0.00    +0.140 C 
ATOM      6  C   UNL     1      35.226 -20.383 -20.572  0.00  0.00    +0.062 C 
ATOM      7  C   UNL     1      35.658 -19.161 -20.997  0.00  0.00    +0.177 C 
BRANCH   7   9
ATOM      8 CL   UNL     1      34.809 -14.313 -22.542  0.00  0.00    -0.082 Cl
ATOM      9  C   UNL     1      35.255 -18.258 -22.047  0.00  0.00    +0.038 C 
ATOM     10  C   UNL     1      35.231 -16.882 -21.814  0.00  0.00    +0.015 C 
ATOM     11  C   UNL     1      34.886 -18.759 -23.295  0.00  0.00    +0.003 C 
ATOM     12  C   UNL     1      34.840 -16.009 -22.828  0.00  0.00    +0.058 C 
ATOM     13  C   UNL     1      34.494 -17.887 -24.310  0.00  0.00    +0.001 C 
ATOM     14  C   UNL     1      34.472 -16.512 -24.076  0.00  0.00    +0.011 C 
ENDBRANCH   7   9
ENDBRANCH   1   5
BRANCH   1  15
ATOM     15  O   UNL     1      35.018 -22.802 -18.955  0.00  0.00    -0.444 OA
BRANCH  15  19
ATOM     16  N   UNL     1      33.706 -23.277 -17.036  0.00  0.00    -0.264 N 
ATOM     17  N   UNL     1      32.855 -21.973 -18.574  0.00  0.00    -0.092 NA
ATOM     18  N   UNL     1      31.930 -22.111 -17.558  0.00  0.00    -0.126 NA
ATOM     19  C   UNL     1      33.880 -22.676 -18.220  0.00  0.00    +0.320 A 
ATOM     20  C   UNL     1      32.458 -22.895 -16.647  0.00  0.00    +0.169 A 
ATOM     21  C   UNL     1      34.628 -24.133 -16.328  0.00  0.00    +0.137 C 
BRANCH  20  23
ATOM     22  N   UNL     1      30.621 -24.112 -13.027  0.00  0.00    -0.242 NA
ATOM     23  C   UNL     1      31.834 -23.310 -15.414  0.00  0.00    +0.039 C 
ATOM     24  C   UNL     1      32.254 -22.772 -14.203  0.00  0.00    +0.024 C 
ATOM     25  C   UNL     1      30.808 -24.248 -15.433  0.00  0.00    +0.024 C 
ATOM     26  C   UNL     1      31.622 -23.203 -13.047  0.00  0.00    +0.099 C 
ATOM     27  C   UNL     1      30.240 -24.613 -14.223  0.00  0.00    +0.099 C 
ENDBRANCH  20  23
ENDBRANCH  15  19
ENDBRANCH   1  15
TORSDOF 5
ENDMDL
MODEL 6
REMARK VINA RESULT:     -10.0      6.078     10.812
REMARK  Name = 16041426
REMARK  5 active torsions:
REMARK  status: ('A' for Active; 'I' for Inactive)
REMARK    1  A    between atoms: C_1  and  C_5
REMARK    2  A    between atoms: C_1  and  O_15
REMARK    3  A    between atoms: C_7  and  C_9
REMARK    4  A    between atoms: O_15  and  C_19
REMARK    5  A    between atoms: C_20  and  C_23
REMARK                            x       y       z     vdW  Elec       q    Type
REMARK                         _______ _______ _______ _____ _____    ______ ____
ROOT
ATOM      1  C   UNL     1      35.702 -22.033 -16.951  0.00  0.00    +0.212 C 
ATOM      2  C   UNL     1      37.130 -22.298 -16.448  0.00  0.00    +0.054 C 
ENDROOT
BRANCH   1   5
ATOM      3  O   UNL     1      33.813 -23.990 -14.637  0.00  0.00    -0.354 OA
ATOM      4  N   UNL     1      35.009 -23.472 -15.118  0.00  0.00    -0.078 NA
ATOM      5  C   UNL     1      34.666 -22.739 -16.181  0.00  0.00    +0.140 C 
ATOM      6  C   UNL     1      33.279 -22.755 -16.415  0.00  0.00    +0.062 C 
ATOM      7  C   UNL     1      32.798 -23.552 -15.419  0.00  0.00    +0.177 C 
BRANCH   7   9
ATOM      8 CL   UNL     1      27.680 -23.113 -15.895  0.00  0.00    -0.082 Cl
ATOM      9  C   UNL     1      31.484 -24.011 -15.040  0.00  0.00    +0.038 C 
ATOM     10  C   UNL     1      30.349 -23.411 -15.588  0.00  0.00    +0.015 C 
ATOM     11  C   UNL     1      31.346 -25.052 -14.122  0.00  0.00    +0.003 C 
ATOM     12  C   UNL     1      29.079 -23.853 -15.220  0.00  0.00    +0.058 C 
ATOM     13  C   UNL     1      30.076 -25.495 -13.754  0.00  0.00    +0.001 C 
ATOM     14  C   UNL     1      28.943 -24.895 -14.303  0.00  0.00    +0.011 C 
ENDBRANCH   7   9
ENDBRANCH   1   5
BRANCH   1  15
ATOM     15  O   UNL     1      35.712 -22.374 -18.352  0.00  0.00    -0.444 OA
BRANCH  15  19
ATOM     16  N   UNL     1      35.655 -20.558 -19.877  0.00  0.00    -0.264 N 
ATOM     17  N   UNL     1      33.770 -21.555 -19.386  0.00  0.00    -0.092 NA
ATOM     18  N   UNL     1      33.505 -20.539 -20.282  0.00  0.00    -0.126 NA
ATOM     19  C   UNL     1      35.045 -21.525 -19.180  0.00  0.00    +0.320 A 
ATOM     20  C   UNL     1      34.646 -19.954 -20.564  0.00  0.00    +0.169 A 
ATOM     21  C   UNL     1      37.060 -20.227 -19.900  0.00  0.00    +0.137 C 
BRANCH  20  23
ATOM     22  N   UNL     1      35.191 -16.671 -23.189  0.00  0.00    -0.242 NA
ATOM     23  C   UNL     1      34.832 -18.836 -21.458  0.00  0.00    +0.039 C 
ATOM     24  C   UNL     1      34.711 -19.014 -22.832  0.00  0.00    +0.024 C 
ATOM     25  C   UNL     1      35.132 -17.578 -20.948  0.00  0.00    +0.024 C 
ATOM     26  C   UNL     1      34.898 -17.909 -23.647  0.00  0.00    +0.099 C 
ATOM     27  C   UNL     1      35.300 -16.538 -21.848  0.00  0.00    +0.099 C 
ENDBRANCH  20  23
ENDBRANCH  15  19
ENDBRANCH   1  15
TORSDOF 5
ENDMDL
MODEL 7
REMARK VINA RESULT:      -9.8      3.516      6.440
REMARK  Name = 16041426
REMARK  5 active torsions:
REMARK  status: ('A' for Active; 'I' for Inactive)
REMARK    1  A    between atoms: C_1  and  C_5
REMARK    2  A    between atoms: C_1  and  O_15
REMARK    3  A    between atoms: C_7  and  C_9
REMARK    4  A    between atoms: O_15  and  C_19
REMARK    5  A    between atoms: C_20  and  C_23
REMARK                            x       y       z     vdW  Elec       q    Type
REMARK                         _______ _______ _______ _____ _____    ______ ____
ROOT
ATOM      1  C   UNL     1      31.954  -9.915 -20.074  0.00  0.00    +0.212 C 
ATOM      2  C   UNL     1      31.176 -10.145 -18.768  0.00  0.00    +0.054 C 
ENDROOT
BRANCH   1   5
ATOM      3  O   UNL     1      32.795  -6.448 -20.229  0.00  0.00    -0.354 OA
ATOM      4  N   UNL     1      32.842  -7.697 -19.623  0.00  0.00    -0.078 NA
ATOM      5  C   UNL     1      32.122  -8.494 -20.417  0.00  0.00    +0.140 C 
ATOM      6  C   UNL     1      31.602  -7.810 -21.530  0.00  0.00    +0.062 C 
ATOM      7  C   UNL     1      32.056  -6.535 -21.360  0.00  0.00    +0.177 C 
BRANCH   7   9
ATOM      8 CL   UNL     1      30.066  -1.786 -21.673  0.00  0.00    -0.082 Cl
ATOM      9  C   UNL     1      31.916  -5.307 -22.103  0.00  0.00    +0.038 C 
ATOM     10  C   UNL     1      31.149  -4.262 -21.588  0.00  0.00    +0.015 C 
ATOM     11  C   UNL     1      32.546  -5.165 -23.340  0.00  0.00    +0.003 C 
ATOM     12  C   UNL     1      31.013  -3.075 -22.307  0.00  0.00    +0.058 C 
ATOM     13  C   UNL     1      32.410  -3.978 -24.060  0.00  0.00    +0.001 C 
ATOM     14  C   UNL     1      31.644  -2.933 -23.543  0.00  0.00    +0.011 C 
ENDBRANCH   7   9
ENDBRANCH   1   5
BRANCH   1  15
ATOM     15  O   UNL     1      31.256 -10.673 -21.083  0.00  0.00    -0.444 OA
BRANCH  15  19
ATOM     16  N   UNL     1      32.381 -12.618 -21.846  0.00  0.00    -0.264 N 
ATOM     17  N   UNL     1      32.522 -10.799 -23.056  0.00  0.00    -0.092 NA
ATOM     18  N   UNL     1      33.243 -11.797 -23.682  0.00  0.00    -0.126 NA
ATOM     19  C   UNL     1      32.036 -11.331 -21.984  0.00  0.00    +0.320 A 
ATOM     20  C   UNL     1      33.146 -12.878 -22.942  0.00  0.00    +0.169 A 
ATOM     21  C   UNL     1      32.024 -13.527 -20.783  0.00  0.00    +0.137 C 
BRANCH  20  23
ATOM     22  N   UNL     1      34.923 -16.637 -23.760  0.00  0.00    -0.242 NA
ATOM     23  C   UNL     1      33.752 -14.157 -23.221  0.00  0.00    +0.039 C 
ATOM     24  C   UNL     1      34.606 -14.742 -22.292  0.00  0.00    +0.024 C 
ATOM     25  C   UNL     1      33.482 -14.811 -24.418  0.00  0.00    +0.024 C 
ATOM     26  C   UNL     1      35.162 -15.972 -22.607  0.00  0.00    +0.099 C 
ATOM     27  C   UNL     1      34.087 -16.038 -24.637  0.00  0.00    +0.099 C 
ENDBRANCH  20  23
ENDBRANCH  15  19
ENDBRANCH   1  15
TORSDOF 5
ENDMDL
MODEL 8
REMARK VINA RESULT:      -9.8      3.609      6.588
REMARK  Name = 16041426
REMARK  5 active torsions:
REMARK  status: ('A' for Active; 'I' for Inactive)
REMARK    1  A    between atoms: C_1  and  C_5
REMARK    2  A    between atoms: C_1  and  O_15
REMARK    3  A    between atoms: C_7  and  C_9
REMARK    4  A    between atoms: O_15  and  C_19
REMARK    5  A    between atoms: C_20  and  C_23
REMARK                            x       y       z     vdW  Elec       q    Type
REMARK                         _______ _______ _______ _____ _____    ______ ____
ROOT
ATOM      1  C   UNL     1      31.958  -9.783 -20.106  0.00  0.00    +0.212 C 
ATOM      2  C   UNL     1      31.217 -10.078 -18.792  0.00  0.00    +0.054 C 
ENDROOT
BRANCH   1   5
ATOM      3  O   UNL     1      32.727  -6.297 -20.157  0.00  0.00    -0.354 OA
ATOM      4  N   UNL     1      32.817  -7.566 -19.601  0.00  0.00    -0.078 NA
ATOM      5  C   UNL     1      32.087  -8.347 -20.401  0.00  0.00    +0.140 C 
ATOM      6  C   UNL     1      31.517  -7.633 -21.470  0.00  0.00    +0.062 C 
ATOM      7  C   UNL     1      31.952  -6.356 -21.266  0.00  0.00    +0.177 C 
BRANCH   7   9
ATOM      8 CL   UNL     1      32.948  -3.415 -25.385  0.00  0.00    -0.082 Cl
ATOM      9  C   UNL     1      31.765  -5.104 -21.957  0.00  0.00    +0.038 C 
ATOM     10  C   UNL     1      32.375  -4.891 -23.194  0.00  0.00    +0.015 C 
ATOM     11  C   UNL     1      30.975  -4.105 -21.389  0.00  0.00    +0.003 C 
ATOM     12  C   UNL     1      32.195  -3.680 -23.861  0.00  0.00    +0.058 C 
ATOM     13  C   UNL     1      30.795  -2.893 -22.055  0.00  0.00    +0.001 C 
ATOM     14  C   UNL     1      31.405  -2.681 -23.292  0.00  0.00    +0.011 C 
ENDBRANCH   7   9
ENDBRANCH   1   5
BRANCH   1  15
ATOM     15  O   UNL     1      31.250 -10.519 -21.126  0.00  0.00    -0.444 OA
BRANCH  15  19
ATOM     16  N   UNL     1      32.346 -12.462 -21.932  0.00  0.00    -0.264 N 
ATOM     17  N   UNL     1      32.520 -10.618 -23.098  0.00  0.00    -0.092 NA
ATOM     18  N   UNL     1      33.227 -11.612 -23.746  0.00  0.00    -0.126 NA
ATOM     19  C   UNL     1      32.022 -11.167 -22.040  0.00  0.00    +0.320 A 
ATOM     20  C   UNL     1      33.111 -12.708 -23.032  0.00  0.00    +0.169 A 
ATOM     21  C   UNL     1      31.972 -13.391 -20.892  0.00  0.00    +0.137 C 
BRANCH  20  23
ATOM     22  N   UNL     1      34.830 -16.475 -23.935  0.00  0.00    -0.242 NA
ATOM     23  C   UNL     1      33.697 -13.990 -23.340  0.00  0.00    +0.039 C 
ATOM     24  C   UNL     1      34.612 -14.567 -22.466  0.00  0.00    +0.024 C 
ATOM     25  C   UNL     1      33.348 -14.654 -24.510  0.00  0.00    +0.024 C 
ATOM     26  C   UNL     1      35.145 -15.800 -22.807  0.00  0.00    +0.099 C 
ATOM     27  C   UNL     1      33.938 -15.883 -24.760  0.00  0.00    +0.099 C 
ENDBRANCH  20  23
ENDBRANCH  15  19
ENDBRANCH   1  15
TORSDOF 5
ENDMDL
MODEL 9
REMARK VINA RESULT:      -9.5      7.291     11.338
REMARK  Name = 16041426
REMARK  5 active torsions:
REMARK  status: ('A' for Active; 'I' for Inactive)
REMARK    1  A    between atoms: C_1  and  C_5
REMARK    2  A    between atoms: C_1  and  O_15
REMARK    3  A    between atoms: C_7  and  C_9
REMARK    4  A    between atoms: O_15  and  C_19
REMARK    5  A    between atoms: C_20  and  C_23
REMARK                            x       y       z     vdW  Elec       q    Type
REMARK                         _______ _______ _______ _____ _____    ______ ____
ROOT
ATOM      1  C   UNL     1      36.031 -22.735 -15.071  0.00  0.00    +0.212 C 
ATOM      2  C   UNL     1      37.165 -23.379 -14.256  0.00  0.00    +0.054 C 
ENDROOT
BRANCH   1   5
ATOM      3  O   UNL     1      33.129 -24.000 -13.419  0.00  0.00    -0.354 OA
ATOM      4  N   UNL     1      34.474 -23.653 -13.445  0.00  0.00    -0.078 NA
ATOM      5  C   UNL     1      34.690 -23.198 -14.683  0.00  0.00    +0.140 C 
ATOM      6  C   UNL     1      33.528 -23.234 -15.474  0.00  0.00    +0.062 C 
ATOM      7  C   UNL     1      32.585 -23.744 -14.632  0.00  0.00    +0.177 C 
BRANCH   7   9
ATOM      8 CL   UNL     1      27.968 -22.533 -16.589  0.00  0.00    -0.082 Cl
ATOM      9  C   UNL     1      31.182 -24.057 -14.759  0.00  0.00    +0.038 C 
ATOM     10  C   UNL     1      30.350 -23.239 -15.525  0.00  0.00    +0.015 C 
ATOM     11  C   UNL     1      30.656 -25.175 -14.112  0.00  0.00    +0.003 C 
ATOM     12  C   UNL     1      28.995 -23.541 -15.646  0.00  0.00    +0.058 C 
ATOM     13  C   UNL     1      29.300 -25.477 -14.233  0.00  0.00    +0.001 C 
ATOM     14  C   UNL     1      28.469 -24.660 -15.000  0.00  0.00    +0.011 C 
ENDBRANCH   7   9
ENDBRANCH   1   5
BRANCH   1  15
ATOM     15  O   UNL     1      36.351 -22.991 -16.454  0.00  0.00    -0.444 OA
BRANCH  15  19
ATOM     16  N   UNL     1      35.958 -21.707 -18.410  0.00  0.00    -0.264 N 
ATOM     17  N   UNL     1      37.363 -20.926 -16.925  0.00  0.00    -0.092 NA
ATOM     18  N   UNL     1      37.287 -20.026 -17.970  0.00  0.00    -0.126 NA
ATOM     19  C   UNL     1      36.566 -21.894 -17.231  0.00  0.00    +0.320 A 
ATOM     20  C   UNL     1      36.441 -20.512 -18.849  0.00  0.00    +0.169 A 
ATOM     21  C   UNL     1      35.007 -22.570 -19.069  0.00  0.00    +0.137 C 
BRANCH  20  23
ATOM     22  N   UNL     1      35.336 -18.708 -22.521  0.00  0.00    -0.242 NA
ATOM     23  C   UNL     1      36.064 -19.897 -20.099  0.00  0.00    +0.039 C 
ATOM     24  C   UNL     1      36.967 -19.085 -20.777  0.00  0.00    +0.024 C 
ATOM     25  C   UNL     1      34.799 -20.116 -20.631  0.00  0.00    +0.024 C 
ATOM     26  C   UNL     1      36.557 -18.518 -21.973  0.00  0.00    +0.099 C 
ATOM     27  C   UNL     1      34.486 -19.504 -21.834  0.00  0.00    +0.099 C 
ENDBRANCH  20  23
ENDBRANCH  15  19
ENDBRANCH   1  15
TORSDOF 5
ENDMDL
