MODEL 1
REMARK VINA RESULT:     -11.6      0.000      0.000
REMARK  Name = 23650961
REMARK  5 active torsions:
REMARK  status: ('A' for Active; 'I' for Inactive)
REMARK    1  A    between atoms: N_1  and  C_23
REMARK    2  A    between atoms: C_5  and  C_12
REMARK    3  A    between atoms: C_23  and  C_24
REMARK    4  A    between atoms: C_24  and  C_25
REMARK    5  A    between atoms: C_25  and  C_27
REMARK                            x       y       z     vdW  Elec       q    Type
REMARK                         _______ _______ _______ _____ _____    ______ ____
ROOT
ATOM      1  N   UNL     1      35.871 -18.617 -22.200  0.00  0.00    -0.268 N 
ATOM      2  N   UNL     1      34.872 -16.947 -23.512  0.00  0.00    -0.342 NA
ATOM      3  N   UNL     1      35.301 -16.589 -21.168  0.00  0.00    -0.170 NA
ATOM      4  C   UNL     1      35.331 -17.344 -22.296  0.00  0.00    +0.144 C 
ATOM      5  C   UNL     1      34.274 -14.854 -22.485  0.00  0.00    +0.061 C 
ATOM      6  C   UNL     1      34.353 -15.704 -23.570  0.00  0.00    +0.123 C 
ATOM      7  C   UNL     1      34.768 -15.355 -21.297  0.00  0.00    +0.113 C 
ATOM      8  C   UNL     1      33.852 -15.279 -24.912  0.00  0.00    +0.067 C 
ATOM      9  H   UNL     1      35.898 -19.172 -23.012  0.00  0.00    +0.159 HD
ENDROOT
BRANCH   5  12
ATOM     10  N   UNL     1      34.246 -12.561 -23.367  0.00  0.00    -0.314 N 
ATOM     11  N   UNL     1      32.672 -13.088 -21.889  0.00  0.00    -0.315 N 
ATOM     12  C   UNL     1      33.717 -13.530 -22.557  0.00  0.00    +0.171 C 
ATOM     13  C   UNL     1      33.496 -11.424 -23.209  0.00  0.00    +0.059 C 
ATOM     14  C   UNL     1      32.520 -11.779 -22.283  0.00  0.00    +0.055 C 
ATOM     15  C   UNL     1      31.567 -10.823 -21.891  0.00  0.00    -0.008 C 
ATOM     16  C   UNL     1      33.584 -10.154 -23.782  0.00  0.00    +0.011 C 
ATOM     17  C   UNL     1      32.628  -9.215 -23.381  0.00  0.00    -0.021 C 
ATOM     18  C   UNL     1      31.637  -9.541 -22.453  0.00  0.00    -0.007 C 
ATOM     19  C   UNL     1      30.488 -11.122 -20.903  0.00  0.00    +0.032 C 
ATOM     20  C   UNL     1      32.669  -7.838 -23.958  0.00  0.00    +0.031 C 
ATOM     21  H   UNL     1      35.027 -12.662 -23.957  0.00  0.00    +0.149 HD
ATOM     22  H   UNL     1      32.119 -13.588 -21.245  0.00  0.00    +0.149 HD
ENDBRANCH   5  12
BRANCH   1  23
ATOM     23  C   UNL     1      36.397 -19.174 -20.977  0.00  0.00    +0.098 C 
BRANCH  23  24
ATOM     24  C   UNL     1      35.407 -20.160 -20.362  0.00  0.00    +0.022 C 
BRANCH  24  25
ATOM     25  C   UNL     1      36.104 -21.287 -19.599  0.00  0.00    +0.002 C 
BRANCH  25  27
ATOM     26  N   UNL     1      34.669 -23.458 -16.152  0.00  0.00    +0.385 N 
ATOM     27  C   UNL     1      35.402 -21.574 -18.273  0.00  0.00    -0.004 C 
ATOM     28  C   UNL     1      36.402 -22.048 -17.214  0.00  0.00    -0.023 C 
ATOM     29  C   UNL     1      34.298 -22.621 -18.449  0.00  0.00    -0.023 C 
ATOM     30  C   UNL     1      35.694 -22.433 -15.914  0.00  0.00    -0.077 C 
ATOM     31  C   UNL     1      33.659 -22.986 -17.108  0.00  0.00    -0.077 C 
ATOM     32  C   UNL     1      34.036 -23.853 -14.893  0.00  0.00    -0.101 C 
ATOM     33  H   UNL     1      35.128 -24.275 -16.557  0.00  0.00    -0.080 HD
ENDBRANCH  25  27
ENDBRANCH  24  25
ENDBRANCH  23  24
ENDBRANCH   1  23
TORSDOF 5
ENDMDL
MODEL 2
REMARK VINA RESULT:     -11.4      1.266      2.075
REMARK  Name = 23650961
REMARK  5 active torsions:
REMARK  status: ('A' for Active; 'I' for Inactive)
REMARK    1  A    between atoms: N_1  and  C_23
REMARK    2  A    between atoms: C_5  and  C_12
REMARK    3  A    between atoms: C_23  and  C_24
REMARK    4  A    between atoms: C_24  and  C_25
REMARK    5  A    between atoms: C_25  and  C_27
REMARK                            x       y       z     vdW  Elec       q    Type
REMARK                         _______ _______ _______ _____ _____    ______ ____
ROOT
ATOM      1  N   UNL     1      35.148 -17.895 -23.218  0.00  0.00    -0.268 N 
ATOM      2  N   UNL     1      34.132 -16.085 -24.312  0.00  0.00    -0.342 NA
ATOM      3  N   UNL     1      35.126 -15.814 -22.134  0.00  0.00    -0.170 NA
ATOM      4  C   UNL     1      34.791 -16.556 -23.221  0.00  0.00    +0.144 C 
ATOM      5  C   UNL     1      34.091 -13.936 -23.228  0.00  0.00    +0.061 C 
ATOM      6  C   UNL     1      33.799 -14.778 -24.282  0.00  0.00    +0.123 C 
ATOM      7  C   UNL     1      34.762 -14.515 -22.170  0.00  0.00    +0.113 C 
ATOM      8  C   UNL     1      33.075 -14.272 -25.488  0.00  0.00    +0.067 C 
ATOM      9  H   UNL     1      34.910 -18.441 -24.001  0.00  0.00    +0.159 HD
ENDROOT
BRANCH   5  12
ATOM     10  N   UNL     1      32.458 -12.126 -22.922  0.00  0.00    -0.314 N 
ATOM     11  N   UNL     1      34.535 -11.529 -23.440  0.00  0.00    -0.315 N 
ATOM     12  C   UNL     1      33.730 -12.544 -23.205  0.00  0.00    +0.171 C 
ATOM     13  C   UNL     1      32.442 -10.756 -22.979  0.00  0.00    +0.059 C 
ATOM     14  C   UNL     1      33.750 -10.407 -23.304  0.00  0.00    +0.055 C 
ATOM     15  C   UNL     1      34.083  -9.049 -23.443  0.00  0.00    -0.008 C 
ATOM     16  C   UNL     1      31.426  -9.819 -22.780  0.00  0.00    +0.011 C 
ATOM     17  C   UNL     1      31.774  -8.472 -22.923  0.00  0.00    -0.021 C 
ATOM     18  C   UNL     1      33.078  -8.091 -23.248  0.00  0.00    -0.007 C 
ATOM     19  C   UNL     1      35.461  -8.591 -23.790  0.00  0.00    +0.032 C 
ATOM     20  C   UNL     1      30.731  -7.422 -22.722  0.00  0.00    +0.031 C 
ATOM     21  H   UNL     1      31.691 -12.705 -22.715  0.00  0.00    +0.149 HD
ATOM     22  H   UNL     1      35.493 -11.564 -23.666  0.00  0.00    +0.149 HD
ENDBRANCH   5  12
BRANCH   1  23
ATOM     23  C   UNL     1      35.849 -18.534 -22.131  0.00  0.00    +0.098 C 
BRANCH  23  24
ATOM     24  C   UNL     1      34.868 -19.053 -21.083  0.00  0.00    +0.022 C 
BRANCH  24  25
ATOM     25  C   UNL     1      34.983 -20.563 -20.871  0.00  0.00    +0.002 C 
BRANCH  25  27
ATOM     26  N   UNL     1      34.175 -23.009 -17.404  0.00  0.00    +0.385 N 
ATOM     27  C   UNL     1      34.654 -20.945 -19.430  0.00  0.00    -0.004 C 
ATOM     28  C   UNL     1      35.789 -21.764 -18.806  0.00  0.00    -0.023 C 
ATOM     29  C   UNL     1      33.344 -21.736 -19.355  0.00  0.00    -0.023 C 
ATOM     30  C   UNL     1      35.425 -22.237 -17.398  0.00  0.00    -0.077 C 
ATOM     31  C   UNL     1      33.061 -22.209 -17.929  0.00  0.00    -0.077 C 
ATOM     32  C   UNL     1      33.867 -23.497 -16.060  0.00  0.00    -0.101 C 
ATOM     33  H   UNL     1      34.304 -23.811 -18.022  0.00  0.00    -0.080 HD
ENDBRANCH  25  27
ENDBRANCH  24  25
ENDBRANCH  23  24
ENDBRANCH   1  23
TORSDOF 5
ENDMDL
MODEL 3
REMARK VINA RESULT:     -11.4      2.609     12.508
REMARK  Name = 23650961
REMARK  5 active torsions:
REMARK  status: ('A' for Active; 'I' for Inactive)
REMARK    1  A    between atoms: N_1  and  C_23
REMARK    2  A    between atoms: C_5  and  C_12
REMARK    3  A    between atoms: C_23  and  C_24
REMARK    4  A    between atoms: C_24  and  C_25
REMARK    5  A    between atoms: C_25  and  C_27
REMARK                            x       y       z     vdW  Elec       q    Type
REMARK                         _______ _______ _______ _____ _____    ______ ____
ROOT
ATOM      1  N   UNL     1      35.133 -20.500 -20.306  0.00  0.00    -0.268 N 
ATOM      2  N   UNL     1      34.365 -21.971 -18.646  0.00  0.00    -0.342 NA
ATOM      3  N   UNL     1      36.505 -20.883 -18.442  0.00  0.00    -0.170 NA
ATOM      4  C   UNL     1      35.341 -21.138 -19.093  0.00  0.00    +0.144 C 
ATOM      5  C   UNL     1      35.749 -22.388 -16.721  0.00  0.00    +0.061 C 
ATOM      6  C   UNL     1      34.600 -22.576 -17.464  0.00  0.00    +0.123 C 
ATOM      7  C   UNL     1      36.676 -21.522 -17.265  0.00  0.00    +0.113 C 
ATOM      8  C   UNL     1      33.519 -23.489 -16.983  0.00  0.00    +0.067 C 
ATOM      9  H   UNL     1      34.292 -20.677 -20.785  0.00  0.00    +0.159 HD
ENDROOT
BRANCH   5  12
ATOM     10  N   UNL     1      35.262 -22.747 -14.340  0.00  0.00    -0.314 N 
ATOM     11  N   UNL     1      36.900 -23.961 -15.225  0.00  0.00    -0.315 N 
ATOM     12  C   UNL     1      35.991 -23.038 -15.461  0.00  0.00    +0.171 C 
ATOM     13  C   UNL     1      35.732 -23.529 -13.317  0.00  0.00    +0.059 C 
ATOM     14  C   UNL     1      36.753 -24.278 -13.894  0.00  0.00    +0.055 C 
ATOM     15  C   UNL     1      37.459 -25.200 -13.103  0.00  0.00    -0.008 C 
ATOM     16  C   UNL     1      35.362 -23.643 -11.975  0.00  0.00    +0.011 C 
ATOM     17  C   UNL     1      36.075 -24.565 -11.202  0.00  0.00    -0.021 C 
ATOM     18  C   UNL     1      37.105 -25.331 -11.753  0.00  0.00    -0.007 C 
ATOM     19  C   UNL     1      38.568 -26.041 -13.645  0.00  0.00    +0.032 C 
ATOM     20  C   UNL     1      35.726 -24.734  -9.760  0.00  0.00    +0.031 C 
ATOM     21  H   UNL     1      34.531 -22.091 -14.279  0.00  0.00    +0.149 HD
ATOM     22  H   UNL     1      37.546 -24.342 -15.863  0.00  0.00    +0.149 HD
ENDBRANCH   5  12
BRANCH   1  23
ATOM     23  C   UNL     1      36.078 -19.589 -20.905  0.00  0.00    +0.098 C 
BRANCH  23  24
ATOM     24  C   UNL     1      35.379 -18.321 -21.386  0.00  0.00    +0.022 C 
BRANCH  24  25
ATOM     25  C   UNL     1      35.294 -18.244 -22.911  0.00  0.00    +0.002 C 
BRANCH  25  27
ATOM     26  N   UNL     1      33.550 -14.366 -23.670  0.00  0.00    +0.385 N 
ATOM     27  C   UNL     1      35.160 -16.799 -23.384  0.00  0.00    -0.004 C 
ATOM     28  C   UNL     1      34.874 -15.859 -22.209  0.00  0.00    -0.023 C 
ATOM     29  C   UNL     1      34.053 -16.663 -24.435  0.00  0.00    -0.023 C 
ATOM     30  C   UNL     1      34.639 -14.425 -22.686  0.00  0.00    -0.077 C 
ATOM     31  C   UNL     1      33.846 -15.203 -24.840  0.00  0.00    -0.077 C 
ATOM     32  C   UNL     1      33.302 -12.983 -24.079  0.00  0.00    -0.101 C 
ATOM     33  H   UNL     1      32.706 -14.732 -23.227  0.00  0.00    -0.080 HD
ENDBRANCH  25  27
ENDBRANCH  24  25
ENDBRANCH  23  24
ENDBRANCH   1  23
TORSDOF 5
ENDMDL
MODEL 4
REMARK VINA RESULT:     -11.2      1.866     11.066
REMARK  Name = 23650961
REMARK  5 active torsions:
REMARK  status: ('A' for Active; 'I' for Inactive)
REMARK    1  A    between atoms: N_1  and  C_23
REMARK    2  A    between atoms: C_5  and  C_12
REMARK    3  A    between atoms: C_23  and  C_24
REMARK    4  A    between atoms: C_24  and  C_25
REMARK    5  A    between atoms: C_25  and  C_27
REMARK                            x       y       z     vdW  Elec       q    Type
REMARK                         _______ _______ _______ _____ _____    ______ ____
ROOT
ATOM      1  N   UNL     1      35.436 -19.267 -22.198  0.00  0.00    -0.268 N 
ATOM      2  N   UNL     1      35.909 -20.468 -20.238  0.00  0.00    -0.342 NA
ATOM      3  N   UNL     1      33.638 -20.150 -20.976  0.00  0.00    -0.170 NA
ATOM      4  C   UNL     1      34.980 -19.984 -21.103  0.00  0.00    +0.144 C 
ATOM      5  C   UNL     1      34.088 -21.386 -18.960  0.00  0.00    +0.061 C 
ATOM      6  C   UNL     1      35.431 -21.160 -19.183  0.00  0.00    +0.123 C 
ATOM      7  C   UNL     1      33.228 -20.852 -19.898  0.00  0.00    +0.113 C 
ATOM      8  C   UNL     1      36.463 -21.686 -18.239  0.00  0.00    +0.067 C 
ATOM      9  H   UNL     1      36.407 -19.142 -22.298  0.00  0.00    +0.159 HD
ENDROOT
BRANCH   5  12
ATOM     10  N   UNL     1      32.249 -22.320 -17.624  0.00  0.00    -0.314 N 
ATOM     11  N   UNL     1      34.314 -22.690 -16.890  0.00  0.00    -0.315 N 
ATOM     12  C   UNL     1      33.588 -22.125 -17.831  0.00  0.00    +0.171 C 
ATOM     13  C   UNL     1      32.103 -23.056 -16.476  0.00  0.00    +0.059 C 
ATOM     14  C   UNL     1      33.405 -23.275 -16.037  0.00  0.00    +0.055 C 
ATOM     15  C   UNL     1      33.616 -24.013 -14.860  0.00  0.00    -0.008 C 
ATOM     16  C   UNL     1      30.976 -23.535 -15.805  0.00  0.00    +0.011 C 
ATOM     17  C   UNL     1      31.205 -24.267 -14.635  0.00  0.00    -0.021 C 
ATOM     18  C   UNL     1      32.500 -24.503 -14.169  0.00  0.00    -0.007 C 
ATOM     19  C   UNL     1      34.981 -24.292 -14.321  0.00  0.00    +0.032 C 
ATOM     20  C   UNL     1      30.040 -24.807 -13.872  0.00  0.00    +0.031 C 
ATOM     21  H   UNL     1      31.520 -21.990 -18.197  0.00  0.00    +0.149 HD
ATOM     22  H   UNL     1      35.296 -22.694 -16.812  0.00  0.00    +0.149 HD
ENDBRANCH   5  12
BRANCH   1  23
ATOM     23  C   UNL     1      34.568 -18.694 -23.198  0.00  0.00    +0.098 C 
BRANCH  23  24
ATOM     24  C   UNL     1      34.945 -17.242 -23.476  0.00  0.00    +0.022 C 
BRANCH  24  25
ATOM     25  C   UNL     1      35.328 -16.485 -22.203  0.00  0.00    +0.002 C 
BRANCH  25  27
ATOM     26  N   UNL     1      32.441 -13.273 -22.120  0.00  0.00    +0.385 N 
ATOM     27  C   UNL     1      34.756 -15.069 -22.209  0.00  0.00    -0.004 C 
ATOM     28  C   UNL     1      33.988 -14.781 -20.915  0.00  0.00    -0.023 C 
ATOM     29  C   UNL     1      33.837 -14.852 -23.415  0.00  0.00    -0.023 C 
ATOM     30  C   UNL     1      33.327 -13.403 -20.955  0.00  0.00    -0.077 C 
ATOM     31  C   UNL     1      33.181 -13.470 -23.373  0.00  0.00    -0.077 C 
ATOM     32  C   UNL     1      31.777 -11.970 -22.117  0.00  0.00    -0.101 C 
ATOM     33  H   UNL     1      31.730 -14.002 -22.056  0.00  0.00    -0.080 HD
ENDBRANCH  25  27
ENDBRANCH  24  25
ENDBRANCH  23  24
ENDBRANCH   1  23
TORSDOF 5
ENDMDL
MODEL 5
REMARK VINA RESULT:     -11.1      2.257      5.032
REMARK  Name = 23650961
REMARK  5 active torsions:
REMARK  status: ('A' for Active; 'I' for Inactive)
REMARK    1  A    between atoms: N_1  and  C_23
REMARK    2  A    between atoms: C_5  and  C_12
REMARK    3  A    between atoms: C_23  and  C_24
REMARK    4  A    between atoms: C_24  and  C_25
REMARK    5  A    between atoms: C_25  and  C_27
REMARK                            x       y       z     vdW  Elec       q    Type
REMARK                         _______ _______ _______ _____ _____    ______ ____
ROOT
ATOM      1  N   UNL     1      33.567 -14.606 -22.736  0.00  0.00    -0.268 N 
ATOM      2  N   UNL     1      32.200 -12.817 -22.074  0.00  0.00    -0.342 NA
ATOM      3  N   UNL     1      34.069 -12.464 -23.554  0.00  0.00    -0.170 NA
ATOM      4  C   UNL     1      33.269 -13.253 -22.790  0.00  0.00    +0.144 C 
ATOM      5  C   UNL     1      32.687 -10.606 -22.894  0.00  0.00    +0.061 C 
ATOM      6  C   UNL     1      31.939 -11.496 -22.148  0.00  0.00    +0.123 C 
ATOM      7  C   UNL     1      33.751 -11.153 -23.583  0.00  0.00    +0.113 C 
ATOM      8  C   UNL     1      30.761 -11.028 -21.357  0.00  0.00    +0.067 C 
ATOM      9  H   UNL     1      32.993 -15.185 -22.186  0.00  0.00    +0.159 HD
ENDROOT
BRANCH   5  12
ATOM     10  N   UNL     1      31.867  -8.621 -24.086  0.00  0.00    -0.314 N 
ATOM     11  N   UNL     1      32.600  -8.316 -22.010  0.00  0.00    -0.315 N 
ATOM     12  C   UNL     1      32.401  -9.199 -22.966  0.00  0.00    +0.171 C 
ATOM     13  C   UNL     1      31.715  -7.281 -23.837  0.00  0.00    +0.059 C 
ATOM     14  C   UNL     1      32.178  -7.115 -22.535  0.00  0.00    +0.055 C 
ATOM     15  C   UNL     1      32.160  -5.834 -21.959  0.00  0.00    -0.008 C 
ATOM     16  C   UNL     1      31.225  -6.231 -24.616  0.00  0.00    +0.011 C 
ATOM     17  C   UNL     1      31.215  -4.962 -24.027  0.00  0.00    -0.021 C 
ATOM     18  C   UNL     1      31.673  -4.764 -22.723  0.00  0.00    -0.007 C 
ATOM     19  C   UNL     1      32.640  -5.571 -20.569  0.00  0.00    +0.032 C 
ATOM     20  C   UNL     1      30.701  -3.798 -24.809  0.00  0.00    +0.031 C 
ATOM     21  H   UNL     1      31.635  -9.084 -24.922  0.00  0.00    +0.149 HD
ATOM     22  H   UNL     1      32.971  -8.478 -21.112  0.00  0.00    +0.149 HD
ENDBRANCH   5  12
BRANCH   1  23
ATOM     23  C   UNL     1      34.670 -15.212 -23.443  0.00  0.00    +0.098 C 
BRANCH  23  24
ATOM     24  C   UNL     1      35.273 -16.353 -22.629  0.00  0.00    +0.022 C 
BRANCH  24  25
ATOM     25  C   UNL     1      35.025 -17.720 -23.268  0.00  0.00    +0.002 C 
BRANCH  25  27
ATOM     26  N   UNL     1      35.964 -20.026 -19.737  0.00  0.00    +0.385 N 
ATOM     27  C   UNL     1      35.570 -18.846 -22.392  0.00  0.00    -0.004 C 
ATOM     28  C   UNL     1      34.440 -19.542 -21.625  0.00  0.00    -0.023 C 
ATOM     29  C   UNL     1      36.617 -18.320 -21.406  0.00  0.00    -0.023 C 
ATOM     30  C   UNL     1      34.987 -20.604 -20.670  0.00  0.00    -0.077 C 
ATOM     31  C   UNL     1      37.092 -19.423 -20.458  0.00  0.00    -0.077 C 
ATOM     32  C   UNL     1      36.439 -21.041 -18.798  0.00  0.00    -0.101 C 
ATOM     33  H   UNL     1      35.496 -19.287 -19.211  0.00  0.00    -0.080 HD
ENDBRANCH  25  27
ENDBRANCH  24  25
ENDBRANCH  23  24
ENDBRANCH   1  23
TORSDOF 5
ENDMDL
MODEL 6
REMARK VINA RESULT:     -10.9      2.013     11.848
REMARK  Name = 23650961
REMARK  5 active torsions:
REMARK  status: ('A' for Active; 'I' for Inactive)
REMARK    1  A    between atoms: N_1  and  C_23
REMARK    2  A    between atoms: C_5  and  C_12
REMARK    3  A    between atoms: C_23  and  C_24
REMARK    4  A    between atoms: C_24  and  C_25
REMARK    5  A    between atoms: C_25  and  C_27
REMARK                            x       y       z     vdW  Elec       q    Type
REMARK                         _______ _______ _______ _____ _____    ______ ____
ROOT
ATOM      1  N   UNL     1      34.945 -19.632 -21.514  0.00  0.00    -0.268 N 
ATOM      2  N   UNL     1      34.102 -21.048 -19.843  0.00  0.00    -0.342 NA
ATOM      3  N   UNL     1      36.380 -20.267 -19.770  0.00  0.00    -0.170 NA
ATOM      4  C   UNL     1      35.149 -20.337 -20.339  0.00  0.00    +0.144 C 
ATOM      5  C   UNL     1      35.549 -21.720 -18.040  0.00  0.00    +0.061 C 
ATOM      6  C   UNL     1      34.335 -21.723 -18.699  0.00  0.00    +0.123 C 
ATOM      7  C   UNL     1      36.545 -20.967 -18.628  0.00  0.00    +0.113 C 
ATOM      8  C   UNL     1      33.176 -22.500 -18.164  0.00  0.00    +0.067 C 
ATOM      9  H   UNL     1      34.055 -19.676 -21.933  0.00  0.00    +0.159 HD
ENDROOT
BRANCH   5  12
ATOM     10  N   UNL     1      37.052 -22.710 -16.368  0.00  0.00    -0.314 N 
ATOM     11  N   UNL     1      34.869 -22.926 -16.011  0.00  0.00    -0.315 N 
ATOM     12  C   UNL     1      35.788 -22.444 -16.821  0.00  0.00    +0.171 C 
ATOM     13  C   UNL     1      36.940 -23.408 -15.193  0.00  0.00    +0.059 C 
ATOM     14  C   UNL     1      35.569 -23.530 -14.991  0.00  0.00    +0.055 C 
ATOM     15  C   UNL     1      35.101 -24.207 -13.852  0.00  0.00    -0.008 C 
ATOM     16  C   UNL     1      37.894 -23.928 -14.315  0.00  0.00    +0.011 C 
ATOM     17  C   UNL     1      37.411 -24.599 -13.187  0.00  0.00    -0.021 C 
ATOM     18  C   UNL     1      36.041 -24.737 -12.957  0.00  0.00    -0.007 C 
ATOM     19  C   UNL     1      33.646 -24.382 -13.562  0.00  0.00    +0.032 C 
ATOM     20  C   UNL     1      38.382 -25.176 -12.210  0.00  0.00    +0.031 C 
ATOM     21  H   UNL     1      37.892 -22.447 -16.808  0.00  0.00    +0.149 HD
ATOM     22  H   UNL     1      33.891 -22.868 -16.112  0.00  0.00    +0.149 HD
ENDBRANCH   5  12
BRANCH   1  23
ATOM     23  C   UNL     1      35.961 -18.835 -22.157  0.00  0.00    +0.098 C 
BRANCH  23  24
ATOM     24  C   UNL     1      35.568 -17.360 -22.168  0.00  0.00    +0.022 C 
BRANCH  24  25
ATOM     25  C   UNL     1      34.907 -16.941 -23.482  0.00  0.00    +0.002 C 
BRANCH  25  27
ATOM     26  N   UNL     1      33.091 -13.038 -23.135  0.00  0.00    +0.385 N 
ATOM     27  C   UNL     1      34.738 -15.426 -23.556  0.00  0.00    -0.004 C 
ATOM     28  C   UNL     1      34.493 -14.831 -22.166  0.00  0.00    -0.023 C 
ATOM     29  C   UNL     1      33.586 -15.046 -24.492  0.00  0.00    -0.023 C 
ATOM     30  C   UNL     1      34.222 -13.327 -22.243  0.00  0.00    -0.077 C 
ATOM     31  C   UNL     1      33.345 -13.535 -24.493  0.00  0.00    -0.077 C 
ATOM     32  C   UNL     1      32.811 -11.602 -23.159  0.00  0.00    -0.101 C 
ATOM     33  H   UNL     1      32.271 -13.524 -22.770  0.00  0.00    -0.080 HD
ENDBRANCH  25  27
ENDBRANCH  24  25
ENDBRANCH  23  24
ENDBRANCH   1  23
TORSDOF 5
ENDMDL
MODEL 7
REMARK VINA RESULT:     -10.8      1.383      1.919
REMARK  Name = 23650961
REMARK  5 active torsions:
REMARK  status: ('A' for Active; 'I' for Inactive)
REMARK    1  A    between atoms: N_1  and  C_23
REMARK    2  A    between atoms: C_5  and  C_12
REMARK    3  A    between atoms: C_23  and  C_24
REMARK    4  A    between atoms: C_24  and  C_25
REMARK    5  A    between atoms: C_25  and  C_27
REMARK                            x       y       z     vdW  Elec       q    Type
REMARK                         _______ _______ _______ _____ _____    ______ ____
ROOT
ATOM      1  N   UNL     1      34.606 -18.362 -24.476  0.00  0.00    -0.268 N 
ATOM      2  N   UNL     1      33.664 -16.313 -25.127  0.00  0.00    -0.342 NA
ATOM      3  N   UNL     1      34.896 -16.509 -23.066  0.00  0.00    -0.170 NA
ATOM      4  C   UNL     1      34.382 -17.019 -24.214  0.00  0.00    +0.144 C 
ATOM      5  C   UNL     1      33.942 -14.392 -23.703  0.00  0.00    +0.061 C 
ATOM      6  C   UNL     1      33.464 -15.010 -24.841  0.00  0.00    +0.123 C 
ATOM      7  C   UNL     1      34.658 -15.200 -22.842  0.00  0.00    +0.113 C 
ATOM      8  C   UNL     1      32.674 -14.245 -25.853  0.00  0.00    +0.067 C 
ATOM      9  H   UNL     1      34.238 -18.740 -25.307  0.00  0.00    +0.159 HD
ENDROOT
BRANCH   5  12
ATOM     10  N   UNL     1      34.537 -12.016 -23.896  0.00  0.00    -0.314 N 
ATOM     11  N   UNL     1      32.754 -12.510 -22.663  0.00  0.00    -0.315 N 
ATOM     12  C   UNL     1      33.722 -13.002 -23.407  0.00  0.00    +0.171 C 
ATOM     13  C   UNL     1      34.064 -10.814 -23.437  0.00  0.00    +0.059 C 
ATOM     14  C   UNL     1      32.951 -11.147 -22.671  0.00  0.00    +0.055 C 
ATOM     15  C   UNL     1      32.219 -10.125 -22.044  0.00  0.00    -0.008 C 
ATOM     16  C   UNL     1      34.501  -9.501 -23.622  0.00  0.00    +0.011 C 
ATOM     17  C   UNL     1      33.761  -8.496 -22.991  0.00  0.00    -0.021 C 
ATOM     18  C   UNL     1      32.640  -8.800 -22.215  0.00  0.00    -0.007 C 
ATOM     19  C   UNL     1      31.014 -10.399 -21.205  0.00  0.00    +0.032 C 
ATOM     20  C   UNL     1      34.178  -7.071 -23.152  0.00  0.00    +0.031 C 
ATOM     21  H   UNL     1      35.322 -12.148 -24.473  0.00  0.00    +0.149 HD
ATOM     22  H   UNL     1      32.042 -13.008 -22.200  0.00  0.00    +0.149 HD
ENDBRANCH   5  12
BRANCH   1  23
ATOM     23  C   UNL     1      35.349 -19.235 -23.600  0.00  0.00    +0.098 C 
BRANCH  23  24
ATOM     24  C   UNL     1      34.689 -19.314 -22.227  0.00  0.00    +0.022 C 
BRANCH  24  25
ATOM     25  C   UNL     1      35.708 -19.471 -21.097  0.00  0.00    +0.002 C 
BRANCH  25  27
ATOM     26  N   UNL     1      33.985 -22.533 -18.585  0.00  0.00    +0.385 N 
ATOM     27  C   UNL     1      35.082 -20.141 -19.877  0.00  0.00    -0.004 C 
ATOM     28  C   UNL     1      35.971 -21.275 -19.355  0.00  0.00    -0.023 C 
ATOM     29  C   UNL     1      33.687 -20.685 -20.202  0.00  0.00    -0.023 C 
ATOM     30  C   UNL     1      35.304 -22.017 -18.196  0.00  0.00    -0.077 C 
ATOM     31  C   UNL     1      33.096 -21.445 -19.014  0.00  0.00    -0.077 C 
ATOM     32  C   UNL     1      33.382 -23.283 -17.483  0.00  0.00    -0.101 C 
ATOM     33  H   UNL     1      34.115 -23.163 -19.377  0.00  0.00    -0.080 HD
ENDBRANCH  25  27
ENDBRANCH  24  25
ENDBRANCH  23  24
ENDBRANCH   1  23
TORSDOF 5
ENDMDL
MODEL 8
REMARK VINA RESULT:     -10.6      2.094     11.182
REMARK  Name = 23650961
REMARK  5 active torsions:
REMARK  status: ('A' for Active; 'I' for Inactive)
REMARK    1  A    between atoms: N_1  and  C_23
REMARK    2  A    between atoms: C_5  and  C_12
REMARK    3  A    between atoms: C_23  and  C_24
REMARK    4  A    between atoms: C_24  and  C_25
REMARK    5  A    between atoms: C_25  and  C_27
REMARK                            x       y       z     vdW  Elec       q    Type
REMARK                         _______ _______ _______ _____ _____    ______ ____
ROOT
ATOM      1  N   UNL     1      35.693 -19.603 -21.945  0.00  0.00    -0.268 N 
ATOM      2  N   UNL     1      35.838 -20.812 -19.939  0.00  0.00    -0.342 NA
ATOM      3  N   UNL     1      33.698 -20.252 -20.895  0.00  0.00    -0.170 NA
ATOM      4  C   UNL     1      35.056 -20.243 -20.893  0.00  0.00    +0.144 C 
ATOM      5  C   UNL     1      33.810 -21.493 -18.835  0.00  0.00    +0.061 C 
ATOM      6  C   UNL     1      35.186 -21.425 -18.930  0.00  0.00    +0.123 C 
ATOM      7  C   UNL     1      33.111 -20.883 -19.856  0.00  0.00    +0.113 C 
ATOM      8  C   UNL     1      36.057 -22.048 -17.887  0.00  0.00    +0.067 C 
ATOM      9  H   UNL     1      36.677 -19.591 -21.953  0.00  0.00    +0.159 HD
ENDROOT
BRANCH   5  12
ATOM     10  N   UNL     1      33.793 -22.849 -16.786  0.00  0.00    -0.314 N 
ATOM     11  N   UNL     1      31.823 -22.164 -17.555  0.00  0.00    -0.315 N 
ATOM     12  C   UNL     1      33.124 -22.149 -17.754  0.00  0.00    +0.171 C 
ATOM     13  C   UNL     1      32.864 -23.347 -15.909  0.00  0.00    +0.059 C 
ATOM     14  C   UNL     1      31.643 -22.906 -16.410  0.00  0.00    +0.055 C 
ATOM     15  C   UNL     1      30.460 -23.249 -15.733  0.00  0.00    -0.008 C 
ATOM     16  C   UNL     1      32.984 -24.123 -14.754  0.00  0.00    +0.011 C 
ATOM     17  C   UNL     1      31.797 -24.455 -14.093  0.00  0.00    -0.021 C 
ATOM     18  C   UNL     1      30.557 -24.027 -14.571  0.00  0.00    -0.007 C 
ATOM     19  C   UNL     1      29.110 -22.817 -16.205  0.00  0.00    +0.032 C 
ATOM     20  C   UNL     1      31.859 -25.282 -12.851  0.00  0.00    +0.031 C 
ATOM     21  H   UNL     1      34.767 -22.973 -16.730  0.00  0.00    +0.149 HD
ATOM     22  H   UNL     1      31.128 -21.737 -18.107  0.00  0.00    +0.149 HD
ENDBRANCH   5  12
BRANCH   1  23
ATOM     23  C   UNL     1      34.996 -18.955 -23.029  0.00  0.00    +0.098 C 
BRANCH  23  24
ATOM     24  C   UNL     1      35.132 -17.438 -22.931  0.00  0.00    +0.022 C 
BRANCH  24  25
ATOM     25  C   UNL     1      34.774 -16.733 -24.240  0.00  0.00    +0.002 C 
BRANCH  25  27
ATOM     26  N   UNL     1      33.011 -13.010 -22.941  0.00  0.00    +0.385 N 
ATOM     27  C   UNL     1      34.583 -15.233 -24.026  0.00  0.00    -0.004 C 
ATOM     28  C   UNL     1      34.568 -14.888 -22.533  0.00  0.00    -0.023 C 
ATOM     29  C   UNL     1      33.290 -14.743 -24.683  0.00  0.00    -0.023 C 
ATOM     30  C   UNL     1      34.277 -13.404 -22.307  0.00  0.00    -0.077 C 
ATOM     31  C   UNL     1      33.041 -13.263 -24.387  0.00  0.00    -0.077 C 
ATOM     32  C   UNL     1      32.721 -11.601 -22.674  0.00  0.00    -0.101 C 
ATOM     33  H   UNL     1      32.267 -13.579 -22.537  0.00  0.00    -0.080 HD
ENDBRANCH  25  27
ENDBRANCH  24  25
ENDBRANCH  23  24
ENDBRANCH   1  23
TORSDOF 5
ENDMDL
MODEL 9
REMARK VINA RESULT:     -10.6      1.790      3.882
REMARK  Name = 23650961
REMARK  5 active torsions:
REMARK  status: ('A' for Active; 'I' for Inactive)
REMARK    1  A    between atoms: N_1  and  C_23
REMARK    2  A    between atoms: C_5  and  C_12
REMARK    3  A    between atoms: C_23  and  C_24
REMARK    4  A    between atoms: C_24  and  C_25
REMARK    5  A    between atoms: C_25  and  C_27
REMARK                            x       y       z     vdW  Elec       q    Type
REMARK                         _______ _______ _______ _____ _____    ______ ____
ROOT
ATOM      1  N   UNL     1      34.207 -15.837 -22.441  0.00  0.00    -0.268 N 
ATOM      2  N   UNL     1      33.181 -13.860 -21.704  0.00  0.00    -0.342 NA
ATOM      3  N   UNL     1      34.484 -13.897 -23.731  0.00  0.00    -0.170 NA
ATOM      4  C   UNL     1      33.949 -14.489 -22.632  0.00  0.00    +0.144 C 
ATOM      5  C   UNL     1      33.446 -11.850 -23.003  0.00  0.00    +0.061 C 
ATOM      6  C   UNL     1      32.951 -12.548 -21.920  0.00  0.00    +0.123 C 
ATOM      7  C   UNL     1      34.214 -12.584 -23.885  0.00  0.00    +0.113 C 
ATOM      8  C   UNL     1      32.105 -11.868 -20.893  0.00  0.00    +0.067 C 
ATOM      9  H   UNL     1      33.824 -16.275 -21.648  0.00  0.00    +0.159 HD
ENDROOT
BRANCH   5  12
ATOM     10  N   UNL     1      31.932  -9.961 -23.421  0.00  0.00    -0.314 N 
ATOM     11  N   UNL     1      34.099  -9.496 -23.261  0.00  0.00    -0.315 N 
ATOM     12  C   UNL     1      33.195 -10.451 -23.223  0.00  0.00    +0.171 C 
ATOM     13  C   UNL     1      32.030  -8.604 -23.599  0.00  0.00    +0.059 C 
ATOM     14  C   UNL     1      33.392  -8.338 -23.494  0.00  0.00    +0.055 C 
ATOM     15  C   UNL     1      33.845  -7.015 -23.630  0.00  0.00    -0.008 C 
ATOM     16  C   UNL     1      31.072  -7.616 -23.834  0.00  0.00    +0.011 C 
ATOM     17  C   UNL     1      31.539  -6.305 -23.968  0.00  0.00    -0.021 C 
ATOM     18  C   UNL     1      32.900  -6.007 -23.867  0.00  0.00    -0.007 C 
ATOM     19  C   UNL     1      35.288  -6.646 -23.531  0.00  0.00    +0.032 C 
ATOM     20  C   UNL     1      30.563  -5.203 -24.220  0.00  0.00    +0.031 C 
ATOM     21  H   UNL     1      31.101 -10.488 -23.434  0.00  0.00    +0.149 HD
ATOM     22  H   UNL     1      35.073  -9.589 -23.147  0.00  0.00    +0.149 HD
ENDBRANCH   5  12
BRANCH   1  23
ATOM     23  C   UNL     1      35.005 -16.635 -23.341  0.00  0.00    +0.098 C 
BRANCH  23  24
ATOM     24  C   UNL     1      35.037 -18.093 -22.889  0.00  0.00    +0.022 C 
BRANCH  24  25
ATOM     25  C   UNL     1      36.122 -18.357 -21.845  0.00  0.00    +0.002 C 
BRANCH  25  27
ATOM     26  N   UNL     1      34.725 -21.675 -19.459  0.00  0.00    +0.385 N 
ATOM     27  C   UNL     1      35.567 -19.135 -20.655  0.00  0.00    -0.004 C 
ATOM     28  C   UNL     1      36.569 -20.187 -20.169  0.00  0.00    -0.023 C 
ATOM     29  C   UNL     1      34.238 -19.810 -21.009  0.00  0.00    -0.023 C 
ATOM     30  C   UNL     1      35.981 -21.038 -19.042  0.00  0.00    -0.077 C 
ATOM     31  C   UNL     1      33.727 -20.673 -19.854  0.00  0.00    -0.077 C 
ATOM     32  C   UNL     1      34.201 -22.525 -18.390  0.00  0.00    -0.101 C 
ATOM     33  H   UNL     1      34.924 -22.259 -20.273  0.00  0.00    -0.080 HD
ENDBRANCH  25  27
ENDBRANCH  24  25
ENDBRANCH  23  24
ENDBRANCH   1  23
TORSDOF 5
ENDMDL
