MODEL 1
REMARK VINA RESULT:     -11.3      0.000      0.000
REMARK  Name = 91617630
REMARK  6 active torsions:
REMARK  status: ('A' for Active; 'I' for Inactive)
REMARK    1  A    between atoms: N_4  and  C_10
REMARK    2  A    between atoms: N_5  and  C_16
REMARK    3  A    between atoms: C_7  and  C_24
REMARK    4  A    between atoms: N_23  and  C_26
REMARK    5  A    between atoms: C_26  and  C_28
REMARK    6  A    between atoms: C_28  and  O_29
REMARK                            x       y       z     vdW  Elec       q    Type
REMARK                         _______ _______ _______ _____ _____    ______ ____
ROOT
ATOM      1  O   UNL     1      36.192 -23.444 -16.015  0.00  0.00    -0.252 OA
ATOM      2  O   UNL     1      31.750 -22.642 -17.117  0.00  0.00    -0.273 OA
ATOM      3  O   UNL     1      32.767 -24.572 -13.081  0.00  0.00    -0.273 OA
ATOM      4  N   UNL     1      33.997 -22.932 -16.573  0.00  0.00    -0.215 N 
ATOM      5  N   UNL     1      34.524 -23.945 -14.477  0.00  0.00    -0.215 N 
ATOM      6  C   UNL     1      34.996 -23.424 -15.703  0.00  0.00    +0.319 C 
ATOM      7  C   UNL     1      32.301 -22.994 -14.817  0.00  0.00    +0.229 C 
ATOM      8  C   UNL     1      32.629 -22.857 -16.283  0.00  0.00    +0.250 C 
ATOM      9  C   UNL     1      33.194 -23.932 -14.043  0.00  0.00    +0.250 C 
ENDROOT
BRANCH   4  10
ATOM     10  C   UNL     1      34.423 -22.565 -17.902  0.00  0.00    +0.084 C 
ATOM     11  C   UNL     1      35.787 -21.872 -17.855  0.00  0.00    +0.020 C 
ATOM     12  C   UNL     1      33.373 -21.684 -18.583  0.00  0.00    +0.020 C 
ATOM     13  C   UNL     1      33.829 -21.239 -19.971  0.00  0.00    +0.002 C 
ATOM     14  C   UNL     1      36.239 -21.425 -19.243  0.00  0.00    +0.002 C 
ATOM     15  C   UNL     1      35.189 -20.550 -19.923  0.00  0.00    +0.000 C 
ENDBRANCH   4  10
BRANCH   5  16
ATOM     16  C   UNL     1      35.497 -24.621 -13.651  0.00  0.00    +0.084 C 
ATOM     17  C   UNL     1      36.215 -25.716 -14.446  0.00  0.00    +0.020 C 
ATOM     18  C   UNL     1      36.490 -23.618 -13.063  0.00  0.00    +0.020 C 
ATOM     19  C   UNL     1      37.563 -24.311 -12.228  0.00  0.00    +0.002 C 
ATOM     20  C   UNL     1      37.286 -26.408 -13.607  0.00  0.00    +0.002 C 
ATOM     21  C   UNL     1      38.274 -25.405 -13.019  0.00  0.00    +0.000 C 
ENDBRANCH   5  16
BRANCH   7  24
ATOM     22  O   UNL     1      30.152 -22.634 -13.836  0.00  0.00    -0.274 OA
ATOM     23  N   UNL     1      30.427 -24.398 -15.330  0.00  0.00    -0.294 N 
ATOM     24  C   UNL     1      30.846 -23.300 -14.600  0.00  0.00    +0.240 C 
ATOM     25  H   UNL     1      31.079 -24.852 -15.911  0.00  0.00    +0.150 HD
BRANCH  23  26
ATOM     26  C   UNL     1      29.077 -24.913 -15.280  0.00  0.00    +0.200 C 
BRANCH  26  28
ATOM     27  O   UNL     1      27.812 -24.180 -17.191  0.00  0.00    -0.248 OA
ATOM     28  C   UNL     1      28.088 -24.039 -16.006  0.00  0.00    +0.334 C 
BRANCH  28  29
ATOM     29  O   UNL     1      27.535 -23.082 -15.225  0.00  0.00    -0.479 OA
ATOM     30  H   UNL     1      27.640 -23.118 -14.295  0.00  0.00    +0.295 HD
ENDBRANCH  28  29
ENDBRANCH  26  28
ENDBRANCH  23  26
ENDBRANCH   7  24
TORSDOF 6
ENDMDL
MODEL 2
REMARK VINA RESULT:     -11.0      1.632      6.690
REMARK  Name = 91617630
REMARK  6 active torsions:
REMARK  status: ('A' for Active; 'I' for Inactive)
REMARK    1  A    between atoms: N_4  and  C_10
REMARK    2  A    between atoms: N_5  and  C_16
REMARK    3  A    between atoms: C_7  and  C_24
REMARK    4  A    between atoms: N_23  and  C_26
REMARK    5  A    between atoms: C_26  and  C_28
REMARK    6  A    between atoms: C_28  and  O_29
REMARK                            x       y       z     vdW  Elec       q    Type
REMARK                         _______ _______ _______ _____ _____    ______ ____
ROOT
ATOM      1  O   UNL     1      31.621 -22.433 -17.276  0.00  0.00    -0.252 OA
ATOM      2  O   UNL     1      32.978 -24.308 -13.247  0.00  0.00    -0.273 OA
ATOM      3  O   UNL     1      36.124 -23.168 -16.387  0.00  0.00    -0.273 OA
ATOM      4  N   UNL     1      32.252 -23.281 -15.209  0.00  0.00    -0.215 N 
ATOM      5  N   UNL     1      33.888 -22.698 -16.846  0.00  0.00    -0.215 N 
ATOM      6  C   UNL     1      32.520 -22.761 -16.495  0.00  0.00    +0.319 C 
ATOM      7  C   UNL     1      34.597 -23.120 -14.547  0.00  0.00    +0.229 C 
ATOM      8  C   UNL     1      33.214 -23.653 -14.263  0.00  0.00    +0.250 C 
ATOM      9  C   UNL     1      34.961 -23.023 -16.008  0.00  0.00    +0.250 C 
ENDROOT
BRANCH   4  10
ATOM     10  C   UNL     1      30.867 -23.532 -14.892  0.00  0.00    +0.084 C 
ATOM     11  C   UNL     1      30.399 -24.841 -15.531  0.00  0.00    +0.020 C 
ATOM     12  C   UNL     1      29.990 -22.355 -15.327  0.00  0.00    +0.020 C 
ATOM     13  C   UNL     1      28.512 -22.622 -15.050  0.00  0.00    +0.002 C 
ATOM     14  C   UNL     1      28.920 -25.105 -15.256  0.00  0.00    +0.002 C 
ATOM     15  C   UNL     1      28.048 -23.929 -15.687  0.00  0.00    +0.000 C 
ENDBRANCH   4  10
BRANCH   5  16
ATOM     16  C   UNL     1      34.184 -22.347 -18.214  0.00  0.00    +0.084 C 
ATOM     17  C   UNL     1      33.170 -21.328 -18.743  0.00  0.00    +0.020 C 
ATOM     18  C   UNL     1      35.615 -21.822 -18.335  0.00  0.00    +0.020 C 
ATOM     19  C   UNL     1      35.939 -21.392 -19.764  0.00  0.00    +0.002 C 
ATOM     20  C   UNL     1      33.496 -20.901 -20.172  0.00  0.00    +0.002 C 
ATOM     21  C   UNL     1      34.925 -20.380 -20.291  0.00  0.00    +0.000 C 
ENDBRANCH   5  16
BRANCH   7  24
ATOM     22  O   UNL     1      36.321 -23.280 -12.900  0.00  0.00    -0.274 OA
ATOM     23  N   UNL     1      35.754 -25.177 -14.125  0.00  0.00    -0.294 N 
ATOM     24  C   UNL     1      35.646 -23.847 -13.756  0.00  0.00    +0.240 C 
ATOM     25  H   UNL     1      35.154 -25.518 -14.828  0.00  0.00    +0.150 HD
BRANCH  23  26
ATOM     26  C   UNL     1      36.705 -26.088 -13.532  0.00  0.00    +0.200 C 
BRANCH  26  28
ATOM     27  O   UNL     1      36.854 -27.331 -15.588  0.00  0.00    -0.248 OA
ATOM     28  C   UNL     1      37.389 -26.966 -14.548  0.00  0.00    +0.334 C 
BRANCH  28  29
ATOM     29  O   UNL     1      38.651 -27.315 -14.201  0.00  0.00    -0.479 OA
ATOM     30  H   UNL     1      39.074 -26.887 -13.483  0.00  0.00    +0.295 HD
ENDBRANCH  28  29
ENDBRANCH  26  28
ENDBRANCH  23  26
ENDBRANCH   7  24
TORSDOF 6
ENDMDL
MODEL 3
REMARK VINA RESULT:     -11.0      1.836      6.889
REMARK  Name = 91617630
REMARK  6 active torsions:
REMARK  status: ('A' for Active; 'I' for Inactive)
REMARK    1  A    between atoms: N_4  and  C_10
REMARK    2  A    between atoms: N_5  and  C_16
REMARK    3  A    between atoms: C_7  and  C_24
REMARK    4  A    between atoms: N_23  and  C_26
REMARK    5  A    between atoms: C_26  and  C_28
REMARK    6  A    between atoms: C_28  and  O_29
REMARK                            x       y       z     vdW  Elec       q    Type
REMARK                         _______ _______ _______ _____ _____    ______ ____
ROOT
ATOM      1  O   UNL     1      32.882 -24.128 -12.690  0.00  0.00    -0.252 OA
ATOM      2  O   UNL     1      36.388 -23.769 -15.719  0.00  0.00    -0.273 OA
ATOM      3  O   UNL     1      32.094 -22.960 -17.120  0.00  0.00    -0.273 OA
ATOM      4  N   UNL     1      34.679 -23.866 -14.138  0.00  0.00    -0.215 N 
ATOM      5  N   UNL     1      32.444 -23.456 -14.870  0.00  0.00    -0.215 N 
ATOM      6  C   UNL     1      33.305 -23.821 -13.810  0.00  0.00    +0.319 C 
ATOM      7  C   UNL     1      34.311 -22.712 -16.258  0.00  0.00    +0.229 C 
ATOM      8  C   UNL     1      35.234 -23.513 -15.374  0.00  0.00    +0.250 C 
ATOM      9  C   UNL     1      32.849 -23.068 -16.153  0.00  0.00    +0.250 C 
ENDROOT
BRANCH   4  10
ATOM     10  C   UNL     1      35.562 -24.412 -13.136  0.00  0.00    +0.084 C 
ATOM     11  C   UNL     1      36.477 -23.320 -12.577  0.00  0.00    +0.020 C 
ATOM     12  C   UNL     1      36.371 -25.579 -13.706  0.00  0.00    +0.020 C 
ATOM     13  C   UNL     1      37.353 -26.137 -12.677  0.00  0.00    +0.002 C 
ATOM     14  C   UNL     1      37.460 -23.880 -11.551  0.00  0.00    +0.002 C 
ATOM     15  C   UNL     1      38.263 -25.047 -12.119  0.00  0.00    +0.000 C 
ENDBRANCH   4  10
BRANCH   5  16
ATOM     16  C   UNL     1      31.028 -23.579 -14.619  0.00  0.00    +0.084 C 
ATOM     17  C   UNL     1      30.266 -22.396 -15.222  0.00  0.00    +0.020 C 
ATOM     18  C   UNL     1      30.503 -24.912 -15.155  0.00  0.00    +0.020 C 
ATOM     19  C   UNL     1      28.996 -25.047 -14.951  0.00  0.00    +0.002 C 
ATOM     20  C   UNL     1      28.760 -22.534 -15.015  0.00  0.00    +0.002 C 
ATOM     21  C   UNL     1      28.238 -23.865 -15.549  0.00  0.00    +0.000 C 
ENDBRANCH   5  16
BRANCH   7  24
ATOM     22  O   UNL     1      34.318 -23.460 -18.528  0.00  0.00    -0.274 OA
ATOM     23  N   UNL     1      35.780 -21.762 -17.897  0.00  0.00    -0.294 N 
ATOM     24  C   UNL     1      34.782 -22.697 -17.684  0.00  0.00    +0.240 C 
ATOM     25  H   UNL     1      36.070 -21.205 -17.139  0.00  0.00    +0.150 HD
BRANCH  23  26
ATOM     26  C   UNL     1      36.420 -21.565 -19.178  0.00  0.00    +0.200 C 
BRANCH  26  28
ATOM     27  O   UNL     1      34.905 -20.139 -20.389  0.00  0.00    -0.248 OA
ATOM     28  C   UNL     1      35.997 -20.286 -19.855  0.00  0.00    +0.334 C 
BRANCH  28  29
ATOM     29  O   UNL     1      36.941 -19.316 -19.817  0.00  0.00    -0.479 OA
ATOM     30  H   UNL     1      37.121 -18.808 -20.583  0.00  0.00    +0.295 HD
ENDBRANCH  28  29
ENDBRANCH  26  28
ENDBRANCH  23  26
ENDBRANCH   7  24
TORSDOF 6
ENDMDL
MODEL 4
REMARK VINA RESULT:     -10.8      1.748      5.892
REMARK  Name = 91617630
REMARK  6 active torsions:
REMARK  status: ('A' for Active; 'I' for Inactive)
REMARK    1  A    between atoms: N_4  and  C_10
REMARK    2  A    between atoms: N_5  and  C_16
REMARK    3  A    between atoms: C_7  and  C_24
REMARK    4  A    between atoms: N_23  and  C_26
REMARK    5  A    between atoms: C_26  and  C_28
REMARK    6  A    between atoms: C_28  and  O_29
REMARK                            x       y       z     vdW  Elec       q    Type
REMARK                         _______ _______ _______ _____ _____    ______ ____
ROOT
ATOM      1  O   UNL     1      31.831 -23.132 -17.259  0.00  0.00    -0.252 OA
ATOM      2  O   UNL     1      36.301 -22.983 -15.999  0.00  0.00    -0.273 OA
ATOM      3  O   UNL     1      33.093 -23.906 -12.852  0.00  0.00    -0.273 OA
ATOM      4  N   UNL     1      34.085 -23.143 -16.702  0.00  0.00    -0.215 N 
ATOM      5  N   UNL     1      32.416 -23.613 -15.062  0.00  0.00    -0.215 N 
ATOM      6  C   UNL     1      32.712 -23.302 -16.409  0.00  0.00    +0.319 C 
ATOM      7  C   UNL     1      34.755 -24.104 -14.560  0.00  0.00    +0.229 C 
ATOM      8  C   UNL     1      35.139 -23.340 -15.802  0.00  0.00    +0.250 C 
ATOM      9  C   UNL     1      33.357 -23.848 -14.053  0.00  0.00    +0.250 C 
ENDROOT
BRANCH   4  10
ATOM     10  C   UNL     1      34.409 -22.646 -18.018  0.00  0.00    +0.084 C 
ATOM     11  C   UNL     1      35.775 -21.956 -18.008  0.00  0.00    +0.020 C 
ATOM     12  C   UNL     1      33.314 -21.707 -18.527  0.00  0.00    +0.020 C 
ATOM     13  C   UNL     1      33.663 -21.127 -19.896  0.00  0.00    +0.002 C 
ATOM     14  C   UNL     1      36.121 -21.373 -19.377  0.00  0.00    +0.002 C 
ATOM     15  C   UNL     1      35.025 -20.441 -19.885  0.00  0.00    +0.000 C 
ENDBRANCH   4  10
BRANCH   5  16
ATOM     16  C   UNL     1      31.021 -23.599 -14.693  0.00  0.00    +0.084 C 
ATOM     17  C   UNL     1      30.286 -22.451 -15.393  0.00  0.00    +0.020 C 
ATOM     18  C   UNL     1      30.370 -24.948 -15.005  0.00  0.00    +0.020 C 
ATOM     19  C   UNL     1      28.880 -24.945 -14.674  0.00  0.00    +0.002 C 
ATOM     20  C   UNL     1      28.797 -22.451 -15.059  0.00  0.00    +0.002 C 
ATOM     21  C   UNL     1      28.151 -23.798 -15.368  0.00  0.00    +0.000 C 
ENDBRANCH   5  16
BRANCH   7  24
ATOM     22  O   UNL     1      36.494 -22.955 -13.392  0.00  0.00    -0.274 OA
ATOM     23  N   UNL     1      35.820 -25.049 -12.631  0.00  0.00    -0.294 N 
ATOM     24  C   UNL     1      35.781 -23.951 -13.473  0.00  0.00    +0.240 C 
ATOM     25  H   UNL     1      35.195 -25.791 -12.798  0.00  0.00    +0.150 HD
BRANCH  23  26
ATOM     26  C   UNL     1      36.736 -25.161 -11.519  0.00  0.00    +0.200 C 
BRANCH  26  28
ATOM     27  O   UNL     1      35.527 -24.556  -9.528  0.00  0.00    -0.248 OA
ATOM     28  C   UNL     1      36.372 -24.263 -10.366  0.00  0.00    +0.334 C 
BRANCH  28  29
ATOM     29  O   UNL     1      37.065 -23.100 -10.343  0.00  0.00    -0.479 OA
ATOM     30  H   UNL     1      37.317 -22.721  -9.524  0.00  0.00    +0.295 HD
ENDBRANCH  28  29
ENDBRANCH  26  28
ENDBRANCH  23  26
ENDBRANCH   7  24
TORSDOF 6
ENDMDL
MODEL 5
REMARK VINA RESULT:     -10.6      2.042      6.693
REMARK  Name = 91617630
REMARK  6 active torsions:
REMARK  status: ('A' for Active; 'I' for Inactive)
REMARK    1  A    between atoms: N_4  and  C_10
REMARK    2  A    between atoms: N_5  and  C_16
REMARK    3  A    between atoms: C_7  and  C_24
REMARK    4  A    between atoms: N_23  and  C_26
REMARK    5  A    between atoms: C_26  and  C_28
REMARK    6  A    between atoms: C_28  and  O_29
REMARK                            x       y       z     vdW  Elec       q    Type
REMARK                         _______ _______ _______ _____ _____    ______ ____
ROOT
ATOM      1  O   UNL     1      32.235 -22.539 -17.890  0.00  0.00    -0.252 OA
ATOM      2  O   UNL     1      33.161 -24.476 -13.769  0.00  0.00    -0.273 OA
ATOM      3  O   UNL     1      36.607 -22.880 -16.345  0.00  0.00    -0.273 OA
ATOM      4  N   UNL     1      32.634 -23.426 -15.781  0.00  0.00    -0.215 N 
ATOM      5  N   UNL     1      34.428 -22.606 -17.125  0.00  0.00    -0.215 N 
ATOM      6  C   UNL     1      33.037 -22.818 -16.992  0.00  0.00    +0.319 C 
ATOM      7  C   UNL     1      34.825 -23.073 -14.761  0.00  0.00    +0.229 C 
ATOM      8  C   UNL     1      33.478 -23.750 -14.712  0.00  0.00    +0.250 C 
ATOM      9  C   UNL     1      35.391 -22.868 -16.145  0.00  0.00    +0.250 C 
ENDROOT
BRANCH   4  10
ATOM     10  C   UNL     1      31.250 -23.825 -15.690  0.00  0.00    +0.084 C 
ATOM     11  C   UNL     1      30.447 -22.794 -14.893  0.00  0.00    +0.020 C 
ATOM     12  C   UNL     1      31.128 -25.221 -15.077  0.00  0.00    +0.020 C 
ATOM     13  C   UNL     1      29.668 -25.641 -14.920  0.00  0.00    +0.002 C 
ATOM     14  C   UNL     1      28.989 -23.217 -14.735  0.00  0.00    +0.002 C 
ATOM     15  C   UNL     1      28.869 -24.611 -14.127  0.00  0.00    +0.000 C 
ENDBRANCH   4  10
BRANCH   5  16
ATOM     16  C   UNL     1      34.887 -22.159 -18.419  0.00  0.00    +0.084 C 
ATOM     17  C   UNL     1      33.840 -21.261 -19.085  0.00  0.00    +0.020 C 
ATOM     18  C   UNL     1      36.234 -21.445 -18.292  0.00  0.00    +0.020 C 
ATOM     19  C   UNL     1      36.719 -20.914 -19.639  0.00  0.00    +0.002 C 
ATOM     20  C   UNL     1      34.328 -20.733 -20.432  0.00  0.00    +0.002 C 
ATOM     21  C   UNL     1      35.673 -20.023 -20.304  0.00  0.00    +0.000 C 
ENDBRANCH   5  16
BRANCH   7  24
ATOM     22  O   UNL     1      36.469 -24.713 -14.195  0.00  0.00    -0.274 OA
ATOM     23  N   UNL     1      35.862 -23.129 -12.601  0.00  0.00    -0.294 N 
ATOM     24  C   UNL     1      35.813 -23.735 -13.844  0.00  0.00    +0.240 C 
ATOM     25  H   UNL     1      35.286 -22.347 -12.437  0.00  0.00    +0.150 HD
BRANCH  23  26
ATOM     26  C   UNL     1      36.716 -23.589 -11.529  0.00  0.00    +0.200 C 
BRANCH  26  28
ATOM     27  O   UNL     1      35.032 -25.092 -10.693  0.00  0.00    -0.248 OA
ATOM     28  C   UNL     1      35.963 -24.331 -10.456  0.00  0.00    +0.334 C 
BRANCH  28  29
ATOM     29  O   UNL     1      36.411 -24.077  -9.204  0.00  0.00    -0.479 OA
ATOM     30  H   UNL     1      36.370 -23.206  -8.861  0.00  0.00    +0.295 HD
ENDBRANCH  28  29
ENDBRANCH  26  28
ENDBRANCH  23  26
ENDBRANCH   7  24
TORSDOF 6
ENDMDL
MODEL 6
REMARK VINA RESULT:     -10.5      1.802      5.045
REMARK  Name = 91617630
REMARK  6 active torsions:
REMARK  status: ('A' for Active; 'I' for Inactive)
REMARK    1  A    between atoms: N_4  and  C_10
REMARK    2  A    between atoms: N_5  and  C_16
REMARK    3  A    between atoms: C_7  and  C_24
REMARK    4  A    between atoms: N_23  and  C_26
REMARK    5  A    between atoms: C_26  and  C_28
REMARK    6  A    between atoms: C_28  and  O_29
REMARK                            x       y       z     vdW  Elec       q    Type
REMARK                         _______ _______ _______ _____ _____    ______ ____
ROOT
ATOM      1  O   UNL     1      32.717 -24.968 -12.703  0.00  0.00    -0.252 OA
ATOM      2  O   UNL     1      32.188 -22.607 -16.670  0.00  0.00    -0.273 OA
ATOM      3  O   UNL     1      36.409 -23.418 -15.064  0.00  0.00    -0.273 OA
ATOM      4  N   UNL     1      32.401 -23.880 -14.729  0.00  0.00    -0.215 N 
ATOM      5  N   UNL     1      34.596 -24.292 -13.890  0.00  0.00    -0.215 N 
ATOM      6  C   UNL     1      33.202 -24.437 -13.708  0.00  0.00    +0.319 C 
ATOM      7  C   UNL     1      34.319 -23.593 -16.213  0.00  0.00    +0.229 C 
ATOM      8  C   UNL     1      32.875 -23.284 -15.904  0.00  0.00    +0.250 C 
ATOM      9  C   UNL     1      35.219 -23.730 -15.010  0.00  0.00    +0.250 C 
ENDROOT
BRANCH   4  10
ATOM     10  C   UNL     1      30.979 -23.847 -14.486  0.00  0.00    +0.084 C 
ATOM     11  C   UNL     1      30.264 -24.898 -15.339  0.00  0.00    +0.020 C 
ATOM     12  C   UNL     1      30.418 -22.446 -14.742  0.00  0.00    +0.020 C 
ATOM     13  C   UNL     1      28.904 -22.401 -14.543  0.00  0.00    +0.002 C 
ATOM     14  C   UNL     1      28.751 -24.849 -15.141  0.00  0.00    +0.002 C 
ATOM     15  C   UNL     1      28.194 -23.451 -15.393  0.00  0.00    +0.000 C 
ENDBRANCH   4  10
BRANCH   5  16
ATOM     16  C   UNL     1      35.432 -24.684 -12.780  0.00  0.00    +0.084 C 
ATOM     17  C   UNL     1      36.581 -25.579 -13.257  0.00  0.00    +0.020 C 
ATOM     18  C   UNL     1      35.956 -23.452 -12.042  0.00  0.00    +0.020 C 
ATOM     19  C   UNL     1      36.888 -23.836 -10.895  0.00  0.00    +0.002 C 
ATOM     20  C   UNL     1      37.509 -25.961 -12.107  0.00  0.00    +0.002 C 
ATOM     21  C   UNL     1      38.029 -24.730 -11.370  0.00  0.00    +0.000 C 
ENDBRANCH   5  16
BRANCH   7  24
ATOM     22  O   UNL     1      35.800 -21.871 -16.956  0.00  0.00    -0.274 OA
ATOM     23  N   UNL     1      34.245 -22.743 -18.453  0.00  0.00    -0.294 N 
ATOM     24  C   UNL     1      34.885 -22.643 -17.230  0.00  0.00    +0.240 C 
ATOM     25  H   UNL     1      33.522 -23.404 -18.552  0.00  0.00    +0.150 HD
BRANCH  23  26
ATOM     26  C   UNL     1      34.585 -21.922 -19.593  0.00  0.00    +0.200 C 
BRANCH  26  28
ATOM     27  O   UNL     1      33.791 -19.904 -20.636  0.00  0.00    -0.248 OA
ATOM     28  C   UNL     1      33.605 -20.801 -19.823  0.00  0.00    +0.334 C 
BRANCH  28  29
ATOM     29  O   UNL     1      32.501 -20.879 -19.044  0.00  0.00    -0.479 OA
ATOM     30  H   UNL     1      32.166 -21.716 -18.789  0.00  0.00    +0.295 HD
ENDBRANCH  28  29
ENDBRANCH  26  28
ENDBRANCH  23  26
ENDBRANCH   7  24
TORSDOF 6
ENDMDL
MODEL 7
REMARK VINA RESULT:      -9.6      2.428      6.720
REMARK  Name = 91617630
REMARK  6 active torsions:
REMARK  status: ('A' for Active; 'I' for Inactive)
REMARK    1  A    between atoms: N_4  and  C_10
REMARK    2  A    between atoms: N_5  and  C_16
REMARK    3  A    between atoms: C_7  and  C_24
REMARK    4  A    between atoms: N_23  and  C_26
REMARK    5  A    between atoms: C_26  and  C_28
REMARK    6  A    between atoms: C_28  and  O_29
REMARK                            x       y       z     vdW  Elec       q    Type
REMARK                         _______ _______ _______ _____ _____    ______ ____
ROOT
ATOM      1  O   UNL     1      34.365 -23.750 -13.560  0.00  0.00    -0.252 OA
ATOM      2  O   UNL     1      37.217 -22.532 -17.020  0.00  0.00    -0.273 OA
ATOM      3  O   UNL     1      32.716 -22.915 -17.825  0.00  0.00    -0.273 OA
ATOM      4  N   UNL     1      35.819 -23.049 -15.228  0.00  0.00    -0.215 N 
ATOM      5  N   UNL     1      33.480 -23.258 -15.651  0.00  0.00    -0.215 N 
ATOM      6  C   UNL     1      34.539 -23.363 -14.720  0.00  0.00    +0.319 C 
ATOM      7  C   UNL     1      34.882 -22.072 -17.261  0.00  0.00    +0.229 C 
ATOM      8  C   UNL     1      36.093 -22.585 -16.520  0.00  0.00    +0.250 C 
ATOM      9  C   UNL     1      33.594 -22.801 -16.968  0.00  0.00    +0.250 C 
ENDROOT
BRANCH   4  10
ATOM     10  C   UNL     1      36.941 -23.323 -14.362  0.00  0.00    +0.084 C 
ATOM     11  C   UNL     1      37.375 -24.784 -14.493  0.00  0.00    +0.020 C 
ATOM     12  C   UNL     1      36.603 -22.969 -12.912  0.00  0.00    +0.020 C 
ATOM     13  C   UNL     1      37.757 -23.302 -11.969  0.00  0.00    +0.002 C 
ATOM     14  C   UNL     1      38.527 -25.116 -13.547  0.00  0.00    +0.002 C 
ATOM     15  C   UNL     1      38.190 -24.759 -12.102  0.00  0.00    +0.000 C 
ENDBRANCH   4  10
BRANCH   5  16
ATOM     16  C   UNL     1      32.193 -23.748 -15.216  0.00  0.00    +0.084 C 
ATOM     17  C   UNL     1      32.360 -24.884 -14.202  0.00  0.00    +0.020 C 
ATOM     18  C   UNL     1      31.353 -22.607 -14.639  0.00  0.00    +0.020 C 
ATOM     19  C   UNL     1      30.006 -23.105 -14.121  0.00  0.00    +0.002 C 
ATOM     20  C   UNL     1      31.012 -25.380 -13.687  0.00  0.00    +0.002 C 
ATOM     21  C   UNL     1      30.174 -24.240 -13.115  0.00  0.00    +0.000 C 
ENDBRANCH   5  16
BRANCH   7  24
ATOM     22  O   UNL     1      35.132 -22.944 -19.472  0.00  0.00    -0.274 OA
ATOM     23  N   UNL     1      35.395 -20.657 -19.126  0.00  0.00    -0.294 N 
ATOM     24  C   UNL     1      35.139 -21.960 -18.736  0.00  0.00    +0.240 C 
ATOM     25  H   UNL     1      35.373 -19.950 -18.441  0.00  0.00    +0.150 HD
BRANCH  23  26
ATOM     26  C   UNL     1      35.696 -20.284 -20.489  0.00  0.00    +0.200 C 
BRANCH  26  28
ATOM     27  O   UNL     1      37.714 -18.975 -20.581  0.00  0.00    -0.248 OA
ATOM     28  C   UNL     1      36.490 -19.006 -20.587  0.00  0.00    +0.334 C 
BRANCH  28  29
ATOM     29  O   UNL     1      35.720 -17.896 -20.680  0.00  0.00    -0.479 OA
ATOM     30  H   UNL     1      35.029 -17.753 -20.063  0.00  0.00    +0.295 HD
ENDBRANCH  28  29
ENDBRANCH  26  28
ENDBRANCH  23  26
ENDBRANCH   7  24
TORSDOF 6
ENDMDL
MODEL 8
REMARK VINA RESULT:      -9.1      1.202      1.711
REMARK  Name = 91617630
REMARK  6 active torsions:
REMARK  status: ('A' for Active; 'I' for Inactive)
REMARK    1  A    between atoms: N_4  and  C_10
REMARK    2  A    between atoms: N_5  and  C_16
REMARK    3  A    between atoms: C_7  and  C_24
REMARK    4  A    between atoms: N_23  and  C_26
REMARK    5  A    between atoms: C_26  and  C_28
REMARK    6  A    between atoms: C_28  and  O_29
REMARK                            x       y       z     vdW  Elec       q    Type
REMARK                         _______ _______ _______ _____ _____    ______ ____
ROOT
ATOM      1  O   UNL     1      36.750 -22.594 -16.816  0.00  0.00    -0.252 OA
ATOM      2  O   UNL     1      32.311 -22.458 -18.183  0.00  0.00    -0.273 OA
ATOM      3  O   UNL     1      33.399 -24.514 -14.228  0.00  0.00    -0.273 OA
ATOM      4  N   UNL     1      34.538 -22.412 -17.496  0.00  0.00    -0.215 N 
ATOM      5  N   UNL     1      35.104 -23.491 -15.444  0.00  0.00    -0.215 N 
ATOM      6  C   UNL     1      35.552 -22.800 -16.592  0.00  0.00    +0.319 C 
ATOM      7  C   UNL     1      32.774 -22.900 -15.879  0.00  0.00    +0.229 C 
ATOM      8  C   UNL     1      33.163 -22.590 -17.303  0.00  0.00    +0.250 C 
ATOM      9  C   UNL     1      33.767 -23.735 -15.109  0.00  0.00    +0.250 C 
ENDROOT
BRANCH   4  10
ATOM     10  C   UNL     1      34.974 -21.872 -18.761  0.00  0.00    +0.084 C 
ATOM     11  C   UNL     1      36.299 -21.124 -18.596  0.00  0.00    +0.020 C 
ATOM     12  C   UNL     1      33.896 -20.969 -19.365  0.00  0.00    +0.020 C 
ATOM     13  C   UNL     1      34.359 -20.343 -20.679  0.00  0.00    +0.002 C 
ATOM     14  C   UNL     1      36.759 -20.496 -19.910  0.00  0.00    +0.002 C 
ATOM     15  C   UNL     1      35.681 -19.600 -20.513  0.00  0.00    +0.000 C 
ENDBRANCH   4  10
BRANCH   5  16
ATOM     16  C   UNL     1      36.126 -24.059 -14.598  0.00  0.00    +0.084 C 
ATOM     17  C   UNL     1      36.109 -23.404 -13.213  0.00  0.00    +0.020 C 
ATOM     18  C   UNL     1      35.955 -25.576 -14.497  0.00  0.00    +0.020 C 
ATOM     19  C   UNL     1      36.991 -26.199 -13.564  0.00  0.00    +0.002 C 
ATOM     20  C   UNL     1      37.147 -24.028 -12.284  0.00  0.00    +0.002 C 
ATOM     21  C   UNL     1      36.977 -25.541 -12.187  0.00  0.00    +0.000 C 
ENDBRANCH   5  16
BRANCH   7  24
ATOM     22  O   UNL     1      30.826 -23.964 -16.763  0.00  0.00    -0.274 OA
ATOM     23  N   UNL     1      30.839 -23.317 -14.527  0.00  0.00    -0.294 N 
ATOM     24  C   UNL     1      31.384 -23.461 -15.791  0.00  0.00    +0.240 C 
ATOM     25  H   UNL     1      31.387 -22.896 -13.826  0.00  0.00    +0.150 HD
BRANCH  23  26
ATOM     26  C   UNL     1      29.505 -23.754 -14.186  0.00  0.00    +0.200 C 
BRANCH  26  28
ATOM     27  O   UNL     1      27.985 -22.154 -15.147  0.00  0.00    -0.248 OA
ATOM     28  C   UNL     1      28.464 -23.282 -15.167  0.00  0.00    +0.334 C 
BRANCH  28  29
ATOM     29  O   UNL     1      28.106 -24.222 -16.073  0.00  0.00    -0.479 OA
ATOM     30  H   UNL     1      28.157 -24.032 -16.990  0.00  0.00    +0.295 HD
ENDBRANCH  28  29
ENDBRANCH  26  28
ENDBRANCH  23  26
ENDBRANCH   7  24
TORSDOF 6
ENDMDL
MODEL 9
REMARK VINA RESULT:      -8.5     11.510     15.022
REMARK  Name = 91617630
REMARK  6 active torsions:
REMARK  status: ('A' for Active; 'I' for Inactive)
REMARK    1  A    between atoms: N_4  and  C_10
REMARK    2  A    between atoms: N_5  and  C_16
REMARK    3  A    between atoms: C_7  and  C_24
REMARK    4  A    between atoms: N_23  and  C_26
REMARK    5  A    between atoms: C_26  and  C_28
REMARK    6  A    between atoms: C_28  and  O_29
REMARK                            x       y       z     vdW  Elec       q    Type
REMARK                         _______ _______ _______ _____ _____    ______ ____
ROOT
ATOM      1  O   UNL     1      34.766 -11.324 -24.796  0.00  0.00    -0.252 OA
ATOM      2  O   UNL     1      32.411 -13.555 -21.469  0.00  0.00    -0.273 OA
ATOM      3  O   UNL     1      32.133  -8.984 -21.762  0.00  0.00    -0.273 OA
ATOM      4  N   UNL     1      33.533 -12.495 -23.215  0.00  0.00    -0.215 N 
ATOM      5  N   UNL     1      33.396 -10.117 -23.361  0.00  0.00    -0.215 N 
ATOM      6  C   UNL     1      33.945 -11.314 -23.873  0.00  0.00    +0.319 C 
ATOM      7  C   UNL     1      31.743 -11.329 -22.032  0.00  0.00    +0.229 C 
ATOM      8  C   UNL     1      32.593 -12.566 -22.180  0.00  0.00    +0.250 C 
ATOM      9  C   UNL     1      32.442 -10.027 -22.340  0.00  0.00    +0.250 C 
ENDROOT
BRANCH   4  10
ATOM     10  C   UNL     1      34.213 -13.711 -23.590  0.00  0.00    +0.084 C 
ATOM     11  C   UNL     1      33.339 -14.546 -24.529  0.00  0.00    +0.020 C 
ATOM     12  C   UNL     1      34.618 -14.510 -22.349  0.00  0.00    +0.020 C 
ATOM     13  C   UNL     1      35.291 -15.828 -22.724  0.00  0.00    +0.002 C 
ATOM     14  C   UNL     1      34.012 -15.866 -24.900  0.00  0.00    +0.002 C 
ATOM     15  C   UNL     1      34.419 -16.658 -23.661  0.00  0.00    +0.000 C 
ENDBRANCH   4  10
BRANCH   5  16
ATOM     16  C   UNL     1      33.937  -8.886 -23.887  0.00  0.00    +0.084 C 
ATOM     17  C   UNL     1      32.812  -7.953 -24.347  0.00  0.00    +0.020 C 
ATOM     18  C   UNL     1      34.833  -8.208 -22.850  0.00  0.00    +0.020 C 
ATOM     19  C   UNL     1      35.376  -6.875 -23.360  0.00  0.00    +0.002 C 
ATOM     20  C   UNL     1      33.360  -6.623 -24.857  0.00  0.00    +0.002 C 
ATOM     21  C   UNL     1      34.255  -5.949 -23.822  0.00  0.00    +0.000 C 
ENDBRANCH   5  16
BRANCH   7  24
ATOM     22  O   UNL     1      29.821 -11.272 -20.613  0.00  0.00    -0.274 OA
ATOM     23  N   UNL     1      31.938 -11.253 -19.644  0.00  0.00    -0.294 N 
ATOM     24  C   UNL     1      31.047 -11.289 -20.702  0.00  0.00    +0.240 C 
ATOM     25  H   UNL     1      32.902 -11.271 -19.843  0.00  0.00    +0.150 HD
BRANCH  23  26
ATOM     26  C   UNL     1      31.523 -11.187 -18.261  0.00  0.00    +0.200 C 
BRANCH  26  28
ATOM     27  O   UNL     1      32.172  -9.853 -16.366  0.00  0.00    -0.248 OA
ATOM     28  C   UNL     1      31.974  -9.925 -17.572  0.00  0.00    +0.334 C 
BRANCH  28  29
ATOM     29  O   UNL     1      32.138  -8.877 -18.414  0.00  0.00    -0.479 OA
ATOM     30  H   UNL     1      32.369  -8.035 -18.074  0.00  0.00    +0.295 HD
ENDBRANCH  28  29
ENDBRANCH  26  28
ENDBRANCH  23  26
ENDBRANCH   7  24
TORSDOF 6
ENDMDL
