MODEL 1
REMARK VINA RESULT:      -9.8      0.000      0.000
REMARK  Name = 16102897
REMARK  8 active torsions:
REMARK  status: ('A' for Active; 'I' for Inactive)
REMARK    1  A    between atoms: C_2  and  C_19
REMARK    2  A    between atoms: C_7  and  C_9
REMARK    3  A    between atoms: C_10  and  C_16
REMARK    4  A    between atoms: C_16  and  O_17
REMARK    5  A    between atoms: C_19  and  N_22
REMARK    6  A    between atoms: C_23  and  C_25
REMARK    7  A    between atoms: C_25  and  N_29
REMARK    8  A    between atoms: C_30  and  C_35
REMARK                            x       y       z     vdW  Elec       q    Type
REMARK                         _______ _______ _______ _____ _____    ______ ____
ROOT
ATOM      1  F   UNL     1      30.314 -11.250 -21.023  0.00  0.00    -0.204 F 
ATOM      2  C   UNL     1      32.102 -10.155 -22.138  0.00  0.00    +0.023 C 
ATOM      3  C   UNL     1      31.412 -11.317 -21.790  0.00  0.00    +0.138 C 
ATOM      4  C   UNL     1      33.242 -10.235 -22.937  0.00  0.00    -0.000 C 
ATOM      5  C   UNL     1      31.861 -12.558 -22.243  0.00  0.00    +0.029 C 
ATOM      6  C   UNL     1      33.692 -11.475 -23.389  0.00  0.00    -0.000 C 
ATOM      7  C   UNL     1      33.001 -12.636 -23.042  0.00  0.00    +0.002 C 
ENDROOT
BRANCH   7   9
ATOM      8 CL   UNL     1      35.491 -17.129 -22.169  0.00  0.00    -0.082 Cl
ATOM      9  C   UNL     1      33.468 -13.923 -23.511  0.00  0.00    +0.007 C 
ATOM     10  C   UNL     1      34.176 -14.789 -22.678  0.00  0.00    +0.086 C 
ATOM     11  C   UNL     1      33.194 -14.291 -24.829  0.00  0.00    +0.000 C 
ATOM     12  C   UNL     1      34.612 -16.023 -23.163  0.00  0.00    +0.064 C 
ATOM     13  C   UNL     1      33.629 -15.525 -25.313  0.00  0.00    +0.001 C 
ATOM     14  C   UNL     1      34.338 -16.390 -24.480  0.00  0.00    +0.012 C 
BRANCH  10  16
ATOM     15  O   UNL     1      35.299 -13.558 -20.973  0.00  0.00    -0.245 OA
ATOM     16  C   UNL     1      34.460 -14.400 -21.297  0.00  0.00    +0.342 C 
BRANCH  16  17
ATOM     17  O   UNL     1      33.673 -15.089 -20.418  0.00  0.00    -0.441 OA
ATOM     18  C   UNL     1      32.640 -14.344 -19.765  0.00  0.00    +0.256 C 
ENDBRANCH  16  17
ENDBRANCH  10  16
ENDBRANCH   7   9
BRANCH   2  19
ATOM     19  C   UNL     1      31.624  -8.828 -21.655  0.00  0.00    +0.096 C 
ATOM     20  C   UNL     1      31.750  -8.649 -20.135  0.00  0.00    +0.026 C 
BRANCH  19  22
ATOM     21  O   UNL     1      30.662  -7.242 -23.895  0.00  0.00    -0.273 OA
ATOM     22  N   UNL     1      32.300  -7.724 -22.315  0.00  0.00    -0.301 N 
ATOM     23  C   UNL     1      31.751  -7.035 -23.374  0.00  0.00    +0.238 C 
ATOM     24  H   UNL     1      33.190  -7.456 -21.989  0.00  0.00    +0.150 HD
BRANCH  23  25
ATOM     25  C   UNL     1      32.620  -5.939 -23.894  0.00  0.00    +0.126 C 
ATOM     26  C   UNL     1      33.358  -6.195 -25.175  0.00  0.00    +0.029 C 
ATOM     27  C   UNL     1      34.103  -6.168 -23.873  0.00  0.00    +0.029 C 
BRANCH  25  29
ATOM     28  O   UNL     1      32.147  -4.764 -21.308  0.00  0.00    -0.266 OA
ATOM     29  N   UNL     1      32.109  -4.629 -23.629  0.00  0.00    -0.293 N 
ATOM     30  C   UNL     1      31.914  -4.147 -22.344  0.00  0.00    +0.318 C 
ATOM     31  H   UNL     1      31.887  -4.046 -24.391  0.00  0.00    +0.150 HD
BRANCH  30  35
ATOM     32  F   UNL     1      32.332  -1.829 -22.094  0.00  0.00    -0.162 F 
ATOM     33  F   UNL     1      30.414  -2.584 -21.384  0.00  0.00    -0.162 F 
ATOM     34  F   UNL     1      30.796  -2.421 -23.522  0.00  0.00    -0.162 F 
ATOM     35  C   UNL     1      31.366  -2.751 -22.336  0.00  0.00    +0.469 C 
ENDBRANCH  30  35
ENDBRANCH  25  29
ENDBRANCH  23  25
ENDBRANCH  19  22
ENDBRANCH   2  19
TORSDOF 8
ENDMDL
MODEL 2
REMARK VINA RESULT:      -9.5      2.138      2.789
REMARK  Name = 16102897
REMARK  8 active torsions:
REMARK  status: ('A' for Active; 'I' for Inactive)
REMARK    1  A    between atoms: C_2  and  C_19
REMARK    2  A    between atoms: C_7  and  C_9
REMARK    3  A    between atoms: C_10  and  C_16
REMARK    4  A    between atoms: C_16  and  O_17
REMARK    5  A    between atoms: C_19  and  N_22
REMARK    6  A    between atoms: C_23  and  C_25
REMARK    7  A    between atoms: C_25  and  N_29
REMARK    8  A    between atoms: C_30  and  C_35
REMARK                            x       y       z     vdW  Elec       q    Type
REMARK                         _______ _______ _______ _____ _____    ______ ____
ROOT
ATOM      1  F   UNL     1      30.258 -11.044 -20.750  0.00  0.00    -0.204 F 
ATOM      2  C   UNL     1      31.991  -9.877 -21.878  0.00  0.00    +0.023 C 
ATOM      3  C   UNL     1      31.322 -11.060 -21.566  0.00  0.00    +0.138 C 
ATOM      4  C   UNL     1      33.095  -9.903 -22.728  0.00  0.00    -0.000 C 
ATOM      5  C   UNL     1      31.757 -12.271 -22.105  0.00  0.00    +0.029 C 
ATOM      6  C   UNL     1      33.532 -11.114 -23.266  0.00  0.00    -0.000 C 
ATOM      7  C   UNL     1      32.863 -12.298 -22.954  0.00  0.00    +0.002 C 
ENDROOT
BRANCH   7   9
ATOM      8 CL   UNL     1      35.270 -16.884 -22.389  0.00  0.00    -0.082 Cl
ATOM      9  C   UNL     1      33.315 -13.553 -23.513  0.00  0.00    +0.007 C 
ATOM     10  C   UNL     1      33.999 -14.490 -22.739  0.00  0.00    +0.086 C 
ATOM     11  C   UNL     1      33.054 -13.817 -24.858  0.00  0.00    +0.000 C 
ATOM     12  C   UNL     1      34.422 -15.692 -23.309  0.00  0.00    +0.064 C 
ATOM     13  C   UNL     1      33.476 -15.019 -25.428  0.00  0.00    +0.001 C 
ATOM     14  C   UNL     1      34.160 -15.955 -24.653  0.00  0.00    +0.012 C 
BRANCH  10  16
ATOM     15  O   UNL     1      35.107 -13.398 -20.932  0.00  0.00    -0.245 OA
ATOM     16  C   UNL     1      34.270 -14.211 -21.328  0.00  0.00    +0.342 C 
BRANCH  16  17
ATOM     17  O   UNL     1      33.474 -14.964 -20.514  0.00  0.00    -0.441 OA
ATOM     18  C   UNL     1      32.566 -14.249 -19.668  0.00  0.00    +0.256 C 
ENDBRANCH  16  17
ENDBRANCH  10  16
ENDBRANCH   7   9
BRANCH   2  19
ATOM     19  C   UNL     1      31.526  -8.581 -21.303  0.00  0.00    +0.096 C 
ATOM     20  C   UNL     1      31.885  -8.407 -19.820  0.00  0.00    +0.026 C 
BRANCH  19  22
ATOM     21  O   UNL     1      30.145  -6.084 -21.864  0.00  0.00    -0.273 OA
ATOM     22  N   UNL     1      32.029  -7.436 -22.044  0.00  0.00    -0.301 N 
ATOM     23  C   UNL     1      31.287  -6.295 -22.253  0.00  0.00    +0.238 C 
ATOM     24  H   UNL     1      32.941  -7.479 -22.413  0.00  0.00    +0.150 HD
BRANCH  23  25
ATOM     25  C   UNL     1      32.003  -5.246 -23.037  0.00  0.00    +0.126 C 
ATOM     26  C   UNL     1      31.716  -3.814 -22.694  0.00  0.00    +0.029 C 
ATOM     27  C   UNL     1      31.181  -4.402 -23.967  0.00  0.00    +0.029 C 
BRANCH  25  29
ATOM     28  O   UNL     1      32.737  -7.052 -25.156  0.00  0.00    -0.266 OA
ATOM     29  N   UNL     1      33.329  -5.624 -23.420  0.00  0.00    -0.293 N 
ATOM     30  C   UNL     1      33.587  -6.505 -24.459  0.00  0.00    +0.318 C 
ATOM     31  H   UNL     1      34.089  -5.242 -22.925  0.00  0.00    +0.150 HD
BRANCH  30  35
ATOM     32  F   UNL     1      35.435  -6.515 -25.941  0.00  0.00    -0.162 F 
ATOM     33  F   UNL     1      35.411  -8.014 -24.356  0.00  0.00    -0.162 F 
ATOM     34  F   UNL     1      35.810  -5.926 -23.876  0.00  0.00    -0.162 F 
ATOM     35  C   UNL     1      35.055  -6.739 -24.657  0.00  0.00    +0.469 C 
ENDBRANCH  30  35
ENDBRANCH  25  29
ENDBRANCH  23  25
ENDBRANCH  19  22
ENDBRANCH   2  19
TORSDOF 8
ENDMDL
MODEL 3
REMARK VINA RESULT:      -9.2      9.875     15.169
REMARK  Name = 16102897
REMARK  8 active torsions:
REMARK  status: ('A' for Active; 'I' for Inactive)
REMARK    1  A    between atoms: C_2  and  C_19
REMARK    2  A    between atoms: C_7  and  C_9
REMARK    3  A    between atoms: C_10  and  C_16
REMARK    4  A    between atoms: C_16  and  O_17
REMARK    5  A    between atoms: C_19  and  N_22
REMARK    6  A    between atoms: C_23  and  C_25
REMARK    7  A    between atoms: C_25  and  N_29
REMARK    8  A    between atoms: C_30  and  C_35
REMARK                            x       y       z     vdW  Elec       q    Type
REMARK                         _______ _______ _______ _____ _____    ______ ____
ROOT
ATOM      1  F   UNL     1      31.932 -21.046 -18.572  0.00  0.00    -0.204 F 
ATOM      2  C   UNL     1      34.222 -21.629 -18.810  0.00  0.00    +0.023 C 
ATOM      3  C   UNL     1      33.090 -20.937 -19.241  0.00  0.00    +0.138 C 
ATOM      4  C   UNL     1      35.421 -21.509 -19.511  0.00  0.00    -0.000 C 
ATOM      5  C   UNL     1      33.156 -20.125 -20.373  0.00  0.00    +0.029 C 
ATOM      6  C   UNL     1      35.488 -20.698 -20.645  0.00  0.00    -0.000 C 
ATOM      7  C   UNL     1      34.356 -20.006 -21.075  0.00  0.00    +0.002 C 
ENDROOT
BRANCH   7   9
ATOM      8 CL   UNL     1      35.508 -15.433 -23.290  0.00  0.00    -0.082 Cl
ATOM      9  C   UNL     1      34.426 -19.165 -22.249  0.00  0.00    +0.007 C 
ATOM     10  C   UNL     1      34.887 -17.850 -22.177  0.00  0.00    +0.086 C 
ATOM     11  C   UNL     1      34.019 -19.694 -23.474  0.00  0.00    +0.000 C 
ATOM     12  C   UNL     1      34.942 -17.065 -23.330  0.00  0.00    +0.064 C 
ATOM     13  C   UNL     1      34.074 -18.909 -24.627  0.00  0.00    +0.001 C 
ATOM     14  C   UNL     1      34.536 -17.595 -24.554  0.00  0.00    +0.012 C 
BRANCH  10  16
ATOM     15  O   UNL     1      36.412 -17.518 -20.375  0.00  0.00    -0.245 OA
ATOM     16  C   UNL     1      35.315 -17.299 -20.891  0.00  0.00    +0.342 C 
BRANCH  16  17
ATOM     17  O   UNL     1      34.344 -16.511 -20.344  0.00  0.00    -0.441 OA
ATOM     18  C   UNL     1      34.676 -15.134 -20.140  0.00  0.00    +0.256 C 
ENDBRANCH  16  17
ENDBRANCH  10  16
ENDBRANCH   7   9
BRANCH   2  19
ATOM     19  C   UNL     1      34.153 -22.497 -17.599  0.00  0.00    +0.096 C 
ATOM     20  C   UNL     1      33.621 -23.908 -17.890  0.00  0.00    +0.026 C 
BRANCH  19  22
ATOM     21  O   UNL     1      34.641 -22.790 -14.747  0.00  0.00    -0.273 OA
ATOM     22  N   UNL     1      35.436 -22.610 -16.926  0.00  0.00    -0.301 N 
ATOM     23  C   UNL     1      35.555 -22.746 -15.561  0.00  0.00    +0.238 C 
ATOM     24  H   UNL     1      36.256 -22.588 -17.471  0.00  0.00    +0.150 HD
BRANCH  23  25
ATOM     25  C   UNL     1      36.967 -22.846 -15.088  0.00  0.00    +0.126 C 
ATOM     26  C   UNL     1      37.820 -21.617 -15.201  0.00  0.00    +0.029 C 
ATOM     27  C   UNL     1      38.047 -22.775 -16.127  0.00  0.00    +0.029 C 
BRANCH  25  29
ATOM     28  O   UNL     1      36.770 -25.719 -15.081  0.00  0.00    -0.266 OA
ATOM     29  N   UNL     1      37.134 -23.714 -13.962  0.00  0.00    -0.293 N 
ATOM     30  C   UNL     1      37.020 -25.092 -14.055  0.00  0.00    +0.318 C 
ATOM     31  H   UNL     1      37.337 -23.314 -13.085  0.00  0.00    +0.150 HD
BRANCH  30  35
ATOM     32  F   UNL     1      36.291 -25.415 -11.824  0.00  0.00    -0.162 F 
ATOM     33  F   UNL     1      38.440 -25.467 -12.195  0.00  0.00    -0.162 F 
ATOM     34  F   UNL     1      37.181 -27.123 -12.844  0.00  0.00    -0.162 F 
ATOM     35  C   UNL     1      37.233 -25.772 -12.735  0.00  0.00    +0.469 C 
ENDBRANCH  30  35
ENDBRANCH  25  29
ENDBRANCH  23  25
ENDBRANCH  19  22
ENDBRANCH   2  19
TORSDOF 8
ENDMDL
MODEL 4
REMARK VINA RESULT:      -8.8      6.382      9.974
REMARK  Name = 16102897
REMARK  8 active torsions:
REMARK  status: ('A' for Active; 'I' for Inactive)
REMARK    1  A    between atoms: C_2  and  C_19
REMARK    2  A    between atoms: C_7  and  C_9
REMARK    3  A    between atoms: C_10  and  C_16
REMARK    4  A    between atoms: C_16  and  O_17
REMARK    5  A    between atoms: C_19  and  N_22
REMARK    6  A    between atoms: C_23  and  C_25
REMARK    7  A    between atoms: C_25  and  N_29
REMARK    8  A    between atoms: C_30  and  C_35
REMARK                            x       y       z     vdW  Elec       q    Type
REMARK                         _______ _______ _______ _____ _____    ______ ____
ROOT
ATOM      1  F   UNL     1      37.685 -18.598 -21.838  0.00  0.00    -0.204 F 
ATOM      2  C   UNL     1      35.390 -19.205 -21.798  0.00  0.00    +0.023 C 
ATOM      3  C   UNL     1      36.664 -19.218 -21.230  0.00  0.00    +0.138 C 
ATOM      4  C   UNL     1      34.334 -19.852 -21.157  0.00  0.00    -0.000 C 
ATOM      5  C   UNL     1      36.882 -19.879 -20.020  0.00  0.00    +0.029 C 
ATOM      6  C   UNL     1      34.552 -20.514 -19.949  0.00  0.00    -0.000 C 
ATOM      7  C   UNL     1      35.826 -20.527 -19.381  0.00  0.00    +0.002 C 
ENDROOT
BRANCH   7   9
ATOM      8 CL   UNL     1      34.427 -24.137 -15.894  0.00  0.00    -0.082 Cl
ATOM      9  C   UNL     1      36.051 -21.212 -18.127  0.00  0.00    +0.007 C 
ATOM     10  C   UNL     1      35.203 -22.230 -17.690  0.00  0.00    +0.086 C 
ATOM     11  C   UNL     1      37.147 -20.837 -17.349  0.00  0.00    +0.000 C 
ATOM     12  C   UNL     1      35.449 -22.871 -16.475  0.00  0.00    +0.064 C 
ATOM     13  C   UNL     1      37.393 -21.478 -16.135  0.00  0.00    +0.001 C 
ATOM     14  C   UNL     1      36.544 -22.495 -15.699  0.00  0.00    +0.012 C 
BRANCH  10  16
ATOM     15  O   UNL     1      34.090 -23.506 -19.368  0.00  0.00    -0.245 OA
ATOM     16  C   UNL     1      34.056 -22.623 -18.509  0.00  0.00    +0.342 C 
BRANCH  16  17
ATOM     17  O   UNL     1      32.949 -21.888 -18.195  0.00  0.00    -0.441 OA
ATOM     18  C   UNL     1      32.077 -22.437 -17.202  0.00  0.00    +0.256 C 
ENDBRANCH  16  17
ENDBRANCH  10  16
ENDBRANCH   7   9
BRANCH   2  19
ATOM     19  C   UNL     1      35.154 -18.499 -23.091  0.00  0.00    +0.096 C 
ATOM     20  C   UNL     1      34.218 -19.260 -24.040  0.00  0.00    +0.026 C 
BRANCH  19  22
ATOM     21  O   UNL     1      34.981 -16.367 -25.061  0.00  0.00    -0.273 OA
ATOM     22  N   UNL     1      34.636 -17.154 -22.899  0.00  0.00    -0.301 N 
ATOM     23  C   UNL     1      34.600 -16.216 -23.907  0.00  0.00    +0.238 C 
ATOM     24  H   UNL     1      34.296 -16.904 -22.010  0.00  0.00    +0.150 HD
BRANCH  23  25
ATOM     25  C   UNL     1      34.025 -14.904 -23.487  0.00  0.00    +0.126 C 
ATOM     26  C   UNL     1      33.067 -14.239 -24.431  0.00  0.00    +0.029 C 
ATOM     27  C   UNL     1      34.452 -13.689 -24.256  0.00  0.00    +0.029 C 
BRANCH  25  29
ATOM     28  O   UNL     1      32.063 -13.264 -22.164  0.00  0.00    -0.266 OA
ATOM     29  N   UNL     1      33.806 -14.800 -22.077  0.00  0.00    -0.293 N 
ATOM     30  C   UNL     1      32.833 -13.980 -21.528  0.00  0.00    +0.318 C 
ATOM     31  H   UNL     1      34.371 -15.334 -21.472  0.00  0.00    +0.150 HD
BRANCH  30  35
ATOM     32  F   UNL     1      32.663 -12.817 -19.471  0.00  0.00    -0.162 F 
ATOM     33  F   UNL     1      33.954 -14.574 -19.527  0.00  0.00    -0.162 F 
ATOM     34  F   UNL     1      31.788 -14.811 -19.570  0.00  0.00    -0.162 F 
ATOM     35  C   UNL     1      32.810 -14.046 -20.030  0.00  0.00    +0.469 C 
ENDBRANCH  30  35
ENDBRANCH  25  29
ENDBRANCH  23  25
ENDBRANCH  19  22
ENDBRANCH   2  19
TORSDOF 8
ENDMDL
MODEL 5
REMARK VINA RESULT:      -8.8      9.652     13.577
REMARK  Name = 16102897
REMARK  8 active torsions:
REMARK  status: ('A' for Active; 'I' for Inactive)
REMARK    1  A    between atoms: C_2  and  C_19
REMARK    2  A    between atoms: C_7  and  C_9
REMARK    3  A    between atoms: C_10  and  C_16
REMARK    4  A    between atoms: C_16  and  O_17
REMARK    5  A    between atoms: C_19  and  N_22
REMARK    6  A    between atoms: C_23  and  C_25
REMARK    7  A    between atoms: C_25  and  N_29
REMARK    8  A    between atoms: C_30  and  C_35
REMARK                            x       y       z     vdW  Elec       q    Type
REMARK                         _______ _______ _______ _____ _____    ______ ____
ROOT
ATOM      1  F   UNL     1      36.863 -21.251 -17.790  0.00  0.00    -0.204 F 
ATOM      2  C   UNL     1      34.739 -22.312 -17.846  0.00  0.00    +0.023 C 
ATOM      3  C   UNL     1      35.930 -22.004 -17.189  0.00  0.00    +0.138 C 
ATOM      4  C   UNL     1      33.776 -23.096 -17.213  0.00  0.00    -0.000 C 
ATOM      5  C   UNL     1      36.158 -22.480 -15.897  0.00  0.00    +0.029 C 
ATOM      6  C   UNL     1      34.003 -23.572 -15.921  0.00  0.00    -0.000 C 
ATOM      7  C   UNL     1      35.194 -23.264 -15.264  0.00  0.00    +0.002 C 
ENDROOT
BRANCH   7   9
ATOM      8 CL   UNL     1      37.801 -26.366 -11.989  0.00  0.00    -0.082 Cl
ATOM      9  C   UNL     1      35.429 -23.758 -13.925  0.00  0.00    +0.007 C 
ATOM     10  C   UNL     1      36.404 -24.721 -13.664  0.00  0.00    +0.086 C 
ATOM     11  C   UNL     1      34.656 -23.248 -12.881  0.00  0.00    +0.000 C 
ATOM     12  C   UNL     1      36.605 -25.176 -12.360  0.00  0.00    +0.064 C 
ATOM     13  C   UNL     1      34.858 -23.703 -11.577  0.00  0.00    +0.001 C 
ATOM     14  C   UNL     1      35.832 -24.666 -11.318  0.00  0.00    +0.012 C 
BRANCH  10  16
ATOM     15  O   UNL     1      36.889 -26.214 -15.458  0.00  0.00    -0.245 OA
ATOM     16  C   UNL     1      37.214 -25.252 -14.761  0.00  0.00    +0.342 C 
BRANCH  16  17
ATOM     17  O   UNL     1      38.370 -24.541 -14.910  0.00  0.00    -0.441 OA
ATOM     18  C   UNL     1      39.592 -25.251 -14.681  0.00  0.00    +0.256 C 
ENDBRANCH  16  17
ENDBRANCH  10  16
ENDBRANCH   7   9
BRANCH   2  19
ATOM     19  C   UNL     1      34.494 -21.805 -19.227  0.00  0.00    +0.096 C 
ATOM     20  C   UNL     1      33.029 -21.422 -19.485  0.00  0.00    +0.026 C 
BRANCH  19  22
ATOM     21  O   UNL     1      34.176 -19.936 -21.433  0.00  0.00    -0.273 OA
ATOM     22  N   UNL     1      35.341 -20.671 -19.557  0.00  0.00    -0.301 N 
ATOM     23  C   UNL     1      35.098 -19.843 -20.632  0.00  0.00    +0.238 C 
ATOM     24  H   UNL     1      36.121 -20.485 -18.987  0.00  0.00    +0.150 HD
BRANCH  23  25
ATOM     25  C   UNL     1      36.093 -18.742 -20.779  0.00  0.00    +0.126 C 
ATOM     26  C   UNL     1      37.131 -18.891 -21.853  0.00  0.00    +0.029 C 
ATOM     27  C   UNL     1      37.516 -19.047 -20.412  0.00  0.00    +0.029 C 
BRANCH  25  29
ATOM     28  O   UNL     1      35.094 -16.835 -22.691  0.00  0.00    -0.266 OA
ATOM     29  N   UNL     1      35.559 -17.445 -20.497  0.00  0.00    -0.293 N 
ATOM     30  C   UNL     1      35.099 -16.592 -21.488  0.00  0.00    +0.318 C 
ATOM     31  H   UNL     1      35.517 -17.147 -19.559  0.00  0.00    +0.150 HD
BRANCH  30  35
ATOM     32  F   UNL     1      33.238 -15.251 -20.896  0.00  0.00    -0.162 F 
ATOM     33  F   UNL     1      35.003 -14.231 -21.672  0.00  0.00    -0.162 F 
ATOM     34  F   UNL     1      35.028 -15.078 -19.665  0.00  0.00    -0.162 F 
ATOM     35  C   UNL     1      34.594 -15.293 -20.933  0.00  0.00    +0.469 C 
ENDBRANCH  30  35
ENDBRANCH  25  29
ENDBRANCH  23  25
ENDBRANCH  19  22
ENDBRANCH   2  19
TORSDOF 8
ENDMDL
MODEL 6
REMARK VINA RESULT:      -8.7      3.172      4.519
REMARK  Name = 16102897
REMARK  8 active torsions:
REMARK  status: ('A' for Active; 'I' for Inactive)
REMARK    1  A    between atoms: C_2  and  C_19
REMARK    2  A    between atoms: C_7  and  C_9
REMARK    3  A    between atoms: C_10  and  C_16
REMARK    4  A    between atoms: C_16  and  O_17
REMARK    5  A    between atoms: C_19  and  N_22
REMARK    6  A    between atoms: C_23  and  C_25
REMARK    7  A    between atoms: C_25  and  N_29
REMARK    8  A    between atoms: C_30  and  C_35
REMARK                            x       y       z     vdW  Elec       q    Type
REMARK                         _______ _______ _______ _____ _____    ______ ____
ROOT
ATOM      1  F   UNL     1      33.813  -6.308 -21.868  0.00  0.00    -0.204 F 
ATOM      2  C   UNL     1      31.642  -6.814 -22.685  0.00  0.00    +0.023 C 
ATOM      3  C   UNL     1      32.906  -7.217 -22.254  0.00  0.00    +0.138 C 
ATOM      4  C   UNL     1      30.705  -7.766 -23.083  0.00  0.00    -0.000 C 
ATOM      5  C   UNL     1      33.233  -8.573 -22.222  0.00  0.00    +0.029 C 
ATOM      6  C   UNL     1      31.031  -9.122 -23.052  0.00  0.00    -0.000 C 
ATOM      7  C   UNL     1      32.295  -9.525 -22.621  0.00  0.00    +0.002 C 
ENDROOT
BRANCH   7   9
ATOM      8 CL   UNL     1      32.072 -14.168 -20.269  0.00  0.00    -0.082 Cl
ATOM      9  C   UNL     1      32.634 -10.931 -22.589  0.00  0.00    +0.007 C 
ATOM     10  C   UNL     1      32.220 -11.755 -21.542  0.00  0.00    +0.086 C 
ATOM     11  C   UNL     1      33.391 -11.459 -23.634  0.00  0.00    +0.000 C 
ATOM     12  C   UNL     1      32.563 -13.108 -21.541  0.00  0.00    +0.064 C 
ATOM     13  C   UNL     1      33.735 -12.812 -23.633  0.00  0.00    +0.001 C 
ATOM     14  C   UNL     1      33.320 -13.635 -22.587  0.00  0.00    +0.012 C 
BRANCH  10  16
ATOM     15  O   UNL     1      30.194 -11.105 -20.466  0.00  0.00    -0.245 OA
ATOM     16  C   UNL     1      31.423 -11.199 -20.449  0.00  0.00    +0.342 C 
BRANCH  16  17
ATOM     17  O   UNL     1      32.217 -10.802 -19.411  0.00  0.00    -0.441 OA
ATOM     18  C   UNL     1      31.592 -10.015 -18.392  0.00  0.00    +0.256 C 
ENDBRANCH  16  17
ENDBRANCH  10  16
ENDBRANCH   7   9
BRANCH   2  19
ATOM     19  C   UNL     1      31.290  -5.365 -22.720  0.00  0.00    +0.096 C 
ATOM     20  C   UNL     1      31.552  -4.641 -21.391  0.00  0.00    +0.026 C 
BRANCH  19  22
ATOM     21  O   UNL     1      30.116  -3.677 -24.777  0.00  0.00    -0.273 OA
ATOM     22  N   UNL     1      31.979  -4.655 -23.784  0.00  0.00    -0.301 N 
ATOM     23  C   UNL     1      31.322  -3.877 -24.712  0.00  0.00    +0.238 C 
ATOM     24  H   UNL     1      32.959  -4.733 -23.844  0.00  0.00    +0.150 HD
BRANCH  23  25
ATOM     25  C   UNL     1      32.228  -3.239 -25.712  0.00  0.00    +0.126 C 
ATOM     26  C   UNL     1      32.007  -1.786 -26.013  0.00  0.00    +0.029 C 
ATOM     27  C   UNL     1      31.625  -2.827 -27.023  0.00  0.00    +0.029 C 
BRANCH  25  29
ATOM     28  O   UNL     1      33.073  -5.877 -26.498  0.00  0.00    -0.266 OA
ATOM     29  N   UNL     1      33.563  -3.754 -25.686  0.00  0.00    -0.293 N 
ATOM     30  C   UNL     1      33.876  -5.045 -26.086  0.00  0.00    +0.318 C 
ATOM     31  H   UNL     1      34.288  -3.168 -25.370  0.00  0.00    +0.150 HD
BRANCH  30  35
ATOM     32  F   UNL     1      35.735  -6.323 -26.809  0.00  0.00    -0.162 F 
ATOM     33  F   UNL     1      35.669  -5.749 -24.706  0.00  0.00    -0.162 F 
ATOM     34  F   UNL     1      36.106  -4.255 -26.231  0.00  0.00    -0.162 F 
ATOM     35  C   UNL     1      35.340  -5.341 -25.958  0.00  0.00    +0.469 C 
ENDBRANCH  30  35
ENDBRANCH  25  29
ENDBRANCH  23  25
ENDBRANCH  19  22
ENDBRANCH   2  19
TORSDOF 8
ENDMDL
MODEL 7
REMARK VINA RESULT:      -8.6      4.286      8.439
REMARK  Name = 16102897
REMARK  8 active torsions:
REMARK  status: ('A' for Active; 'I' for Inactive)
REMARK    1  A    between atoms: C_2  and  C_19
REMARK    2  A    between atoms: C_7  and  C_9
REMARK    3  A    between atoms: C_10  and  C_16
REMARK    4  A    between atoms: C_16  and  O_17
REMARK    5  A    between atoms: C_19  and  N_22
REMARK    6  A    between atoms: C_23  and  C_25
REMARK    7  A    between atoms: C_25  and  N_29
REMARK    8  A    between atoms: C_30  and  C_35
REMARK                            x       y       z     vdW  Elec       q    Type
REMARK                         _______ _______ _______ _____ _____    ______ ____
ROOT
ATOM      1  F   UNL     1      35.271  -9.117 -23.232  0.00  0.00    -0.204 F 
ATOM      2  C   UNL     1      32.990  -9.453 -23.800  0.00  0.00    +0.023 C 
ATOM      3  C   UNL     1      34.071  -8.608 -23.547  0.00  0.00    +0.138 C 
ATOM      4  C   UNL     1      31.747  -8.914 -24.128  0.00  0.00    -0.000 C 
ATOM      5  C   UNL     1      33.909  -7.224 -23.622  0.00  0.00    +0.029 C 
ATOM      6  C   UNL     1      31.583  -7.531 -24.202  0.00  0.00    -0.000 C 
ATOM      7  C   UNL     1      32.664  -6.686 -23.949  0.00  0.00    +0.002 C 
ENDROOT
BRANCH   7   9
ATOM      8 CL   UNL     1      31.134  -2.198 -21.790  0.00  0.00    -0.082 Cl
ATOM      9  C   UNL     1      32.495  -5.252 -24.027  0.00  0.00    +0.007 C 
ATOM     10  C   UNL     1      31.951  -4.524 -22.968  0.00  0.00    +0.086 C 
ATOM     11  C   UNL     1      32.890  -4.596 -25.192  0.00  0.00    +0.000 C 
ATOM     12  C   UNL     1      31.801  -3.141 -23.075  0.00  0.00    +0.064 C 
ATOM     13  C   UNL     1      32.741  -3.212 -25.300  0.00  0.00    +0.001 C 
ATOM     14  C   UNL     1      32.197  -2.486 -24.241  0.00  0.00    +0.012 C 
BRANCH  10  16
ATOM     15  O   UNL     1      30.425  -5.713 -21.574  0.00  0.00    -0.245 OA
ATOM     16  C   UNL     1      31.540  -5.215 -21.746  0.00  0.00    +0.342 C 
BRANCH  16  17
ATOM     17  O   UNL     1      32.549  -5.238 -20.827  0.00  0.00    -0.441 OA
ATOM     18  C   UNL     1      32.864  -6.512 -20.254  0.00  0.00    +0.256 C 
ENDBRANCH  16  17
ENDBRANCH  10  16
ENDBRANCH   7   9
BRANCH   2  19
ATOM     19  C   UNL     1      33.162 -10.932 -23.721  0.00  0.00    +0.096 C 
ATOM     20  C   UNL     1      34.467 -11.430 -24.359  0.00  0.00    +0.026 C 
BRANCH  19  22
ATOM     21  O   UNL     1      32.141 -13.499 -22.812  0.00  0.00    -0.273 OA
ATOM     22  N   UNL     1      33.089 -11.424 -22.355  0.00  0.00    -0.301 N 
ATOM     23  C   UNL     1      32.585 -12.665 -22.033  0.00  0.00    +0.238 C 
ATOM     24  H   UNL     1      33.416 -10.845 -21.629  0.00  0.00    +0.150 HD
BRANCH  23  25
ATOM     25  C   UNL     1      32.609 -12.963 -20.571  0.00  0.00    +0.126 C 
ATOM     26  C   UNL     1      33.625 -13.956 -20.088  0.00  0.00    +0.029 C 
ATOM     27  C   UNL     1      32.174 -14.333 -20.141  0.00  0.00    +0.029 C 
BRANCH  25  29
ATOM     28  O   UNL     1      30.332 -11.223 -20.853  0.00  0.00    -0.266 OA
ATOM     29  N   UNL     1      32.287 -11.835 -19.752  0.00  0.00    -0.293 N 
ATOM     30  C   UNL     1      31.162 -11.052 -19.964  0.00  0.00    +0.318 C 
ATOM     31  H   UNL     1      32.888 -11.606 -19.006  0.00  0.00    +0.150 HD
BRANCH  30  35
ATOM     32  F   UNL     1      29.881  -9.971 -18.290  0.00  0.00    -0.162 F 
ATOM     33  F   UNL     1      31.119  -8.715 -19.573  0.00  0.00    -0.162 F 
ATOM     34  F   UNL     1      32.048  -9.968 -18.051  0.00  0.00    -0.162 F 
ATOM     35  C   UNL     1      31.054  -9.931 -18.974  0.00  0.00    +0.469 C 
ENDBRANCH  30  35
ENDBRANCH  25  29
ENDBRANCH  23  25
ENDBRANCH  19  22
ENDBRANCH   2  19
TORSDOF 8
ENDMDL
MODEL 8
REMARK VINA RESULT:      -8.5      2.027      2.342
REMARK  Name = 16102897
REMARK  8 active torsions:
REMARK  status: ('A' for Active; 'I' for Inactive)
REMARK    1  A    between atoms: C_2  and  C_19
REMARK    2  A    between atoms: C_7  and  C_9
REMARK    3  A    between atoms: C_10  and  C_16
REMARK    4  A    between atoms: C_16  and  O_17
REMARK    5  A    between atoms: C_19  and  N_22
REMARK    6  A    between atoms: C_23  and  C_25
REMARK    7  A    between atoms: C_25  and  N_29
REMARK    8  A    between atoms: C_30  and  C_35
REMARK                            x       y       z     vdW  Elec       q    Type
REMARK                         _______ _______ _______ _____ _____    ______ ____
ROOT
ATOM      1  F   UNL     1      30.521 -11.323 -21.465  0.00  0.00    -0.204 F 
ATOM      2  C   UNL     1      32.395 -10.396 -22.589  0.00  0.00    +0.023 C 
ATOM      3  C   UNL     1      31.670 -11.496 -22.133  0.00  0.00    +0.138 C 
ATOM      4  C   UNL     1      33.589 -10.586 -23.284  0.00  0.00    -0.000 C 
ATOM      5  C   UNL     1      32.140 -12.789 -22.370  0.00  0.00    +0.029 C 
ATOM      6  C   UNL     1      34.060 -11.878 -23.520  0.00  0.00    -0.000 C 
ATOM      7  C   UNL     1      33.335 -12.979 -23.064  0.00  0.00    +0.002 C 
ENDROOT
BRANCH   7   9
ATOM      8 CL   UNL     1      35.536 -17.372 -21.331  0.00  0.00    -0.082 Cl
ATOM      9  C   UNL     1      33.822 -14.318 -23.310  0.00  0.00    +0.007 C 
ATOM     10  C   UNL     1      34.379 -15.090 -22.290  0.00  0.00    +0.086 C 
ATOM     11  C   UNL     1      33.725 -14.836 -24.602  0.00  0.00    +0.000 C 
ATOM     12  C   UNL     1      34.840 -16.379 -22.562  0.00  0.00    +0.064 C 
ATOM     13  C   UNL     1      34.185 -16.125 -24.873  0.00  0.00    +0.001 C 
ATOM     14  C   UNL     1      34.742 -16.896 -23.853  0.00  0.00    +0.012 C 
BRANCH  10  16
ATOM     15  O   UNL     1      35.257 -13.649 -20.606  0.00  0.00    -0.245 OA
ATOM     16  C   UNL     1      34.478 -14.544 -20.936  0.00  0.00    +0.342 C 
BRANCH  16  17
ATOM     17  O   UNL     1      33.594 -15.154 -20.092  0.00  0.00    -0.441 OA
ATOM     18  C   UNL     1      32.509 -14.351 -19.615  0.00  0.00    +0.256 C 
ENDBRANCH  16  17
ENDBRANCH  10  16
ENDBRANCH   7   9
BRANCH   2  19
ATOM     19  C   UNL     1      31.895  -9.013 -22.337  0.00  0.00    +0.096 C 
ATOM     20  C   UNL     1      31.662  -8.711 -20.849  0.00  0.00    +0.026 C 
BRANCH  19  22
ATOM     21  O   UNL     1      31.733  -7.758 -24.955  0.00  0.00    -0.273 OA
ATOM     22  N   UNL     1      32.776  -7.998 -22.889  0.00  0.00    -0.301 N 
ATOM     23  C   UNL     1      32.608  -7.467 -24.149  0.00  0.00    +0.238 C 
ATOM     24  H   UNL     1      33.525  -7.675 -22.338  0.00  0.00    +0.150 HD
BRANCH  23  25
ATOM     25  C   UNL     1      33.627  -6.437 -24.509  0.00  0.00    +0.126 C 
ATOM     26  C   UNL     1      34.990  -6.926 -24.903  0.00  0.00    +0.029 C 
ATOM     27  C   UNL     1      34.787  -6.262 -23.573  0.00  0.00    +0.029 C 
BRANCH  25  29
ATOM     28  O   UNL     1      33.312  -6.060 -27.346  0.00  0.00    -0.266 OA
ATOM     29  N   UNL     1      33.076  -5.291 -25.165  0.00  0.00    -0.293 N 
ATOM     30  C   UNL     1      32.964  -5.198 -26.543  0.00  0.00    +0.318 C 
ATOM     31  H   UNL     1      32.765  -4.537 -24.613  0.00  0.00    +0.150 HD
BRANCH  30  35
ATOM     32  F   UNL     1      33.182  -2.846 -26.725  0.00  0.00    -0.162 F 
ATOM     33  F   UNL     1      31.187  -3.643 -26.347  0.00  0.00    -0.162 F 
ATOM     34  F   UNL     1      32.100  -3.877 -28.311  0.00  0.00    -0.162 F 
ATOM     35  C   UNL     1      32.360  -3.897 -26.980  0.00  0.00    +0.469 C 
ENDBRANCH  30  35
ENDBRANCH  25  29
ENDBRANCH  23  25
ENDBRANCH  19  22
ENDBRANCH   2  19
TORSDOF 8
ENDMDL
MODEL 9
REMARK VINA RESULT:      -8.4      4.465      8.786
REMARK  Name = 16102897
REMARK  8 active torsions:
REMARK  status: ('A' for Active; 'I' for Inactive)
REMARK    1  A    between atoms: C_2  and  C_19
REMARK    2  A    between atoms: C_7  and  C_9
REMARK    3  A    between atoms: C_10  and  C_16
REMARK    4  A    between atoms: C_16  and  O_17
REMARK    5  A    between atoms: C_19  and  N_22
REMARK    6  A    between atoms: C_23  and  C_25
REMARK    7  A    between atoms: C_25  and  N_29
REMARK    8  A    between atoms: C_30  and  C_35
REMARK                            x       y       z     vdW  Elec       q    Type
REMARK                         _______ _______ _______ _____ _____    ______ ____
ROOT
ATOM      1  F   UNL     1      30.503  -9.693 -23.031  0.00  0.00    -0.204 F 
ATOM      2  C   UNL     1      32.840  -9.335 -23.256  0.00  0.00    +0.023 C 
ATOM      3  C   UNL     1      31.542  -8.848 -23.101  0.00  0.00    +0.138 C 
ATOM      4  C   UNL     1      33.913  -8.448 -23.327  0.00  0.00    -0.000 C 
ATOM      5  C   UNL     1      31.317  -7.473 -23.018  0.00  0.00    +0.029 C 
ATOM      6  C   UNL     1      33.690  -7.074 -23.245  0.00  0.00    -0.000 C 
ATOM      7  C   UNL     1      32.392  -6.587 -23.090  0.00  0.00    +0.002 C 
ENDROOT
BRANCH   7   9
ATOM      8 CL   UNL     1      32.535  -1.850 -25.256  0.00  0.00    -0.082 Cl
ATOM      9  C   UNL     1      32.160  -5.162 -23.004  0.00  0.00    +0.007 C 
ATOM     10  C   UNL     1      32.441  -4.312 -24.074  0.00  0.00    +0.086 C 
ATOM     11  C   UNL     1      31.643  -4.641 -21.817  0.00  0.00    +0.000 C 
ATOM     12  C   UNL     1      32.205  -2.941 -23.957  0.00  0.00    +0.064 C 
ATOM     13  C   UNL     1      31.407  -3.270 -21.701  0.00  0.00    +0.001 C 
ATOM     14  C   UNL     1      31.688  -2.422 -22.771  0.00  0.00    +0.012 C 
BRANCH  10  16
ATOM     15  O   UNL     1      32.293  -5.369 -26.205  0.00  0.00    -0.245 OA
ATOM     16  C   UNL     1      32.981  -4.862 -25.317  0.00  0.00    +0.342 C 
BRANCH  16  17
ATOM     17  O   UNL     1      34.339  -4.736 -25.364  0.00  0.00    -0.441 OA
ATOM     18  C   UNL     1      34.896  -4.263 -26.596  0.00  0.00    +0.256 C 
ENDBRANCH  16  17
ENDBRANCH  10  16
ENDBRANCH   7   9
BRANCH   2  19
ATOM     19  C   UNL     1      33.082 -10.804 -23.345  0.00  0.00    +0.096 C 
ATOM     20  C   UNL     1      34.380 -11.165 -24.083  0.00  0.00    +0.026 C 
BRANCH  19  22
ATOM     21  O   UNL     1      31.961 -13.390 -22.627  0.00  0.00    -0.273 OA
ATOM     22  N   UNL     1      33.091 -11.443 -22.040  0.00  0.00    -0.301 N 
ATOM     23  C   UNL     1      32.528 -12.678 -21.807  0.00  0.00    +0.238 C 
ATOM     24  H   UNL     1      33.520 -10.971 -21.289  0.00  0.00    +0.150 HD
BRANCH  23  25
ATOM     25  C   UNL     1      32.656 -13.141 -20.394  0.00  0.00    +0.126 C 
ATOM     26  C   UNL     1      33.539 -14.327 -20.136  0.00  0.00    +0.029 C 
ATOM     27  C   UNL     1      32.048 -14.468 -20.048  0.00  0.00    +0.029 C 
BRANCH  25  29
ATOM     28  O   UNL     1      30.676 -11.058 -20.224  0.00  0.00    -0.266 OA
ATOM     29  N   UNL     1      32.611 -12.078 -19.437  0.00  0.00    -0.293 N 
ATOM     30  C   UNL     1      31.613 -11.116 -19.433  0.00  0.00    +0.318 C 
ATOM     31  H   UNL     1      33.319 -12.029 -18.754  0.00  0.00    +0.150 HD
BRANCH  30  35
ATOM     32  F   UNL     1      33.047  -9.582 -18.335  0.00  0.00    -0.162 F 
ATOM     33  F   UNL     1      31.599 -10.657 -17.108  0.00  0.00    -0.162 F 
ATOM     34  F   UNL     1      30.930  -9.072 -18.445  0.00  0.00    -0.162 F 
ATOM     35  C   UNL     1      31.796 -10.111 -18.334  0.00  0.00    +0.469 C 
ENDBRANCH  30  35
ENDBRANCH  25  29
ENDBRANCH  23  25
ENDBRANCH  19  22
ENDBRANCH   2  19
TORSDOF 8
ENDMDL
