MODEL 1
REMARK VINA RESULT:     -12.5      0.000      0.000
REMARK  Name = 11952989
REMARK  5 active torsions:
REMARK  status: ('A' for Active; 'I' for Inactive)
REMARK    1  A    between atoms: C_4  and  C_21
REMARK    2  A    between atoms: C_6  and  C_11
REMARK    3  A    between atoms: C_24  and  C_27
REMARK    4  A    between atoms: C_27  and  C_29
REMARK    5  A    between atoms: C_29  and  O_30
REMARK                            x       y       z     vdW  Elec       q    Type
REMARK                         _______ _______ _______ _____ _____    ______ ____
ROOT
ATOM      1  N   UNL     1      33.641 -14.643 -25.431  0.00  0.00    -0.297 N 
ATOM      2  N   UNL     1      34.685 -16.784 -25.071  0.00  0.00    -0.229 NA
ATOM      3  C   UNL     1      33.864 -15.292 -23.307  0.00  0.00    +0.033 C 
ATOM      4  C   UNL     1      33.234 -14.019 -23.335  0.00  0.00    +0.017 C 
ATOM      5  C   UNL     1      34.104 -15.653 -24.629  0.00  0.00    +0.132 C 
ATOM      6  C   UNL     1      34.870 -17.381 -22.711  0.00  0.00    +0.019 C 
ATOM      7  C   UNL     1      34.263 -16.194 -22.308  0.00  0.00    +0.004 C 
ATOM      8  C   UNL     1      33.110 -13.646 -24.656  0.00  0.00    +0.063 C 
ATOM      9  C   UNL     1      35.049 -17.616 -24.067  0.00  0.00    +0.100 C 
ATOM     10  H   UNL     1      33.683 -14.636 -26.416  0.00  0.00    +0.154 HD
ENDROOT
BRANCH   6  11
ATOM     11  C   UNL     1      35.306 -18.353 -21.731  0.00  0.00    +0.001 C 
ATOM     12  C   UNL     1      34.788 -20.178 -20.209  0.00  0.00    +0.000 C 
ATOM     13  C   UNL     1      34.382 -19.230 -21.161  0.00  0.00    +0.000 C 
ATOM     14  C   UNL     1      36.151 -20.239 -19.829  0.00  0.00    +0.000 C 
ATOM     15  C   UNL     1      36.645 -18.412 -21.358  0.00  0.00    +0.000 C 
ATOM     16  C   UNL     1      37.066 -19.349 -20.414  0.00  0.00    +0.000 C 
ATOM     17  C   UNL     1      33.872 -21.069 -19.624  0.00  0.00    +0.000 C 
ATOM     18  C   UNL     1      36.556 -21.188 -18.877  0.00  0.00    +0.000 C 
ATOM     19  C   UNL     1      34.294 -22.005 -18.679  0.00  0.00    +0.000 C 
ATOM     20  C   UNL     1      35.633 -22.065 -18.306  0.00  0.00    +0.000 C 
ENDBRANCH   6  11
BRANCH   4  21
ATOM     21  C   UNL     1      32.775 -13.193 -22.256  0.00  0.00    +0.001 C 
ATOM     22  C   UNL     1      32.396 -11.872 -22.499  0.00  0.00    -0.000 C 
ATOM     23  C   UNL     1      32.707 -13.709 -20.961  0.00  0.00    -0.000 C 
ATOM     24  C   UNL     1      31.882 -11.587 -20.156  0.00  0.00    -0.011 C 
ATOM     25  C   UNL     1      31.950 -11.070 -21.450  0.00  0.00    -0.004 C 
ATOM     26  C   UNL     1      32.261 -12.907 -19.911  0.00  0.00    -0.004 C 
BRANCH  24  27
ATOM     27  C   UNL     1      31.402 -10.728 -19.034  0.00  0.00    +0.136 C 
BRANCH  27  29
ATOM     28  O   UNL     1      31.649  -8.349 -19.493  0.00  0.00    -0.250 OA
ATOM     29  C   UNL     1      32.079  -9.373 -18.979  0.00  0.00    +0.318 C 
BRANCH  29  30
ATOM     30  O   UNL     1      33.243  -9.416 -18.279  0.00  0.00    -0.480 OA
ATOM     31  H   UNL     1      33.421 -10.139 -17.709  0.00  0.00    +0.295 HD
ENDBRANCH  29  30
ENDBRANCH  27  29
ENDBRANCH  24  27
ENDBRANCH   4  21
TORSDOF 5
ENDMDL
MODEL 2
REMARK VINA RESULT:     -12.2      7.124     10.744
REMARK  Name = 11952989
REMARK  5 active torsions:
REMARK  status: ('A' for Active; 'I' for Inactive)
REMARK    1  A    between atoms: C_4  and  C_21
REMARK    2  A    between atoms: C_6  and  C_11
REMARK    3  A    between atoms: C_24  and  C_27
REMARK    4  A    between atoms: C_27  and  C_29
REMARK    5  A    between atoms: C_29  and  O_30
REMARK                            x       y       z     vdW  Elec       q    Type
REMARK                         _______ _______ _______ _____ _____    ______ ____
ROOT
ATOM      1  N   UNL     1      33.255 -25.154 -13.295  0.00  0.00    -0.297 N 
ATOM      2  N   UNL     1      35.216 -24.432 -14.494  0.00  0.00    -0.229 NA
ATOM      3  C   UNL     1      32.913 -23.761 -15.006  0.00  0.00    +0.033 C 
ATOM      4  C   UNL     1      31.661 -24.081 -14.416  0.00  0.00    +0.017 C 
ATOM      5  C   UNL     1      33.886 -24.445 -14.283  0.00  0.00    +0.132 C 
ATOM      6  C   UNL     1      34.713 -22.914 -16.339  0.00  0.00    +0.019 C 
ATOM      7  C   UNL     1      33.346 -22.962 -16.077  0.00  0.00    +0.004 C 
ATOM      8  C   UNL     1      31.903 -24.940 -13.366  0.00  0.00    +0.063 C 
ATOM      9  C   UNL     1      35.576 -23.648 -15.537  0.00  0.00    +0.100 C 
ATOM     10  H   UNL     1      33.705 -25.730 -12.633  0.00  0.00    +0.154 HD
ENDROOT
BRANCH   6  11
ATOM     11  C   UNL     1      35.224 -22.111 -17.429  0.00  0.00    +0.001 C 
ATOM     12  C   UNL     1      34.836 -20.871 -19.486  0.00  0.00    +0.000 C 
ATOM     13  C   UNL     1      34.357 -21.651 -18.421  0.00  0.00    +0.000 C 
ATOM     14  C   UNL     1      36.215 -20.553 -19.545  0.00  0.00    +0.000 C 
ATOM     15  C   UNL     1      36.579 -21.798 -17.487  0.00  0.00    +0.000 C 
ATOM     16  C   UNL     1      37.072 -21.024 -18.537  0.00  0.00    +0.000 C 
ATOM     17  C   UNL     1      33.979 -20.399 -20.493  0.00  0.00    +0.000 C 
ATOM     18  C   UNL     1      36.694 -19.773 -20.610  0.00  0.00    +0.000 C 
ATOM     19  C   UNL     1      34.474 -19.626 -21.544  0.00  0.00    +0.000 C 
ATOM     20  C   UNL     1      35.828 -19.313 -21.602  0.00  0.00    +0.000 C 
ENDBRANCH   6  11
BRANCH   4  21
ATOM     21  C   UNL     1      30.339 -23.650 -14.769  0.00  0.00    +0.001 C 
ATOM     22  C   UNL     1      29.863 -22.418 -14.318  0.00  0.00    -0.000 C 
ATOM     23  C   UNL     1      29.528 -24.461 -15.564  0.00  0.00    -0.000 C 
ATOM     24  C   UNL     1      27.768 -22.811 -15.455  0.00  0.00    -0.011 C 
ATOM     25  C   UNL     1      28.578 -22.000 -14.661  0.00  0.00    -0.004 C 
ATOM     26  C   UNL     1      28.243 -24.042 -15.907  0.00  0.00    -0.004 C 
BRANCH  24  27
ATOM     27  C   UNL     1      26.394 -22.360 -15.824  0.00  0.00    +0.136 C 
BRANCH  27  29
ATOM     28  O   UNL     1      26.314 -20.461 -17.346  0.00  0.00    -0.250 OA
ATOM     29  C   UNL     1      26.325 -21.672 -17.172  0.00  0.00    +0.318 C 
BRANCH  29  30
ATOM     30  O   UNL     1      26.277 -22.566 -18.196  0.00  0.00    -0.480 OA
ATOM     31  H   UNL     1      26.930 -23.235 -18.264  0.00  0.00    +0.295 HD
ENDBRANCH  29  30
ENDBRANCH  27  29
ENDBRANCH  24  27
ENDBRANCH   4  21
TORSDOF 5
ENDMDL
MODEL 3
REMARK VINA RESULT:     -12.1      7.646     12.239
REMARK  Name = 11952989
REMARK  5 active torsions:
REMARK  status: ('A' for Active; 'I' for Inactive)
REMARK    1  A    between atoms: C_4  and  C_21
REMARK    2  A    between atoms: C_6  and  C_11
REMARK    3  A    between atoms: C_24  and  C_27
REMARK    4  A    between atoms: C_27  and  C_29
REMARK    5  A    between atoms: C_29  and  O_30
REMARK                            x       y       z     vdW  Elec       q    Type
REMARK                         _______ _______ _______ _____ _____    ______ ____
ROOT
ATOM      1  N   UNL     1      31.949 -24.529 -14.068  0.00  0.00    -0.297 N 
ATOM      2  N   UNL     1      31.265 -23.123 -15.901  0.00  0.00    -0.229 NA
ATOM      3  C   UNL     1      33.574 -23.786 -15.406  0.00  0.00    +0.033 C 
ATOM      4  C   UNL     1      34.149 -24.593 -14.389  0.00  0.00    +0.017 C 
ATOM      5  C   UNL     1      32.201 -23.766 -15.178  0.00  0.00    +0.132 C 
ATOM      6  C   UNL     1      33.129 -22.376 -17.290  0.00  0.00    +0.019 C 
ATOM      7  C   UNL     1      34.056 -23.061 -16.508  0.00  0.00    +0.004 C 
ATOM      8  C   UNL     1      33.125 -25.036 -13.581  0.00  0.00    +0.063 C 
ATOM      9  C   UNL     1      31.785 -22.442 -16.948  0.00  0.00    +0.100 C 
ATOM     10  H   UNL     1      31.057 -24.689 -13.679  0.00  0.00    +0.154 HD
ENDROOT
BRANCH   6  11
ATOM     11  C   UNL     1      33.560 -21.610 -18.439  0.00  0.00    +0.001 C 
ATOM     12  C   UNL     1      35.348 -20.562 -19.714  0.00  0.00    +0.000 C 
ATOM     13  C   UNL     1      34.912 -21.306 -18.605  0.00  0.00    +0.000 C 
ATOM     14  C   UNL     1      34.399 -20.121 -20.668  0.00  0.00    +0.000 C 
ATOM     15  C   UNL     1      32.627 -21.176 -19.376  0.00  0.00    +0.000 C 
ATOM     16  C   UNL     1      33.042 -20.437 -20.484  0.00  0.00    +0.000 C 
ATOM     17  C   UNL     1      36.704 -20.247 -19.898  0.00  0.00    +0.000 C 
ATOM     18  C   UNL     1      34.835 -19.378 -21.777  0.00  0.00    +0.000 C 
ATOM     19  C   UNL     1      37.118 -19.507 -21.007  0.00  0.00    +0.000 C 
ATOM     20  C   UNL     1      36.186 -19.073 -21.944  0.00  0.00    +0.000 C 
ENDBRANCH   6  11
BRANCH   4  21
ATOM     21  C   UNL     1      35.520 -24.944 -14.156  0.00  0.00    +0.001 C 
ATOM     22  C   UNL     1      36.036 -26.132 -14.674  0.00  0.00    -0.000 C 
ATOM     23  C   UNL     1      36.341 -24.096 -13.410  0.00  0.00    -0.000 C 
ATOM     24  C   UNL     1      38.189 -25.624 -13.702  0.00  0.00    -0.011 C 
ATOM     25  C   UNL     1      37.369 -26.471 -14.447  0.00  0.00    -0.004 C 
ATOM     26  C   UNL     1      37.674 -24.436 -13.183  0.00  0.00    -0.004 C 
BRANCH  24  27
ATOM     27  C   UNL     1      39.616 -25.987 -13.462  0.00  0.00    +0.136 C 
BRANCH  27  29
ATOM     28  O   UNL     1      41.283 -24.427 -14.308  0.00  0.00    -0.250 OA
ATOM     29  C   UNL     1      40.568 -25.405 -14.486  0.00  0.00    +0.318 C 
BRANCH  29  30
ATOM     30  O   UNL     1      40.544 -26.101 -15.654  0.00  0.00    -0.480 OA
ATOM     31  H   UNL     1      41.008 -25.777 -16.402  0.00  0.00    +0.295 HD
ENDBRANCH  29  30
ENDBRANCH  27  29
ENDBRANCH  24  27
ENDBRANCH   4  21
TORSDOF 5
ENDMDL
MODEL 4
REMARK VINA RESULT:     -11.5      6.693     10.439
REMARK  Name = 11952989
REMARK  5 active torsions:
REMARK  status: ('A' for Active; 'I' for Inactive)
REMARK    1  A    between atoms: C_4  and  C_21
REMARK    2  A    between atoms: C_6  and  C_11
REMARK    3  A    between atoms: C_24  and  C_27
REMARK    4  A    between atoms: C_27  and  C_29
REMARK    5  A    between atoms: C_29  and  O_30
REMARK                            x       y       z     vdW  Elec       q    Type
REMARK                         _______ _______ _______ _____ _____    ______ ____
ROOT
ATOM      1  N   UNL     1      36.071 -23.971 -14.081  0.00  0.00    -0.297 N 
ATOM      2  N   UNL     1      37.453 -22.855 -15.708  0.00  0.00    -0.229 NA
ATOM      3  C   UNL     1      35.002 -22.903 -15.724  0.00  0.00    +0.033 C 
ATOM      4  C   UNL     1      34.042 -23.498 -14.863  0.00  0.00    +0.017 C 
ATOM      5  C   UNL     1      36.256 -23.216 -15.209  0.00  0.00    +0.132 C 
ATOM      6  C   UNL     1      36.170 -21.724 -17.450  0.00  0.00    +0.019 C 
ATOM      7  C   UNL     1      34.958 -22.124 -16.892  0.00  0.00    +0.004 C 
ATOM      8  C   UNL     1      34.730 -24.149 -13.861  0.00  0.00    +0.063 C 
ATOM      9  C   UNL     1      37.352 -22.108 -16.832  0.00  0.00    +0.100 C 
ATOM     10  H   UNL     1      36.792 -24.332 -13.514  0.00  0.00    +0.154 HD
ENDROOT
BRANCH   6  11
ATOM     11  C   UNL     1      36.195 -20.922 -18.654  0.00  0.00    +0.001 C 
ATOM     12  C   UNL     1      35.079 -20.096 -20.651  0.00  0.00    +0.000 C 
ATOM     13  C   UNL     1      35.072 -20.869 -19.479  0.00  0.00    +0.000 C 
ATOM     14  C   UNL     1      36.243 -19.365 -20.991  0.00  0.00    +0.000 C 
ATOM     15  C   UNL     1      37.340 -20.204 -18.987  0.00  0.00    +0.000 C 
ATOM     16  C   UNL     1      37.365 -19.430 -20.148  0.00  0.00    +0.000 C 
ATOM     17  C   UNL     1      33.957 -20.031 -21.494  0.00  0.00    +0.000 C 
ATOM     18  C   UNL     1      36.250 -18.592 -22.163  0.00  0.00    +0.000 C 
ATOM     19  C   UNL     1      33.984 -19.257 -22.655  0.00  0.00    +0.000 C 
ATOM     20  C   UNL     1      35.127 -18.539 -22.989  0.00  0.00    +0.000 C 
ENDBRANCH   6  11
BRANCH   4  21
ATOM     21  C   UNL     1      32.610 -23.488 -14.931  0.00  0.00    +0.001 C 
ATOM     22  C   UNL     1      31.854 -23.841 -13.812  0.00  0.00    -0.000 C 
ATOM     23  C   UNL     1      31.969 -23.124 -16.116  0.00  0.00    -0.000 C 
ATOM     24  C   UNL     1      29.822 -23.466 -15.064  0.00  0.00    -0.011 C 
ATOM     25  C   UNL     1      30.461 -23.830 -13.879  0.00  0.00    -0.004 C 
ATOM     26  C   UNL     1      30.576 -23.113 -16.183  0.00  0.00    -0.004 C 
BRANCH  24  27
ATOM     27  C   UNL     1      28.332 -23.453 -15.133  0.00  0.00    +0.136 C 
BRANCH  27  29
ATOM     28  O   UNL     1      27.610 -21.653 -16.607  0.00  0.00    -0.250 OA
ATOM     29  C   UNL     1      27.792 -22.848 -16.414  0.00  0.00    +0.318 C 
BRANCH  29  30
ATOM     30  O   UNL     1      27.524 -23.798 -17.349  0.00  0.00    -0.480 OA
ATOM     31  H   UNL     1      28.215 -24.134 -17.886  0.00  0.00    +0.295 HD
ENDBRANCH  29  30
ENDBRANCH  27  29
ENDBRANCH  24  27
ENDBRANCH   4  21
TORSDOF 5
ENDMDL
MODEL 5
REMARK VINA RESULT:     -11.1      7.040     11.149
REMARK  Name = 11952989
REMARK  5 active torsions:
REMARK  status: ('A' for Active; 'I' for Inactive)
REMARK    1  A    between atoms: C_4  and  C_21
REMARK    2  A    between atoms: C_6  and  C_11
REMARK    3  A    between atoms: C_24  and  C_27
REMARK    4  A    between atoms: C_27  and  C_29
REMARK    5  A    between atoms: C_29  and  O_30
REMARK                            x       y       z     vdW  Elec       q    Type
REMARK                         _______ _______ _______ _____ _____    ______ ____
ROOT
ATOM      1  N   UNL     1      36.532 -23.966 -13.904  0.00  0.00    -0.297 N 
ATOM      2  N   UNL     1      37.534 -22.713 -15.702  0.00  0.00    -0.229 NA
ATOM      3  C   UNL     1      35.144 -23.221 -15.486  0.00  0.00    +0.033 C 
ATOM      4  C   UNL     1      34.392 -23.931 -14.513  0.00  0.00    +0.017 C 
ATOM      5  C   UNL     1      36.474 -23.260 -15.077  0.00  0.00    +0.132 C 
ATOM      6  C   UNL     1      35.917 -21.954 -17.366  0.00  0.00    +0.019 C 
ATOM      7  C   UNL     1      34.855 -22.539 -16.680  0.00  0.00    +0.004 C 
ATOM      8  C   UNL     1      35.274 -24.378 -13.552  0.00  0.00    +0.063 C 
ATOM      9  C   UNL     1      37.197 -22.070 -16.844  0.00  0.00    +0.100 C 
ATOM     10  H   UNL     1      37.354 -24.148 -13.392  0.00  0.00    +0.154 HD
ENDROOT
BRANCH   6  11
ATOM     11  C   UNL     1      35.686 -21.238 -18.602  0.00  0.00    +0.001 C 
ATOM     12  C   UNL     1      36.499 -19.761 -20.357  0.00  0.00    +0.000 C 
ATOM     13  C   UNL     1      36.705 -20.463 -19.158  0.00  0.00    +0.000 C 
ATOM     14  C   UNL     1      35.241 -19.846 -21.001  0.00  0.00    +0.000 C 
ATOM     15  C   UNL     1      34.450 -21.322 -19.235  0.00  0.00    +0.000 C 
ATOM     16  C   UNL     1      34.227 -20.631 -20.426  0.00  0.00    +0.000 C 
ATOM     17  C   UNL     1      37.512 -18.976 -20.931  0.00  0.00    +0.000 C 
ATOM     18  C   UNL     1      35.034 -19.144 -22.199  0.00  0.00    +0.000 C 
ATOM     19  C   UNL     1      37.288 -18.286 -22.122  0.00  0.00    +0.000 C 
ATOM     20  C   UNL     1      36.052 -18.369 -22.756  0.00  0.00    +0.000 C 
ENDBRANCH   6  11
BRANCH   4  21
ATOM     21  C   UNL     1      32.984 -24.193 -14.447  0.00  0.00    +0.001 C 
ATOM     22  C   UNL     1      32.135 -23.705 -15.441  0.00  0.00    -0.000 C 
ATOM     23  C   UNL     1      32.460 -24.938 -13.389  0.00  0.00    -0.000 C 
ATOM     24  C   UNL     1      30.244 -24.706 -14.319  0.00  0.00    -0.011 C 
ATOM     25  C   UNL     1      30.766 -23.961 -15.377  0.00  0.00    -0.004 C 
ATOM     26  C   UNL     1      31.091 -25.194 -13.325  0.00  0.00    -0.004 C 
BRANCH  24  27
ATOM     27  C   UNL     1      28.779 -24.981 -14.253  0.00  0.00    +0.136 C 
BRANCH  27  29
ATOM     28  O   UNL     1      27.860 -24.787 -16.500  0.00  0.00    -0.250 OA
ATOM     29  C   UNL     1      27.991 -24.330 -15.372  0.00  0.00    +0.318 C 
BRANCH  29  30
ATOM     30  O   UNL     1      27.430 -23.155 -14.980  0.00  0.00    -0.480 OA
ATOM     31  H   UNL     1      27.693 -22.757 -14.174  0.00  0.00    +0.295 HD
ENDBRANCH  29  30
ENDBRANCH  27  29
ENDBRANCH  24  27
ENDBRANCH   4  21
TORSDOF 5
ENDMDL
MODEL 6
REMARK VINA RESULT:     -10.7      5.519     10.870
REMARK  Name = 11952989
REMARK  5 active torsions:
REMARK  status: ('A' for Active; 'I' for Inactive)
REMARK    1  A    between atoms: C_4  and  C_21
REMARK    2  A    between atoms: C_6  and  C_11
REMARK    3  A    between atoms: C_24  and  C_27
REMARK    4  A    between atoms: C_27  and  C_29
REMARK    5  A    between atoms: C_29  and  O_30
REMARK                            x       y       z     vdW  Elec       q    Type
REMARK                         _______ _______ _______ _____ _____    ______ ____
ROOT
ATOM      1  N   UNL     1      31.113 -11.054 -20.179  0.00  0.00    -0.297 N 
ATOM      2  N   UNL     1      31.454  -8.745 -20.775  0.00  0.00    -0.229 NA
ATOM      3  C   UNL     1      32.490 -10.666 -21.893  0.00  0.00    +0.033 C 
ATOM      4  C   UNL     1      32.404 -12.068 -21.681  0.00  0.00    +0.017 C 
ATOM      5  C   UNL     1      31.673 -10.063 -20.941  0.00  0.00    +0.132 C 
ATOM      6  C   UNL     1      32.976  -8.451 -22.661  0.00  0.00    +0.019 C 
ATOM      7  C   UNL     1      33.168  -9.824 -22.789  0.00  0.00    +0.004 C 
ATOM      8  C   UNL     1      31.550 -12.276 -20.619  0.00  0.00    +0.063 C 
ATOM      9  C   UNL     1      32.132  -7.982 -21.664  0.00  0.00    +0.100 C 
ATOM     10  H   UNL     1      30.490 -10.910 -19.429  0.00  0.00    +0.154 HD
ENDROOT
BRANCH   6  11
ATOM     11  C   UNL     1      33.647  -7.529 -23.552  0.00  0.00    +0.001 C 
ATOM     12  C   UNL     1      33.612  -6.132 -25.544  0.00  0.00    +0.000 C 
ATOM     13  C   UNL     1      32.976  -7.028 -24.668  0.00  0.00    +0.000 C 
ATOM     14  C   UNL     1      34.947  -5.740 -25.284  0.00  0.00    +0.000 C 
ATOM     15  C   UNL     1      34.959  -7.144 -23.296  0.00  0.00    +0.000 C 
ATOM     16  C   UNL     1      35.606  -6.255 -24.155  0.00  0.00    +0.000 C 
ATOM     17  C   UNL     1      32.952  -5.618 -26.673  0.00  0.00    +0.000 C 
ATOM     18  C   UNL     1      35.582  -4.845 -26.159  0.00  0.00    +0.000 C 
ATOM     19  C   UNL     1      33.601  -4.729 -27.531  0.00  0.00    +0.000 C 
ATOM     20  C   UNL     1      34.913  -4.344 -27.276  0.00  0.00    +0.000 C 
ENDBRANCH   6  11
BRANCH   4  21
ATOM     21  C   UNL     1      33.043 -13.146 -22.377  0.00  0.00    +0.001 C 
ATOM     22  C   UNL     1      32.758 -13.374 -23.724  0.00  0.00    -0.000 C 
ATOM     23  C   UNL     1      33.951 -13.969 -21.709  0.00  0.00    -0.000 C 
ATOM     24  C   UNL     1      34.287 -15.245 -23.733  0.00  0.00    -0.011 C 
ATOM     25  C   UNL     1      33.380 -14.423 -24.401  0.00  0.00    -0.004 C 
ATOM     26  C   UNL     1      34.573 -15.018 -22.386  0.00  0.00    -0.004 C 
BRANCH  24  27
ATOM     27  C   UNL     1      34.954 -16.365 -24.459  0.00  0.00    +0.136 C 
BRANCH  27  29
ATOM     28  O   UNL     1      33.213 -17.891 -25.214  0.00  0.00    -0.250 OA
ATOM     29  C   UNL     1      34.147 -17.648 -24.462  0.00  0.00    +0.318 C 
BRANCH  29  30
ATOM     30  O   UNL     1      34.583 -18.523 -23.517  0.00  0.00    -0.480 OA
ATOM     31  H   UNL     1      34.707 -18.234 -22.633  0.00  0.00    +0.295 HD
ENDBRANCH  29  30
ENDBRANCH  27  29
ENDBRANCH  24  27
ENDBRANCH   4  21
TORSDOF 5
ENDMDL
MODEL 7
REMARK VINA RESULT:     -10.7      5.080      7.631
REMARK  Name = 11952989
REMARK  5 active torsions:
REMARK  status: ('A' for Active; 'I' for Inactive)
REMARK    1  A    between atoms: C_4  and  C_21
REMARK    2  A    between atoms: C_6  and  C_11
REMARK    3  A    between atoms: C_24  and  C_27
REMARK    4  A    between atoms: C_27  and  C_29
REMARK    5  A    between atoms: C_29  and  O_30
REMARK                            x       y       z     vdW  Elec       q    Type
REMARK                         _______ _______ _______ _____ _____    ______ ____
ROOT
ATOM      1  N   UNL     1      31.492  -8.005 -20.676  0.00  0.00    -0.297 N 
ATOM      2  N   UNL     1      31.431 -10.407 -20.512  0.00  0.00    -0.229 NA
ATOM      3  C   UNL     1      32.632  -9.133 -22.228  0.00  0.00    +0.033 C 
ATOM      4  C   UNL     1      32.777  -7.741 -22.473  0.00  0.00    +0.017 C 
ATOM      5  C   UNL     1      31.826  -9.263 -21.101  0.00  0.00    +0.132 C 
ATOM      6  C   UNL     1      32.714 -11.526 -22.262  0.00  0.00    +0.019 C 
ATOM      7  C   UNL     1      33.095 -10.314 -22.832  0.00  0.00    +0.004 C 
ATOM      8  C   UNL     1      32.063  -7.072 -21.502  0.00  0.00    +0.063 C 
ATOM      9  C   UNL     1      31.905 -11.512 -21.134  0.00  0.00    +0.100 C 
ATOM     10  H   UNL     1      30.927  -7.801 -19.895  0.00  0.00    +0.154 HD
ENDROOT
BRANCH   6  11
ATOM     11  C   UNL     1      33.155 -12.779 -22.836  0.00  0.00    +0.001 C 
ATOM     12  C   UNL     1      34.263 -14.930 -22.584  0.00  0.00    +0.000 C 
ATOM     13  C   UNL     1      33.827 -13.710 -22.043  0.00  0.00    +0.000 C 
ATOM     14  C   UNL     1      34.013 -15.210 -23.949  0.00  0.00    +0.000 C 
ATOM     15  C   UNL     1      32.910 -13.054 -24.178  0.00  0.00    +0.000 C 
ATOM     16  C   UNL     1      33.335 -14.261 -24.732  0.00  0.00    +0.000 C 
ATOM     17  C   UNL     1      34.941 -15.879 -21.801  0.00  0.00    +0.000 C 
ATOM     18  C   UNL     1      34.449 -16.430 -24.490  0.00  0.00    +0.000 C 
ATOM     19  C   UNL     1      35.367 -17.086 -22.357  0.00  0.00    +0.000 C 
ATOM     20  C   UNL     1      35.122 -17.362 -23.698  0.00  0.00    +0.000 C 
ENDBRANCH   6  11
BRANCH   4  21
ATOM     21  C   UNL     1      33.500  -7.057 -23.505  0.00  0.00    +0.001 C 
ATOM     22  C   UNL     1      34.865  -6.807 -23.353  0.00  0.00    -0.000 C 
ATOM     23  C   UNL     1      32.841  -6.641 -24.663  0.00  0.00    -0.000 C 
ATOM     24  C   UNL     1      34.909  -5.727 -25.514  0.00  0.00    -0.011 C 
ATOM     25  C   UNL     1      35.568  -6.142 -24.357  0.00  0.00    -0.004 C 
ATOM     26  C   UNL     1      33.545  -5.976 -25.666  0.00  0.00    -0.004 C 
BRANCH  24  27
ATOM     27  C   UNL     1      35.663  -5.017 -26.588  0.00  0.00    +0.136 C 
BRANCH  27  29
ATOM     28  O   UNL     1      36.422  -6.782 -28.084  0.00  0.00    -0.250 OA
ATOM     29  C   UNL     1      35.731  -5.791 -27.890  0.00  0.00    +0.318 C 
BRANCH  29  30
ATOM     30  O   UNL     1      34.924  -5.253 -28.842  0.00  0.00    -0.480 OA
ATOM     31  H   UNL     1      34.512  -4.424 -28.693  0.00  0.00    +0.295 HD
ENDBRANCH  29  30
ENDBRANCH  27  29
ENDBRANCH  24  27
ENDBRANCH   4  21
TORSDOF 5
ENDMDL
MODEL 8
REMARK VINA RESULT:     -10.7      6.452     10.148
REMARK  Name = 11952989
REMARK  5 active torsions:
REMARK  status: ('A' for Active; 'I' for Inactive)
REMARK    1  A    between atoms: C_4  and  C_21
REMARK    2  A    between atoms: C_6  and  C_11
REMARK    3  A    between atoms: C_24  and  C_27
REMARK    4  A    between atoms: C_27  and  C_29
REMARK    5  A    between atoms: C_29  and  O_30
REMARK                            x       y       z     vdW  Elec       q    Type
REMARK                         _______ _______ _______ _____ _____    ______ ____
ROOT
ATOM      1  N   UNL     1      30.889 -23.074 -16.067  0.00  0.00    -0.297 N 
ATOM      2  N   UNL     1      32.023 -24.274 -14.313  0.00  0.00    -0.229 NA
ATOM      3  C   UNL     1      33.118 -23.126 -16.182  0.00  0.00    +0.033 C 
ATOM      4  C   UNL     1      32.618 -22.382 -17.285  0.00  0.00    +0.017 C 
ATOM      5  C   UNL     1      32.015 -23.542 -15.443  0.00  0.00    +0.132 C 
ATOM      6  C   UNL     1      34.452 -24.259 -14.549  0.00  0.00    +0.019 C 
ATOM      7  C   UNL     1      34.388 -23.500 -15.715  0.00  0.00    +0.004 C 
ATOM      8  C   UNL     1      31.243 -22.368 -17.187  0.00  0.00    +0.063 C 
ATOM      9  C   UNL     1      33.271 -24.606 -13.909  0.00  0.00    +0.100 C 
ATOM     10  H   UNL     1      29.965 -23.221 -15.758  0.00  0.00    +0.154 HD
ENDROOT
BRANCH   6  11
ATOM     11  C   UNL     1      35.730 -24.677 -14.015  0.00  0.00    +0.001 C 
ATOM     12  C   UNL     1      38.106 -25.092 -14.333  0.00  0.00    +0.000 C 
ATOM     13  C   UNL     1      36.858 -24.688 -14.835  0.00  0.00    +0.000 C 
ATOM     14  C   UNL     1      38.211 -25.491 -12.979  0.00  0.00    +0.000 C 
ATOM     15  C   UNL     1      35.833 -25.069 -12.683  0.00  0.00    +0.000 C 
ATOM     16  C   UNL     1      37.064 -25.473 -12.167  0.00  0.00    +0.000 C 
ATOM     17  C   UNL     1      39.253 -25.110 -15.145  0.00  0.00    +0.000 C 
ATOM     18  C   UNL     1      39.458 -25.894 -12.477  0.00  0.00    +0.000 C 
ATOM     19  C   UNL     1      40.484 -25.514 -14.628  0.00  0.00    +0.000 C 
ATOM     20  C   UNL     1      40.587 -25.906 -13.297  0.00  0.00    +0.000 C 
ENDBRANCH   6  11
BRANCH   4  21
ATOM     21  C   UNL     1      33.320 -21.732 -18.353  0.00  0.00    +0.001 C 
ATOM     22  C   UNL     1      32.644 -20.855 -19.202  0.00  0.00    -0.000 C 
ATOM     23  C   UNL     1      34.682 -21.973 -18.543  0.00  0.00    -0.000 C 
ATOM     24  C   UNL     1      34.688 -20.465 -20.429  0.00  0.00    -0.011 C 
ATOM     25  C   UNL     1      33.328 -20.223 -20.240  0.00  0.00    -0.004 C 
ATOM     26  C   UNL     1      35.365 -21.341 -19.581  0.00  0.00    -0.004 C 
BRANCH  24  27
ATOM     27  C   UNL     1      35.419 -19.785 -21.538  0.00  0.00    +0.136 C 
BRANCH  27  29
ATOM     28  O   UNL     1      37.573 -18.760 -21.048  0.00  0.00    -0.250 OA
ATOM     29  C   UNL     1      36.351 -18.688 -21.065  0.00  0.00    +0.318 C 
BRANCH  29  30
ATOM     30  O   UNL     1      35.669 -17.587 -20.651  0.00  0.00    -0.480 OA
ATOM     31  H   UNL     1      35.594 -17.399 -19.736  0.00  0.00    +0.295 HD
ENDBRANCH  29  30
ENDBRANCH  27  29
ENDBRANCH  24  27
ENDBRANCH   4  21
TORSDOF 5
ENDMDL
MODEL 9
REMARK VINA RESULT:     -10.5      5.210     10.842
REMARK  Name = 11952989
REMARK  5 active torsions:
REMARK  status: ('A' for Active; 'I' for Inactive)
REMARK    1  A    between atoms: C_4  and  C_21
REMARK    2  A    between atoms: C_6  and  C_11
REMARK    3  A    between atoms: C_24  and  C_27
REMARK    4  A    between atoms: C_27  and  C_29
REMARK    5  A    between atoms: C_29  and  O_30
REMARK                            x       y       z     vdW  Elec       q    Type
REMARK                         _______ _______ _______ _____ _____    ______ ____
ROOT
ATOM      1  N   UNL     1      31.823 -11.572 -19.137  0.00  0.00    -0.297 N 
ATOM      2  N   UNL     1      31.556  -9.260 -19.759  0.00  0.00    -0.229 NA
ATOM      3  C   UNL     1      32.451 -11.023 -21.208  0.00  0.00    +0.033 C 
ATOM      4  C   UNL     1      32.675 -12.412 -21.013  0.00  0.00    +0.017 C 
ATOM      5  C   UNL     1      31.919 -10.529 -20.021  0.00  0.00    +0.132 C 
ATOM      6  C   UNL     1      32.276  -8.785 -22.043  0.00  0.00    +0.019 C 
ATOM      7  C   UNL     1      32.636 -10.113 -22.262  0.00  0.00    +0.004 C 
ATOM      8  C   UNL     1      32.279 -12.721 -19.729  0.00  0.00    +0.063 C 
ATOM      9  C   UNL     1      31.755  -8.427 -20.807  0.00  0.00    +0.100 C 
ATOM     10  H   UNL     1      31.478 -11.506 -18.217  0.00  0.00    +0.154 HD
ENDROOT
BRANCH   6  11
ATOM     11  C   UNL     1      32.441  -7.798 -23.087  0.00  0.00    +0.001 C 
ATOM     12  C   UNL     1      33.901  -6.431 -24.473  0.00  0.00    +0.000 C 
ATOM     13  C   UNL     1      33.722  -7.389 -23.462  0.00  0.00    +0.000 C 
ATOM     14  C   UNL     1      32.764  -5.879 -25.113  0.00  0.00    +0.000 C 
ATOM     15  C   UNL     1      31.324  -7.255 -23.715  0.00  0.00    +0.000 C 
ATOM     16  C   UNL     1      31.483  -6.303 -24.722  0.00  0.00    +0.000 C 
ATOM     17  C   UNL     1      35.182  -6.008 -24.864  0.00  0.00    +0.000 C 
ATOM     18  C   UNL     1      32.943  -4.921 -26.124  0.00  0.00    +0.000 C 
ATOM     19  C   UNL     1      35.339  -5.055 -25.871  0.00  0.00    +0.000 C 
ATOM     20  C   UNL     1      34.223  -4.512 -26.499  0.00  0.00    +0.000 C 
ENDBRANCH   6  11
BRANCH   4  21
ATOM     21  C   UNL     1      33.207 -13.395 -21.912  0.00  0.00    +0.001 C 
ATOM     22  C   UNL     1      34.162 -14.308 -21.462  0.00  0.00    -0.000 C 
ATOM     23  C   UNL     1      32.769 -13.442 -23.236  0.00  0.00    -0.000 C 
ATOM     24  C   UNL     1      34.241 -15.310 -23.660  0.00  0.00    -0.011 C 
ATOM     25  C   UNL     1      34.678 -15.264 -22.336  0.00  0.00    -0.004 C 
ATOM     26  C   UNL     1      33.286 -14.397 -24.110  0.00  0.00    -0.004 C 
BRANCH  24  27
ATOM     27  C   UNL     1      34.792 -16.335 -24.593  0.00  0.00    +0.136 C 
BRANCH  27  29
ATOM     28  O   UNL     1      34.550 -18.614 -23.771  0.00  0.00    -0.250 OA
ATOM     29  C   UNL     1      34.132 -17.692 -24.458  0.00  0.00    +0.318 C 
BRANCH  29  30
ATOM     30  O   UNL     1      32.996 -17.779 -25.201  0.00  0.00    -0.480 OA
ATOM     31  H   UNL     1      32.550 -16.998 -25.467  0.00  0.00    +0.295 HD
ENDBRANCH  29  30
ENDBRANCH  27  29
ENDBRANCH  24  27
ENDBRANCH   4  21
TORSDOF 5
ENDMDL
