MODEL 1
REMARK VINA RESULT:     -11.6      0.000      0.000
REMARK  Name = 24812758
REMARK  9 active torsions:
REMARK  status: ('A' for Active; 'I' for Inactive)
REMARK    1  A    between atoms: C_1  and  C_11
REMARK    2  A    between atoms: C_4  and  C_23
REMARK    3  A    between atoms: C_9  and  O_14
REMARK    4  A    between atoms: C_10  and  O_16
REMARK    5  A    between atoms: C_12  and  O_18
REMARK    6  A    between atoms: C_13  and  C_20
REMARK    7  A    between atoms: C_20  and  O_21
REMARK    8  A    between atoms: C_23  and  C_25
REMARK    9  A    between atoms: C_27  and  C_30
REMARK                            x       y       z     vdW  Elec       q    Type
REMARK                         _______ _______ _______ _____ _____    ______ ____
ROOT
ATOM      1  C   UNL     1      34.248 -23.539 -14.348  0.00  0.00    +0.007 C 
ATOM      2  C   UNL     1      34.348 -23.653 -15.734  0.00  0.00    -0.006 C 
ATOM      3  C   UNL     1      33.062 -23.087 -13.769  0.00  0.00    -0.002 C 
ATOM      4  C   UNL     1      33.264 -23.314 -16.543  0.00  0.00    -0.021 C 
ATOM      5  C   UNL     1      32.078 -22.862 -15.963  0.00  0.00    -0.025 C 
ATOM      6  C   UNL     1      31.978 -22.748 -14.577  0.00  0.00    -0.005 C 
ATOM      7  C   UNL     1      30.902 -22.493 -16.807  0.00  0.00    +0.031 C 
ENDROOT
BRANCH   1  11
ATOM      8  O   UNL     1      36.154 -24.949 -14.131  0.00  0.00    -0.347 OA
ATOM      9  C   UNL     1      34.984 -24.357 -12.069  0.00  0.00    +0.171 C 
ATOM     10  C   UNL     1      36.174 -24.875 -11.256  0.00  0.00    +0.169 C 
ATOM     11  C   UNL     1      35.428 -23.908 -13.470  0.00  0.00    +0.167 C 
ATOM     12  C   UNL     1      36.999 -25.879 -12.058  0.00  0.00    +0.169 C 
ATOM     13  C   UNL     1      37.347 -25.318 -13.438  0.00  0.00    +0.174 C 
BRANCH   9  14
ATOM     14  O   UNL     1      34.411 -23.239 -11.391  0.00  0.00    -0.379 OA
ATOM     15  H   UNL     1      33.493 -23.441 -11.153  0.00  0.00    +0.211 HD
ENDBRANCH   9  14
BRANCH  10  16
ATOM     16  O   UNL     1      35.696 -25.534 -10.083  0.00  0.00    -0.379 OA
ATOM     17  H   UNL     1      35.463 -26.451 -10.298  0.00  0.00    +0.211 HD
ENDBRANCH  10  16
BRANCH  12  18
ATOM     18  O   UNL     1      38.203 -26.170 -11.353  0.00  0.00    -0.379 OA
ATOM     19  H   UNL     1      37.995 -26.678 -10.553  0.00  0.00    +0.211 HD
ENDBRANCH  12  18
BRANCH  13  20
ATOM     20  C   UNL     1      38.077 -26.344 -14.299  0.00  0.00    +0.169 C 
BRANCH  20  21
ATOM     21  O   UNL     1      37.319 -26.569 -15.474  0.00  0.00    -0.379 OA
ATOM     22  H   UNL     1      36.756 -27.349 -15.352  0.00  0.00    +0.211 HD
ENDBRANCH  20  21
ENDBRANCH  13  20
ENDBRANCH   1  11
BRANCH   4  23
ATOM     23  C   UNL     1      33.394 -23.444 -18.024  0.00  0.00    +0.059 C 
BRANCH  23  25
ATOM     24  S   UNL     1      33.558 -21.376 -19.889  0.00  0.00    -0.091 S 
ATOM     25  C   UNL     1      34.237 -22.360 -18.662  0.00  0.00    +0.012 C 
ATOM     26  C   UNL     1      35.544 -22.019 -18.391  0.00  0.00    +0.003 C 
ATOM     27  C   UNL     1      35.013 -20.491 -20.060  0.00  0.00    +0.029 C 
ATOM     28  C   UNL     1      35.994 -20.936 -19.201  0.00  0.00    +0.007 C 
BRANCH  27  30
ATOM     29  F   UNL     1      35.240 -16.381 -23.817  0.00  0.00    -0.204 F 
ATOM     30  C   UNL     1      35.072 -19.426 -21.034  0.00  0.00    +0.006 C 
ATOM     31  C   UNL     1      34.630 -19.648 -22.338  0.00  0.00    +0.003 C 
ATOM     32  C   UNL     1      35.571 -18.175 -20.670  0.00  0.00    +0.003 C 
ATOM     33  C   UNL     1      34.687 -18.620 -23.278  0.00  0.00    +0.030 C 
ATOM     34  C   UNL     1      35.628 -17.147 -21.610  0.00  0.00    +0.030 C 
ATOM     35  C   UNL     1      35.185 -17.369 -22.915  0.00  0.00    +0.140 C 
ENDBRANCH  27  30
ENDBRANCH  23  25
ENDBRANCH   4  23
TORSDOF 9
ENDMDL
MODEL 2
REMARK VINA RESULT:     -11.2      2.828      4.708
REMARK  Name = 24812758
REMARK  9 active torsions:
REMARK  status: ('A' for Active; 'I' for Inactive)
REMARK    1  A    between atoms: C_1  and  C_11
REMARK    2  A    between atoms: C_4  and  C_23
REMARK    3  A    between atoms: C_9  and  O_14
REMARK    4  A    between atoms: C_10  and  O_16
REMARK    5  A    between atoms: C_12  and  O_18
REMARK    6  A    between atoms: C_13  and  C_20
REMARK    7  A    between atoms: C_20  and  O_21
REMARK    8  A    between atoms: C_23  and  C_25
REMARK    9  A    between atoms: C_27  and  C_30
REMARK                            x       y       z     vdW  Elec       q    Type
REMARK                         _______ _______ _______ _____ _____    ______ ____
ROOT
ATOM      1  C   UNL     1      33.699 -23.323 -15.558  0.00  0.00    +0.007 C 
ATOM      2  C   UNL     1      34.229 -23.183 -16.840  0.00  0.00    -0.006 C 
ATOM      3  C   UNL     1      34.393 -22.819 -14.457  0.00  0.00    -0.002 C 
ATOM      4  C   UNL     1      35.453 -22.540 -17.024  0.00  0.00    -0.021 C 
ATOM      5  C   UNL     1      36.147 -22.036 -15.923  0.00  0.00    -0.025 C 
ATOM      6  C   UNL     1      35.617 -22.176 -14.641  0.00  0.00    -0.005 C 
ATOM      7  C   UNL     1      37.459 -21.343 -16.093  0.00  0.00    +0.031 C 
ENDROOT
BRANCH   1  11
ATOM      8  O   UNL     1      31.340 -23.136 -15.812  0.00  0.00    -0.347 OA
ATOM      9  C   UNL     1      32.141 -24.420 -13.893  0.00  0.00    +0.171 C 
ATOM     10  C   UNL     1      30.729 -24.977 -13.688  0.00  0.00    +0.169 C 
ATOM     11  C   UNL     1      32.369 -24.022 -15.360  0.00  0.00    +0.167 C 
ATOM     12  C   UNL     1      29.676 -24.064 -14.313  0.00  0.00    +0.169 C 
ATOM     13  C   UNL     1      30.040 -23.724 -15.760  0.00  0.00    +0.174 C 
BRANCH   9  14
ATOM     14  O   UNL     1      33.092 -25.423 -13.539  0.00  0.00    -0.379 OA
ATOM     15  H   UNL     1      32.640 -26.150 -13.082  0.00  0.00    +0.211 HD
ENDBRANCH   9  14
BRANCH  10  16
ATOM     16  O   UNL     1      30.456 -25.074 -12.290  0.00  0.00    -0.379 OA
ATOM     17  H   UNL     1      30.125 -25.962 -12.085  0.00  0.00    +0.211 HD
ENDBRANCH  10  16
BRANCH  12  18
ATOM     18  O   UNL     1      28.411 -24.720 -14.289  0.00  0.00    -0.379 OA
ATOM     19  H   UNL     1      28.059 -24.711 -13.384  0.00  0.00    +0.211 HD
ENDBRANCH  12  18
BRANCH  13  20
ATOM     20  C   UNL     1      29.061 -22.727 -16.370  0.00  0.00    +0.169 C 
BRANCH  20  21
ATOM     21  O   UNL     1      28.160 -23.432 -17.205  0.00  0.00    -0.379 OA
ATOM     22  H   UNL     1      28.282 -23.150 -18.125  0.00  0.00    +0.211 HD
ENDBRANCH  20  21
ENDBRANCH  13  20
ENDBRANCH   1  11
BRANCH   4  23
ATOM     23  C   UNL     1      36.001 -22.401 -18.406  0.00  0.00    +0.059 C 
BRANCH  23  25
ATOM     24  S   UNL     1      36.097 -20.410 -20.356  0.00  0.00    -0.091 S 
ATOM     25  C   UNL     1      35.239 -21.418 -19.270  0.00  0.00    +0.012 C 
ATOM     26  C   UNL     1      33.881 -21.197 -19.324  0.00  0.00    +0.003 C 
ATOM     27  C   UNL     1      34.651 -19.673 -20.901  0.00  0.00    +0.029 C 
ATOM     28  C   UNL     1      33.540 -20.186 -20.269  0.00  0.00    +0.007 C 
BRANCH  27  30
ATOM     29  F   UNL     1      34.950 -15.702 -24.799  0.00  0.00    -0.204 F 
ATOM     30  C   UNL     1      34.729 -18.644 -21.911  0.00  0.00    +0.006 C 
ATOM     31  C   UNL     1      34.403 -18.940 -23.235  0.00  0.00    +0.003 C 
ATOM     32  C   UNL     1      35.128 -17.354 -21.563  0.00  0.00    +0.003 C 
ATOM     33  C   UNL     1      34.478 -17.947 -24.210  0.00  0.00    +0.030 C 
ATOM     34  C   UNL     1      35.203 -16.360 -22.539  0.00  0.00    +0.030 C 
ATOM     35  C   UNL     1      34.878 -16.656 -23.863  0.00  0.00    +0.140 C 
ENDBRANCH  27  30
ENDBRANCH  23  25
ENDBRANCH   4  23
TORSDOF 9
ENDMDL
MODEL 3
REMARK VINA RESULT:     -11.1      1.175      2.290
REMARK  Name = 24812758
REMARK  9 active torsions:
REMARK  status: ('A' for Active; 'I' for Inactive)
REMARK    1  A    between atoms: C_1  and  C_11
REMARK    2  A    between atoms: C_4  and  C_23
REMARK    3  A    between atoms: C_9  and  O_14
REMARK    4  A    between atoms: C_10  and  O_16
REMARK    5  A    between atoms: C_12  and  O_18
REMARK    6  A    between atoms: C_13  and  C_20
REMARK    7  A    between atoms: C_20  and  O_21
REMARK    8  A    between atoms: C_23  and  C_25
REMARK    9  A    between atoms: C_27  and  C_30
REMARK                            x       y       z     vdW  Elec       q    Type
REMARK                         _______ _______ _______ _____ _____    ______ ____
ROOT
ATOM      1  C   UNL     1      34.343 -23.998 -14.440  0.00  0.00    +0.007 C 
ATOM      2  C   UNL     1      34.284 -23.970 -15.833  0.00  0.00    -0.006 C 
ATOM      3  C   UNL     1      33.273 -23.514 -13.686  0.00  0.00    -0.002 C 
ATOM      4  C   UNL     1      33.156 -23.456 -16.473  0.00  0.00    -0.021 C 
ATOM      5  C   UNL     1      32.087 -22.972 -15.720  0.00  0.00    -0.025 C 
ATOM      6  C   UNL     1      32.146 -23.000 -14.327  0.00  0.00    -0.005 C 
ATOM      7  C   UNL     1      30.868 -22.418 -16.382  0.00  0.00    +0.031 C 
ENDROOT
BRANCH   1  11
ATOM      8  O   UNL     1      36.259 -23.460 -13.134  0.00  0.00    -0.347 OA
ATOM      9  C   UNL     1      36.490 -25.309 -14.717  0.00  0.00    +0.171 C 
ATOM     10  C   UNL     1      37.794 -25.723 -14.029  0.00  0.00    +0.169 C 
ATOM     11  C   UNL     1      35.569 -24.556 -13.744  0.00  0.00    +0.167 C 
ATOM     12  C   UNL     1      38.420 -24.552 -13.274  0.00  0.00    +0.169 C 
ATOM     13  C   UNL     1      37.389 -23.877 -12.367  0.00  0.00    +0.174 C 
BRANCH   9  14
ATOM     14  O   UNL     1      35.813 -26.480 -15.173  0.00  0.00    -0.379 OA
ATOM     15  H   UNL     1      36.465 -27.145 -15.444  0.00  0.00    +0.211 HD
ENDBRANCH   9  14
BRANCH  10  16
ATOM     16  O   UNL     1      38.730 -26.164 -15.014  0.00  0.00    -0.379 OA
ATOM     17  H   UNL     1      38.342 -26.890 -15.527  0.00  0.00    +0.211 HD
ENDBRANCH  10  16
BRANCH  12  18
ATOM     18  O   UNL     1      39.503 -25.028 -12.480  0.00  0.00    -0.379 OA
ATOM     19  H   UNL     1      39.556 -25.995 -12.552  0.00  0.00    +0.211 HD
ENDBRANCH  12  18
BRANCH  13  20
ATOM     20  C   UNL     1      37.961 -22.638 -11.685  0.00  0.00    +0.169 C 
BRANCH  20  21
ATOM     21  O   UNL     1      37.326 -22.481 -10.428  0.00  0.00    -0.379 OA
ATOM     22  H   UNL     1      37.057 -21.556 -10.315  0.00  0.00    +0.211 HD
ENDBRANCH  20  21
ENDBRANCH  13  20
ENDBRANCH   1  11
BRANCH   4  23
ATOM     23  C   UNL     1      33.115 -23.436 -17.966  0.00  0.00    +0.059 C 
BRANCH  23  25
ATOM     24  S   UNL     1      33.405 -21.392 -19.841  0.00  0.00    -0.091 S 
ATOM     25  C   UNL     1      34.015 -22.389 -18.589  0.00  0.00    +0.012 C 
ATOM     26  C   UNL     1      35.325 -22.093 -18.284  0.00  0.00    +0.003 C 
ATOM     27  C   UNL     1      34.896 -20.562 -19.980  0.00  0.00    +0.029 C 
ATOM     28  C   UNL     1      35.836 -21.034 -19.090  0.00  0.00    +0.007 C 
BRANCH  27  30
ATOM     29  F   UNL     1      35.374 -16.497 -23.761  0.00  0.00    -0.204 F 
ATOM     30  C   UNL     1      35.020 -19.509 -20.960  0.00  0.00    +0.006 C 
ATOM     31  C   UNL     1      34.586 -19.719 -22.269  0.00  0.00    +0.003 C 
ATOM     32  C   UNL     1      35.573 -18.280 -20.598  0.00  0.00    +0.003 C 
ATOM     33  C   UNL     1      34.706 -18.702 -23.215  0.00  0.00    +0.030 C 
ATOM     34  C   UNL     1      35.693 -17.263 -21.544  0.00  0.00    +0.030 C 
ATOM     35  C   UNL     1      35.259 -17.474 -22.853  0.00  0.00    +0.140 C 
ENDBRANCH  27  30
ENDBRANCH  23  25
ENDBRANCH   4  23
TORSDOF 9
ENDMDL
MODEL 4
REMARK VINA RESULT:     -11.0      0.919      2.434
REMARK  Name = 24812758
REMARK  9 active torsions:
REMARK  status: ('A' for Active; 'I' for Inactive)
REMARK    1  A    between atoms: C_1  and  C_11
REMARK    2  A    between atoms: C_4  and  C_23
REMARK    3  A    between atoms: C_9  and  O_14
REMARK    4  A    between atoms: C_10  and  O_16
REMARK    5  A    between atoms: C_12  and  O_18
REMARK    6  A    between atoms: C_13  and  C_20
REMARK    7  A    between atoms: C_20  and  O_21
REMARK    8  A    between atoms: C_23  and  C_25
REMARK    9  A    between atoms: C_27  and  C_30
REMARK                            x       y       z     vdW  Elec       q    Type
REMARK                         _______ _______ _______ _____ _____    ______ ____
ROOT
ATOM      1  C   UNL     1      34.260 -23.980 -14.413  0.00  0.00    +0.007 C 
ATOM      2  C   UNL     1      34.365 -24.037 -15.802  0.00  0.00    -0.006 C 
ATOM      3  C   UNL     1      33.150 -23.377 -13.821  0.00  0.00    -0.002 C 
ATOM      4  C   UNL     1      33.360 -23.492 -16.601  0.00  0.00    -0.021 C 
ATOM      5  C   UNL     1      32.249 -22.889 -16.009  0.00  0.00    -0.025 C 
ATOM      6  C   UNL     1      32.145 -22.832 -14.619  0.00  0.00    -0.005 C 
ATOM      7  C   UNL     1      31.160 -22.299 -16.842  0.00  0.00    +0.031 C 
ENDROOT
BRANCH   1  11
ATOM      8  O   UNL     1      35.268 -23.955 -12.257  0.00  0.00    -0.347 OA
ATOM      9  C   UNL     1      36.748 -24.369 -14.158  0.00  0.00    +0.171 C 
ATOM     10  C   UNL     1      37.844 -24.830 -13.193  0.00  0.00    +0.169 C 
ATOM     11  C   UNL     1      35.353 -24.573 -13.546  0.00  0.00    +0.167 C 
ATOM     12  C   UNL     1      37.629 -24.256 -11.793  0.00  0.00    +0.169 C 
ATOM     13  C   UNL     1      36.195 -24.503 -11.319  0.00  0.00    +0.174 C 
BRANCH   9  14
ATOM     14  O   UNL     1      36.835 -25.134 -15.359  0.00  0.00    -0.379 OA
ATOM     15  H   UNL     1      37.763 -25.358 -15.534  0.00  0.00    +0.211 HD
ENDBRANCH   9  14
BRANCH  10  16
ATOM     16  O   UNL     1      39.113 -24.377 -13.665  0.00  0.00    -0.379 OA
ATOM     17  H   UNL     1      39.008 -23.517 -14.103  0.00  0.00    +0.211 HD
ENDBRANCH  10  16
BRANCH  12  18
ATOM     18  O   UNL     1      38.537 -24.876 -10.886  0.00  0.00    -0.379 OA
ATOM     19  H   UNL     1      38.822 -25.731 -11.247  0.00  0.00    +0.211 HD
ENDBRANCH  12  18
BRANCH  13  20
ATOM     20  C   UNL     1      35.925 -23.845  -9.970  0.00  0.00    +0.169 C 
BRANCH  20  21
ATOM     21  O   UNL     1      35.348 -24.807  -9.106  0.00  0.00    -0.379 OA
ATOM     22  H   UNL     1      34.440 -24.996  -9.392  0.00  0.00    +0.211 HD
ENDBRANCH  20  21
ENDBRANCH  13  20
ENDBRANCH   1  11
BRANCH   4  23
ATOM     23  C   UNL     1      33.492 -23.566 -18.086  0.00  0.00    +0.059 C 
BRANCH  23  25
ATOM     24  S   UNL     1      33.629 -21.473 -19.925  0.00  0.00    -0.091 S 
ATOM     25  C   UNL     1      34.308 -22.438 -18.685  0.00  0.00    +0.012 C 
ATOM     26  C   UNL     1      35.588 -22.043 -18.364  0.00  0.00    +0.003 C 
ATOM     27  C   UNL     1      35.049 -20.523 -20.037  0.00  0.00    +0.029 C 
ATOM     28  C   UNL     1      36.018 -20.933 -19.149  0.00  0.00    +0.007 C 
BRANCH  27  30
ATOM     29  F   UNL     1      35.225 -16.366 -23.746  0.00  0.00    -0.204 F 
ATOM     30  C   UNL     1      35.094 -19.446 -20.999  0.00  0.00    +0.006 C 
ATOM     31  C   UNL     1      35.472 -18.165 -20.594  0.00  0.00    +0.003 C 
ATOM     32  C   UNL     1      34.760 -19.685 -22.332  0.00  0.00    +0.003 C 
ATOM     33  C   UNL     1      35.517 -17.125 -21.521  0.00  0.00    +0.030 C 
ATOM     34  C   UNL     1      34.804 -18.645 -23.259  0.00  0.00    +0.030 C 
ATOM     35  C   UNL     1      35.183 -17.365 -22.854  0.00  0.00    +0.140 C 
ENDBRANCH  27  30
ENDBRANCH  23  25
ENDBRANCH   4  23
TORSDOF 9
ENDMDL
MODEL 5
REMARK VINA RESULT:     -10.9     11.787     16.644
REMARK  Name = 24812758
REMARK  9 active torsions:
REMARK  status: ('A' for Active; 'I' for Inactive)
REMARK    1  A    between atoms: C_1  and  C_11
REMARK    2  A    between atoms: C_4  and  C_23
REMARK    3  A    between atoms: C_9  and  O_14
REMARK    4  A    between atoms: C_10  and  O_16
REMARK    5  A    between atoms: C_12  and  O_18
REMARK    6  A    between atoms: C_13  and  C_20
REMARK    7  A    between atoms: C_20  and  O_21
REMARK    8  A    between atoms: C_23  and  C_25
REMARK    9  A    between atoms: C_27  and  C_30
REMARK                            x       y       z     vdW  Elec       q    Type
REMARK                         _______ _______ _______ _____ _____    ______ ____
ROOT
ATOM      1  C   UNL     1      32.789  -7.243 -21.721  0.00  0.00    +0.007 C 
ATOM      2  C   UNL     1      32.230  -8.415 -22.230  0.00  0.00    -0.006 C 
ATOM      3  C   UNL     1      32.916  -7.073 -20.342  0.00  0.00    -0.002 C 
ATOM      4  C   UNL     1      31.797  -9.417 -21.362  0.00  0.00    -0.021 C 
ATOM      5  C   UNL     1      31.924  -9.247 -19.983  0.00  0.00    -0.025 C 
ATOM      6  C   UNL     1      32.483  -8.075 -19.474  0.00  0.00    -0.005 C 
ATOM      7  C   UNL     1      31.469 -10.305 -19.033  0.00  0.00    +0.031 C 
ENDROOT
BRANCH   1  11
ATOM      8  O   UNL     1      32.106  -5.634 -23.337  0.00  0.00    -0.347 OA
ATOM      9  C   UNL     1      34.290  -6.676 -23.677  0.00  0.00    +0.171 C 
ATOM     10  C   UNL     1      34.628  -5.605 -24.718  0.00  0.00    +0.169 C 
ATOM     11  C   UNL     1      33.258  -6.154 -22.666  0.00  0.00    +0.167 C 
ATOM     12  C   UNL     1      33.363  -4.980 -25.304  0.00  0.00    +0.169 C 
ATOM     13  C   UNL     1      32.414  -4.532 -24.191  0.00  0.00    +0.174 C 
BRANCH   9  14
ATOM     14  O   UNL     1      35.480  -7.032 -22.974  0.00  0.00    -0.379 OA
ATOM     15  H   UNL     1      35.455  -7.976 -22.752  0.00  0.00    +0.211 HD
ENDBRANCH   9  14
BRANCH  10  16
ATOM     16  O   UNL     1      35.363  -6.200 -25.789  0.00  0.00    -0.379 OA
ATOM     17  H   UNL     1      34.866  -6.101 -26.617  0.00  0.00    +0.211 HD
ENDBRANCH  10  16
BRANCH  12  18
ATOM     18  O   UNL     1      33.720  -3.852 -26.099  0.00  0.00    -0.379 OA
ATOM     19  H   UNL     1      32.915  -3.403 -26.402  0.00  0.00    +0.211 HD
ENDBRANCH  12  18
BRANCH  13  20
ATOM     20  C   UNL     1      31.096  -4.004 -24.750  0.00  0.00    +0.169 C 
BRANCH  20  21
ATOM     21  O   UNL     1      30.132  -4.009 -23.712  0.00  0.00    -0.379 OA
ATOM     22  H   UNL     1      29.295  -3.650 -24.047  0.00  0.00    +0.211 HD
ENDBRANCH  20  21
ENDBRANCH  13  20
ENDBRANCH   1  11
BRANCH   4  23
ATOM     23  C   UNL     1      31.202 -10.663 -21.930  0.00  0.00    +0.059 C 
BRANCH  23  25
ATOM     24  S   UNL     1      32.368 -13.197 -21.893  0.00  0.00    -0.091 S 
ATOM     25  C   UNL     1      32.222 -11.612 -22.525  0.00  0.00    +0.012 C 
ATOM     26  C   UNL     1      33.102 -11.386 -23.561  0.00  0.00    +0.003 C 
ATOM     27  C   UNL     1      33.611 -13.584 -23.005  0.00  0.00    +0.029 C 
ATOM     28  C   UNL     1      33.907 -12.528 -23.838  0.00  0.00    +0.007 C 
BRANCH  27  30
ATOM     29  F   UNL     1      35.879 -18.672 -22.848  0.00  0.00    -0.204 F 
ATOM     30  C   UNL     1      34.199 -14.902 -22.964  0.00  0.00    +0.006 C 
ATOM     31  C   UNL     1      34.227 -15.690 -24.116  0.00  0.00    +0.003 C 
ATOM     32  C   UNL     1      34.739 -15.390 -21.773  0.00  0.00    +0.003 C 
ATOM     33  C   UNL     1      34.795 -16.962 -24.077  0.00  0.00    +0.030 C 
ATOM     34  C   UNL     1      35.306 -16.662 -21.735  0.00  0.00    +0.030 C 
ATOM     35  C   UNL     1      35.334 -17.450 -22.886  0.00  0.00    +0.140 C 
ENDBRANCH  27  30
ENDBRANCH  23  25
ENDBRANCH   4  23
TORSDOF 9
ENDMDL
MODEL 6
REMARK VINA RESULT:     -10.6      1.560      2.018
REMARK  Name = 24812758
REMARK  9 active torsions:
REMARK  status: ('A' for Active; 'I' for Inactive)
REMARK    1  A    between atoms: C_1  and  C_11
REMARK    2  A    between atoms: C_4  and  C_23
REMARK    3  A    between atoms: C_9  and  O_14
REMARK    4  A    between atoms: C_10  and  O_16
REMARK    5  A    between atoms: C_12  and  O_18
REMARK    6  A    between atoms: C_13  and  C_20
REMARK    7  A    between atoms: C_20  and  O_21
REMARK    8  A    between atoms: C_23  and  C_25
REMARK    9  A    between atoms: C_27  and  C_30
REMARK                            x       y       z     vdW  Elec       q    Type
REMARK                         _______ _______ _______ _____ _____    ______ ____
ROOT
ATOM      1  C   UNL     1      33.657 -24.043 -13.739  0.00  0.00    +0.007 C 
ATOM      2  C   UNL     1      33.338 -23.475 -14.972  0.00  0.00    -0.006 C 
ATOM      3  C   UNL     1      32.689 -24.751 -13.026  0.00  0.00    -0.002 C 
ATOM      4  C   UNL     1      32.051 -23.614 -15.493  0.00  0.00    -0.021 C 
ATOM      5  C   UNL     1      31.084 -24.322 -14.780  0.00  0.00    -0.025 C 
ATOM      6  C   UNL     1      31.403 -24.890 -13.547  0.00  0.00    -0.005 C 
ATOM      7  C   UNL     1      29.699 -24.485 -15.316  0.00  0.00    +0.031 C 
ENDROOT
BRANCH   1  11
ATOM      8  O   UNL     1      35.954 -23.721 -14.276  0.00  0.00    -0.347 OA
ATOM      9  C   UNL     1      35.464 -25.101 -12.318  0.00  0.00    +0.171 C 
ATOM     10  C   UNL     1      36.931 -25.001 -11.892  0.00  0.00    +0.169 C 
ATOM     11  C   UNL     1      35.055 -23.892 -13.174  0.00  0.00    +0.167 C 
ATOM     12  C   UNL     1      37.834 -24.678 -13.082  0.00  0.00    +0.169 C 
ATOM     13  C   UNL     1      37.298 -23.475 -13.860  0.00  0.00    +0.174 C 
BRANCH   9  14
ATOM     14  O   UNL     1      34.643 -25.132 -11.151  0.00  0.00    -0.379 OA
ATOM     15  H   UNL     1      34.516 -26.052 -10.870  0.00  0.00    +0.211 HD
ENDBRANCH   9  14
BRANCH  10  16
ATOM     16  O   UNL     1      37.353 -26.251 -11.345  0.00  0.00    -0.379 OA
ATOM     17  H   UNL     1      36.715 -26.942 -11.586  0.00  0.00    +0.211 HD
ENDBRANCH  10  16
BRANCH  12  18
ATOM     18  O   UNL     1      39.147 -24.384 -12.610  0.00  0.00    -0.379 OA
ATOM     19  H   UNL     1      39.147 -23.515 -12.177  0.00  0.00    +0.211 HD
ENDBRANCH  12  18
BRANCH  13  20
ATOM     20  C   UNL     1      38.121 -23.201 -15.115  0.00  0.00    +0.169 C 
BRANCH  20  21
ATOM     21  O   UNL     1      39.073 -24.238 -15.265  0.00  0.00    -0.379 OA
ATOM     22  H   UNL     1      39.075 -24.794 -14.470  0.00  0.00    +0.211 HD
ENDBRANCH  20  21
ENDBRANCH  13  20
ENDBRANCH   1  11
BRANCH   4  23
ATOM     23  C   UNL     1      31.733 -22.998 -16.815  0.00  0.00    +0.059 C 
BRANCH  23  25
ATOM     24  S   UNL     1      32.772 -21.279 -18.751  0.00  0.00    -0.091 S 
ATOM     25  C   UNL     1      32.950 -22.508 -17.572  0.00  0.00    +0.012 C 
ATOM     26  C   UNL     1      34.259 -22.921 -17.449  0.00  0.00    +0.003 C 
ATOM     27  C   UNL     1      34.447 -21.297 -19.101  0.00  0.00    +0.029 C 
ATOM     28  C   UNL     1      35.126 -22.219 -18.336  0.00  0.00    +0.007 C 
BRANCH  27  30
ATOM     29  F   UNL     1      36.426 -17.829 -22.990  0.00  0.00    -0.204 F 
ATOM     30  C   UNL     1      34.960 -20.398 -20.109  0.00  0.00    +0.006 C 
ATOM     31  C   UNL     1      36.252 -19.885 -19.994  0.00  0.00    +0.003 C 
ATOM     32  C   UNL     1      34.163 -20.043 -21.198  0.00  0.00    +0.003 C 
ATOM     33  C   UNL     1      36.747 -19.018 -20.967  0.00  0.00    +0.030 C 
ATOM     34  C   UNL     1      34.658 -19.176 -22.170  0.00  0.00    +0.030 C 
ATOM     35  C   UNL     1      35.951 -18.662 -22.055  0.00  0.00    +0.140 C 
ENDBRANCH  27  30
ENDBRANCH  23  25
ENDBRANCH   4  23
TORSDOF 9
ENDMDL
MODEL 7
REMARK VINA RESULT:     -10.5     12.057     16.745
REMARK  Name = 24812758
REMARK  9 active torsions:
REMARK  status: ('A' for Active; 'I' for Inactive)
REMARK    1  A    between atoms: C_1  and  C_11
REMARK    2  A    between atoms: C_4  and  C_23
REMARK    3  A    between atoms: C_9  and  O_14
REMARK    4  A    between atoms: C_10  and  O_16
REMARK    5  A    between atoms: C_12  and  O_18
REMARK    6  A    between atoms: C_13  and  C_20
REMARK    7  A    between atoms: C_20  and  O_21
REMARK    8  A    between atoms: C_23  and  C_25
REMARK    9  A    between atoms: C_27  and  C_30
REMARK                            x       y       z     vdW  Elec       q    Type
REMARK                         _______ _______ _______ _____ _____    ______ ____
ROOT
ATOM      1  C   UNL     1      31.757  -7.228 -21.744  0.00  0.00    +0.007 C 
ATOM      2  C   UNL     1      31.342  -8.540 -21.975  0.00  0.00    -0.006 C 
ATOM      3  C   UNL     1      32.324  -6.883 -20.517  0.00  0.00    -0.002 C 
ATOM      4  C   UNL     1      31.493  -9.506 -20.981  0.00  0.00    -0.021 C 
ATOM      5  C   UNL     1      32.060  -9.160 -19.754  0.00  0.00    -0.025 C 
ATOM      6  C   UNL     1      32.475  -7.849 -19.522  0.00  0.00    -0.005 C 
ATOM      7  C   UNL     1      32.233 -10.176 -18.673  0.00  0.00    +0.031 C 
ENDROOT
BRANCH   1  11
ATOM      8  O   UNL     1      32.859  -6.020 -23.474  0.00  0.00    -0.347 OA
ATOM      9  C   UNL     1      31.098  -4.840 -22.257  0.00  0.00    +0.171 C 
ATOM     10  C   UNL     1      31.093  -3.754 -23.336  0.00  0.00    +0.169 C 
ATOM     11  C   UNL     1      31.592  -6.179 -22.825  0.00  0.00    +0.167 C 
ATOM     12  C   UNL     1      32.419  -3.719 -24.095  0.00  0.00    +0.169 C 
ATOM     13  C   UNL     1      32.805  -5.118 -24.579  0.00  0.00    +0.174 C 
BRANCH   9  14
ATOM     14  O   UNL     1      29.769  -5.014 -21.768  0.00  0.00    -0.379 OA
ATOM     15  H   UNL     1      29.514  -4.240 -21.241  0.00  0.00    +0.211 HD
ENDBRANCH   9  14
BRANCH  10  16
ATOM     16  O   UNL     1      30.902  -2.477 -22.724  0.00  0.00    -0.379 OA
ATOM     17  H   UNL     1      31.704  -2.226 -22.240  0.00  0.00    +0.211 HD
ENDBRANCH  10  16
BRANCH  12  18
ATOM     18  O   UNL     1      32.295  -2.851 -25.219  0.00  0.00    -0.379 OA
ATOM     19  H   UNL     1      31.633  -3.209 -25.832  0.00  0.00    +0.211 HD
ENDBRANCH  12  18
BRANCH  13  20
ATOM     20  C   UNL     1      34.178  -5.127 -25.244  0.00  0.00    +0.169 C 
BRANCH  20  21
ATOM     21  O   UNL     1      35.046  -5.939 -24.475  0.00  0.00    -0.379 OA
ATOM     22  H   UNL     1      35.500  -6.569 -25.056  0.00  0.00    +0.211 HD
ENDBRANCH  20  21
ENDBRANCH  13  20
ENDBRANCH   1  11
BRANCH   4  23
ATOM     23  C   UNL     1      31.042 -10.903 -21.252  0.00  0.00    +0.059 C 
BRANCH  23  25
ATOM     24  S   UNL     1      32.329 -13.374 -21.382  0.00  0.00    -0.091 S 
ATOM     25  C   UNL     1      32.091 -11.766 -21.922  0.00  0.00    +0.012 C 
ATOM     26  C   UNL     1      32.932 -11.440 -22.962  0.00  0.00    +0.003 C 
ATOM     27  C   UNL     1      33.561 -13.637 -22.542  0.00  0.00    +0.029 C 
ATOM     28  C   UNL     1      33.784 -12.524 -23.322  0.00  0.00    +0.007 C 
BRANCH  27  30
ATOM     29  F   UNL     1      36.076 -18.607 -22.721  0.00  0.00    -0.204 F 
ATOM     30  C   UNL     1      34.213 -14.925 -22.588  0.00  0.00    +0.006 C 
ATOM     31  C   UNL     1      34.323 -15.608 -23.799  0.00  0.00    +0.003 C 
ATOM     32  C   UNL     1      34.732 -15.487 -21.421  0.00  0.00    +0.003 C 
ATOM     33  C   UNL     1      34.952 -16.852 -23.845  0.00  0.00    +0.030 C 
ATOM     34  C   UNL     1      35.361 -16.730 -21.466  0.00  0.00    +0.030 C 
ATOM     35  C   UNL     1      35.472 -17.413 -22.678  0.00  0.00    +0.140 C 
ENDBRANCH  27  30
ENDBRANCH  23  25
ENDBRANCH   4  23
TORSDOF 9
ENDMDL
MODEL 8
REMARK VINA RESULT:     -10.1      4.546      8.398
REMARK  Name = 24812758
REMARK  9 active torsions:
REMARK  status: ('A' for Active; 'I' for Inactive)
REMARK    1  A    between atoms: C_1  and  C_11
REMARK    2  A    between atoms: C_4  and  C_23
REMARK    3  A    between atoms: C_9  and  O_14
REMARK    4  A    between atoms: C_10  and  O_16
REMARK    5  A    between atoms: C_12  and  O_18
REMARK    6  A    between atoms: C_13  and  C_20
REMARK    7  A    between atoms: C_20  and  O_21
REMARK    8  A    between atoms: C_23  and  C_25
REMARK    9  A    between atoms: C_27  and  C_30
REMARK                            x       y       z     vdW  Elec       q    Type
REMARK                         _______ _______ _______ _____ _____    ______ ____
ROOT
ATOM      1  C   UNL     1      35.934 -22.154 -17.347  0.00  0.00    +0.007 C 
ATOM      2  C   UNL     1      35.168 -23.082 -16.642  0.00  0.00    -0.006 C 
ATOM      3  C   UNL     1      37.074 -21.601 -16.761  0.00  0.00    -0.002 C 
ATOM      4  C   UNL     1      35.540 -23.459 -15.352  0.00  0.00    -0.021 C 
ATOM      5  C   UNL     1      36.680 -22.907 -14.767  0.00  0.00    -0.025 C 
ATOM      6  C   UNL     1      37.446 -21.978 -15.471  0.00  0.00    -0.005 C 
ATOM      7  C   UNL     1      37.100 -23.294 -13.387  0.00  0.00    +0.031 C 
ENDROOT
BRANCH   1  11
ATOM      8  O   UNL     1      36.252 -20.555 -19.081  0.00  0.00    -0.347 OA
ATOM      9  C   UNL     1      34.014 -21.513 -18.866  0.00  0.00    +0.171 C 
ATOM     10  C   UNL     1      33.650 -20.947 -20.241  0.00  0.00    +0.169 C 
ATOM     11  C   UNL     1      35.529 -21.745 -18.749  0.00  0.00    +0.167 C 
ATOM     12  C   UNL     1      34.545 -19.766 -20.611  0.00  0.00    +0.169 C 
ATOM     13  C   UNL     1      36.021 -20.123 -20.423  0.00  0.00    +0.174 C 
BRANCH   9  14
ATOM     14  O   UNL     1      33.346 -22.761 -18.685  0.00  0.00    -0.379 OA
ATOM     15  H   UNL     1      33.843 -23.306 -18.055  0.00  0.00    +0.211 HD
ENDBRANCH   9  14
BRANCH  10  16
ATOM     16  O   UNL     1      32.298 -20.487 -20.222  0.00  0.00    -0.379 OA
ATOM     17  H   UNL     1      31.703 -21.236 -20.062  0.00  0.00    +0.211 HD
ENDBRANCH  10  16
BRANCH  12  18
ATOM     18  O   UNL     1      34.318 -19.412 -21.973  0.00  0.00    -0.379 OA
ATOM     19  H   UNL     1      34.506 -18.468 -22.097  0.00  0.00    +0.211 HD
ENDBRANCH  12  18
BRANCH  13  20
ATOM     20  C   UNL     1      36.930 -18.926 -20.681  0.00  0.00    +0.169 C 
BRANCH  20  21
ATOM     21  O   UNL     1      36.150 -17.745 -20.614  0.00  0.00    -0.379 OA
ATOM     22  H   UNL     1      36.097 -17.444 -19.693  0.00  0.00    +0.211 HD
ENDBRANCH  20  21
ENDBRANCH  13  20
ENDBRANCH   1  11
BRANCH   4  23
ATOM     23  C   UNL     1      34.706 -24.455 -14.617  0.00  0.00    +0.059 C 
BRANCH  23  25
ATOM     24  S   UNL     1      32.161 -23.870 -15.598  0.00  0.00    -0.091 S 
ATOM     25  C   UNL     1      33.299 -23.976 -14.323  0.00  0.00    +0.012 C 
ATOM     26  C   UNL     1      32.760 -23.593 -13.115  0.00  0.00    +0.003 C 
ATOM     27  C   UNL     1      30.942 -23.309 -14.535  0.00  0.00    +0.029 C 
ATOM     28  C   UNL     1      31.393 -23.206 -13.238  0.00  0.00    +0.007 C 
BRANCH  27  30
ATOM     29  F   UNL     1      25.890 -22.165 -16.593  0.00  0.00    -0.204 F 
ATOM     30  C   UNL     1      29.633 -23.012 -15.068  0.00  0.00    +0.006 C 
ATOM     31  C   UNL     1      29.316 -23.368 -16.379  0.00  0.00    +0.003 C 
ATOM     32  C   UNL     1      28.684 -22.369 -14.272  0.00  0.00    +0.003 C 
ATOM     33  C   UNL     1      28.053 -23.082 -16.895  0.00  0.00    +0.030 C 
ATOM     34  C   UNL     1      27.421 -22.083 -14.787  0.00  0.00    +0.030 C 
ATOM     35  C   UNL     1      27.104 -22.440 -16.099  0.00  0.00    +0.140 C 
ENDBRANCH  27  30
ENDBRANCH  23  25
ENDBRANCH   4  23
TORSDOF 9
ENDMDL
MODEL 9
REMARK VINA RESULT:     -10.0     10.373     14.138
REMARK  Name = 24812758
REMARK  9 active torsions:
REMARK  status: ('A' for Active; 'I' for Inactive)
REMARK    1  A    between atoms: C_1  and  C_11
REMARK    2  A    between atoms: C_4  and  C_23
REMARK    3  A    between atoms: C_9  and  O_14
REMARK    4  A    between atoms: C_10  and  O_16
REMARK    5  A    between atoms: C_12  and  O_18
REMARK    6  A    between atoms: C_13  and  C_20
REMARK    7  A    between atoms: C_20  and  O_21
REMARK    8  A    between atoms: C_23  and  C_25
REMARK    9  A    between atoms: C_27  and  C_30
REMARK                            x       y       z     vdW  Elec       q    Type
REMARK                         _______ _______ _______ _____ _____    ______ ____
ROOT
ATOM      1  C   UNL     1      33.065 -12.625 -21.422  0.00  0.00    +0.007 C 
ATOM      2  C   UNL     1      32.496 -11.514 -22.043  0.00  0.00    -0.006 C 
ATOM      3  C   UNL     1      32.808 -12.878 -20.074  0.00  0.00    -0.002 C 
ATOM      4  C   UNL     1      31.671 -10.654 -21.318  0.00  0.00    -0.021 C 
ATOM      5  C   UNL     1      31.414 -10.907 -19.970  0.00  0.00    -0.025 C 
ATOM      6  C   UNL     1      31.983 -12.019 -19.349  0.00  0.00    -0.005 C 
ATOM      7  C   UNL     1      30.534 -10.003 -19.172  0.00  0.00    +0.031 C 
ENDROOT
BRANCH   1  11
ATOM      8  O   UNL     1      33.275 -13.903 -23.419  0.00  0.00    -0.347 OA
ATOM      9  C   UNL     1      34.326 -14.819 -21.411  0.00  0.00    +0.171 C 
ATOM     10  C   UNL     1      35.095 -15.817 -22.280  0.00  0.00    +0.169 C 
ATOM     11  C   UNL     1      33.962 -13.558 -22.211  0.00  0.00    +0.167 C 
ATOM     12  C   UNL     1      34.395 -16.045 -23.618  0.00  0.00    +0.169 C 
ATOM     13  C   UNL     1      34.065 -14.711 -24.292  0.00  0.00    +0.174 C 
BRANCH   9  14
ATOM     14  O   UNL     1      35.145 -14.437 -20.306  0.00  0.00    -0.379 OA
ATOM     15  H   UNL     1      35.333 -13.487 -20.355  0.00  0.00    +0.211 HD
ENDBRANCH   9  14
BRANCH  10  16
ATOM     16  O   UNL     1      35.174 -17.073 -21.604  0.00  0.00    -0.379 OA
ATOM     17  H   UNL     1      34.320 -17.529 -21.667  0.00  0.00    +0.211 HD
ENDBRANCH  10  16
BRANCH  12  18
ATOM     18  O   UNL     1      35.246 -16.804 -24.472  0.00  0.00    -0.379 OA
ATOM     19  H   UNL     1      35.161 -17.747 -24.257  0.00  0.00    +0.211 HD
ENDBRANCH  12  18
BRANCH  13  20
ATOM     20  C   UNL     1      33.268 -14.909 -25.577  0.00  0.00    +0.169 C 
BRANCH  20  21
ATOM     21  O   UNL     1      32.841 -16.259 -25.640  0.00  0.00    -0.379 OA
ATOM     22  H   UNL     1      31.871 -16.291 -25.649  0.00  0.00    +0.211 HD
ENDBRANCH  20  21
ENDBRANCH  13  20
ENDBRANCH   1  11
BRANCH   4  23
ATOM     23  C   UNL     1      31.072  -9.471 -22.005  0.00  0.00    +0.059 C 
BRANCH  23  25
ATOM     24  S   UNL     1      32.110  -7.718 -23.910  0.00  0.00    -0.091 S 
ATOM     25  C   UNL     1      32.073  -8.382 -22.331  0.00  0.00    +0.012 C 
ATOM     26  C   UNL     1      33.013  -7.806 -21.506  0.00  0.00    +0.003 C 
ATOM     27  C   UNL     1      33.387  -6.657 -23.491  0.00  0.00    +0.029 C 
ATOM     28  C   UNL     1      33.775  -6.806 -22.178  0.00  0.00    +0.007 C 
BRANCH  27  30
ATOM     29  F   UNL     1      35.395  -3.195 -27.370  0.00  0.00    -0.204 F 
ATOM     30  C   UNL     1      33.907  -5.759 -24.496  0.00  0.00    +0.006 C 
ATOM     31  C   UNL     1      35.196  -5.945 -24.997  0.00  0.00    +0.003 C 
ATOM     32  C   UNL     1      33.122  -4.707 -24.966  0.00  0.00    +0.003 C 
ATOM     33  C   UNL     1      35.699  -5.080 -25.968  0.00  0.00    +0.030 C 
ATOM     34  C   UNL     1      33.624  -3.842 -25.937  0.00  0.00    +0.030 C 
ATOM     35  C   UNL     1      34.913  -4.027 -26.438  0.00  0.00    +0.140 C 
ENDBRANCH  27  30
ENDBRANCH  23  25
ENDBRANCH   4  23
TORSDOF 9
ENDMDL
