MODEL 1
REMARK VINA RESULT:     -11.1      0.000      0.000
REMARK  Name = 9562794
REMARK  7 active torsions:
REMARK  status: ('A' for Active; 'I' for Inactive)
REMARK    1  A    between atoms: N_1  and  C_2
REMARK    2  A    between atoms: N_1  and  N_16
REMARK    3  A    between atoms: C_2  and  C_5
REMARK    4  A    between atoms: C_6  and  O_13
REMARK    5  A    between atoms: C_17  and  C_19
REMARK    6  A    between atoms: C_22  and  O_25
REMARK    7  A    between atoms: C_23  and  O_27
REMARK                            x       y       z     vdW  Elec       q    Type
REMARK                         _______ _______ _______ _____ _____    ______ ____
ROOT
ATOM      1  N   UNL     1      37.133 -21.459 -16.563  0.00  0.00    -0.126 NA
ENDROOT
BRANCH   1   3
ATOM      2  O   UNL     1      38.600 -23.313 -15.187  0.00  0.00    -0.269 OA
ATOM      3  N   UNL     1      36.674 -22.052 -15.436  0.00  0.00    -0.228 N 
ATOM      4  C   UNL     1      37.481 -22.979 -14.804  0.00  0.00    +0.260 C 
ATOM      5  H   UNL     1      35.786 -21.829 -15.075  0.00  0.00    +0.171 HD
BRANCH   4   6
ATOM      6  C   UNL     1      36.910 -23.609 -13.585  0.00  0.00    +0.058 C 
ATOM      7  C   UNL     1      35.562 -23.901 -13.557  0.00  0.00    +0.044 C 
ATOM      8  C   UNL     1      37.745 -23.880 -12.522  0.00  0.00    +0.008 C 
ATOM      9  C   UNL     1      35.025 -24.491 -12.411  0.00  0.00    +0.168 C 
ATOM     10  C   UNL     1      35.848 -24.775 -11.322  0.00  0.00    +0.167 C 
ATOM     11  C   UNL     1      37.208 -24.470 -11.377  0.00  0.00    +0.040 C 
BRANCH   9  12
ATOM     12  O   UNL     1      33.695 -24.784 -12.370  0.00  0.00    -0.503 OA
ATOM     13  H   UNL     1      33.410 -25.674 -12.436  0.00  0.00    +0.292 HD
ENDBRANCH   9  12
BRANCH  10  14
ATOM     14  O   UNL     1      35.336 -25.350 -10.199  0.00  0.00    -0.503 OA
ATOM     15  H   UNL     1      35.113 -26.261 -10.199  0.00  0.00    +0.292 HD
ENDBRANCH  10  14
ENDBRANCH   4   6
ENDBRANCH   1   3
BRANCH   1  16
ATOM     16  C   UNL     1      36.788 -22.058 -17.663  0.00  0.00    +0.141 C 
BRANCH  16  19
ATOM     17  C   UNL     1      35.675 -20.708 -19.452  0.00  0.00    +0.000 C 
ATOM     18  C   UNL     1      34.499 -20.368 -20.163  0.00  0.00    -0.000 C 
ATOM     19  C   UNL     1      35.605 -21.668 -18.429  0.00  0.00    +0.031 C 
ATOM     20  C   UNL     1      34.393 -22.284 -18.112  0.00  0.00    +0.136 C 
ATOM     21  C   UNL     1      33.288 -20.998 -19.830  0.00  0.00    +0.003 C 
ATOM     22  C   UNL     1      36.885 -20.079 -19.785  0.00  0.00    -0.000 C 
ATOM     23  C   UNL     1      33.237 -21.949 -18.811  0.00  0.00    +0.037 C 
ATOM     24  C   UNL     1      34.568 -19.408 -21.184  0.00  0.00    -0.000 C 
ATOM     25  C   UNL     1      36.936 -19.127 -20.803  0.00  0.00    -0.000 C 
ATOM     26  C   UNL     1      35.779 -18.791 -21.502  0.00  0.00    -0.000 C 
BRANCH  20  27
ATOM     27  O   UNL     1      34.316 -23.217 -17.121  0.00  0.00    -0.472 OA
ATOM     28  C   UNL     1      33.084 -23.304 -16.408  0.00  0.00    +0.252 C 
ENDBRANCH  20  27
ENDBRANCH  16  19
ENDBRANCH   1  16
TORSDOF 7
ENDMDL
MODEL 2
REMARK VINA RESULT:     -10.9      3.809      8.866
REMARK  Name = 9562794
REMARK  7 active torsions:
REMARK  status: ('A' for Active; 'I' for Inactive)
REMARK    1  A    between atoms: N_1  and  C_2
REMARK    2  A    between atoms: N_1  and  N_16
REMARK    3  A    between atoms: C_2  and  C_5
REMARK    4  A    between atoms: C_6  and  O_13
REMARK    5  A    between atoms: C_17  and  C_19
REMARK    6  A    between atoms: C_22  and  O_25
REMARK    7  A    between atoms: C_23  and  O_27
REMARK                            x       y       z     vdW  Elec       q    Type
REMARK                         _______ _______ _______ _____ _____    ______ ____
ROOT
ATOM      1  N   UNL     1      36.444 -20.147 -19.212  0.00  0.00    -0.126 NA
ENDROOT
BRANCH   1   3
ATOM      2  O   UNL     1      37.704 -18.633 -21.110  0.00  0.00    -0.269 OA
ATOM      3  N   UNL     1      35.780 -19.596 -20.255  0.00  0.00    -0.228 N 
ATOM      4  C   UNL     1      36.496 -18.844 -21.168  0.00  0.00    +0.260 C 
ATOM      5  H   UNL     1      34.810 -19.726 -20.361  0.00  0.00    +0.171 HD
BRANCH   4   6
ATOM      6  C   UNL     1      35.705 -18.249 -22.277  0.00  0.00    +0.058 C 
ATOM      7  C   UNL     1      35.600 -16.876 -22.357  0.00  0.00    +0.044 C 
ATOM      8  C   UNL     1      35.100 -19.089 -23.188  0.00  0.00    +0.008 C 
ATOM      9  C   UNL     1      34.856 -16.317 -23.398  0.00  0.00    +0.168 C 
ATOM     10  C   UNL     1      34.234 -17.145 -24.333  0.00  0.00    +0.167 C 
ATOM     11  C   UNL     1      34.356 -18.530 -24.229  0.00  0.00    +0.040 C 
BRANCH   9  12
ATOM     12  O   UNL     1      34.744 -14.963 -23.489  0.00  0.00    -0.503 OA
ATOM     13  H   UNL     1      35.329 -14.411 -23.009  0.00  0.00    +0.292 HD
ENDBRANCH   9  12
BRANCH  10  14
ATOM     14  O   UNL     1      33.505 -16.612 -25.352  0.00  0.00    -0.503 OA
ATOM     15  H   UNL     1      32.875 -17.140 -25.803  0.00  0.00    +0.292 HD
ENDBRANCH  10  14
ENDBRANCH   4   6
ENDBRANCH   1   3
BRANCH   1  16
ATOM     16  C   UNL     1      36.274 -21.429 -19.086  0.00  0.00    +0.141 C 
BRANCH  16  19
ATOM     17  C   UNL     1      35.785 -22.405 -16.834  0.00  0.00    +0.000 C 
ATOM     18  C   UNL     1      34.850 -22.956 -15.926  0.00  0.00    -0.000 C 
ATOM     19  C   UNL     1      35.350 -22.004 -18.108  0.00  0.00    +0.031 C 
ATOM     20  C   UNL     1      34.013 -22.145 -18.481  0.00  0.00    +0.136 C 
ATOM     21  C   UNL     1      33.508 -23.090 -16.318  0.00  0.00    +0.003 C 
ATOM     22  C   UNL     1      37.127 -22.272 -16.443  0.00  0.00    -0.000 C 
ATOM     23  C   UNL     1      33.094 -22.687 -17.588  0.00  0.00    +0.037 C 
ATOM     24  C   UNL     1      35.284 -23.358 -14.653  0.00  0.00    -0.000 C 
ATOM     25  C   UNL     1      37.542 -22.675 -15.173  0.00  0.00    -0.000 C 
ATOM     26  C   UNL     1      36.622 -23.218 -14.279  0.00  0.00    -0.000 C 
BRANCH  20  27
ATOM     27  O   UNL     1      33.582 -21.758 -19.715  0.00  0.00    -0.472 OA
ATOM     28  C   UNL     1      32.731 -20.616 -19.776  0.00  0.00    +0.252 C 
ENDBRANCH  20  27
ENDBRANCH  16  19
ENDBRANCH   1  16
TORSDOF 7
ENDMDL
MODEL 3
REMARK VINA RESULT:     -10.4      3.335      8.306
REMARK  Name = 9562794
REMARK  7 active torsions:
REMARK  status: ('A' for Active; 'I' for Inactive)
REMARK    1  A    between atoms: N_1  and  C_2
REMARK    2  A    between atoms: N_1  and  N_16
REMARK    3  A    between atoms: C_2  and  C_5
REMARK    4  A    between atoms: C_6  and  O_13
REMARK    5  A    between atoms: C_17  and  C_19
REMARK    6  A    between atoms: C_22  and  O_25
REMARK    7  A    between atoms: C_23  and  O_27
REMARK                            x       y       z     vdW  Elec       q    Type
REMARK                         _______ _______ _______ _____ _____    ______ ____
ROOT
ATOM      1  N   UNL     1      32.821 -22.775 -18.240  0.00  0.00    -0.126 NA
ENDROOT
BRANCH   1   3
ATOM      2  O   UNL     1      32.539 -20.787 -20.098  0.00  0.00    -0.269 OA
ATOM      3  N   UNL     1      33.877 -22.070 -18.710  0.00  0.00    -0.228 N 
ATOM      4  C   UNL     1      33.644 -21.083 -19.650  0.00  0.00    +0.260 C 
ATOM      5  H   UNL     1      34.789 -22.257 -18.392  0.00  0.00    +0.171 HD
BRANCH   4   6
ATOM      6  C   UNL     1      34.847 -20.362 -20.141  0.00  0.00    +0.058 C 
ATOM      7  C   UNL     1      34.707 -19.464 -21.179  0.00  0.00    +0.044 C 
ATOM      8  C   UNL     1      36.064 -20.615 -19.544  0.00  0.00    +0.008 C 
ATOM      9  C   UNL     1      35.837 -18.789 -21.642  0.00  0.00    +0.168 C 
ATOM     10  C   UNL     1      37.080 -19.026 -21.055  0.00  0.00    +0.167 C 
ATOM     11  C   UNL     1      37.194 -19.939 -20.007  0.00  0.00    +0.040 C 
BRANCH   9  12
ATOM     12  O   UNL     1      35.713 -17.900 -22.666  0.00  0.00    -0.503 OA
ATOM     13  H   UNL     1      35.293 -18.158 -23.462  0.00  0.00    +0.292 HD
ENDBRANCH   9  12
BRANCH  10  14
ATOM     14  O   UNL     1      38.190 -18.373 -21.498  0.00  0.00    -0.503 OA
ATOM     15  H   UNL     1      38.622 -17.754 -20.942  0.00  0.00    +0.292 HD
ENDBRANCH  10  14
ENDBRANCH   4   6
ENDBRANCH   1   3
BRANCH   1  16
ATOM     16  C   UNL     1      32.377 -22.370 -17.088  0.00  0.00    +0.141 C 
BRANCH  16  19
ATOM     17  C   UNL     1      31.383 -23.816 -15.304  0.00  0.00    +0.000 C 
ATOM     18  C   UNL     1      31.554 -24.587 -14.129  0.00  0.00    -0.000 C 
ATOM     19  C   UNL     1      32.497 -23.178 -15.874  0.00  0.00    +0.031 C 
ATOM     20  C   UNL     1      33.760 -23.298 -15.295  0.00  0.00    +0.136 C 
ATOM     21  C   UNL     1      32.834 -24.696 -13.559  0.00  0.00    +0.003 C 
ATOM     22  C   UNL     1      30.105 -23.707 -15.873  0.00  0.00    -0.000 C 
ATOM     23  C   UNL     1      33.928 -24.055 -14.139  0.00  0.00    +0.037 C 
ATOM     24  C   UNL     1      30.441 -25.224 -13.557  0.00  0.00    -0.000 C 
ATOM     25  C   UNL     1      29.009 -24.347 -15.293  0.00  0.00    -0.000 C 
ATOM     26  C   UNL     1      29.177 -25.105 -14.136  0.00  0.00    -0.000 C 
BRANCH  20  27
ATOM     27  O   UNL     1      34.847 -22.683 -15.842  0.00  0.00    -0.472 OA
ATOM     28  C   UNL     1      36.123 -23.021 -15.302  0.00  0.00    +0.252 C 
ENDBRANCH  20  27
ENDBRANCH  16  19
ENDBRANCH   1  16
TORSDOF 7
ENDMDL
MODEL 4
REMARK VINA RESULT:     -10.3      3.308      8.353
REMARK  Name = 9562794
REMARK  7 active torsions:
REMARK  status: ('A' for Active; 'I' for Inactive)
REMARK    1  A    between atoms: N_1  and  C_2
REMARK    2  A    between atoms: N_1  and  N_16
REMARK    3  A    between atoms: C_2  and  C_5
REMARK    4  A    between atoms: C_6  and  O_13
REMARK    5  A    between atoms: C_17  and  C_19
REMARK    6  A    between atoms: C_22  and  O_25
REMARK    7  A    between atoms: C_23  and  O_27
REMARK                            x       y       z     vdW  Elec       q    Type
REMARK                         _______ _______ _______ _____ _____    ______ ____
ROOT
ATOM      1  N   UNL     1      32.725 -22.842 -18.020  0.00  0.00    -0.126 NA
ENDROOT
BRANCH   1   3
ATOM      2  O   UNL     1      35.392 -22.464 -18.497  0.00  0.00    -0.269 OA
ATOM      3  N   UNL     1      33.181 -21.881 -18.857  0.00  0.00    -0.228 N 
ATOM      4  C   UNL     1      34.546 -21.759 -19.040  0.00  0.00    +0.260 C 
ATOM      5  H   UNL     1      32.555 -21.282 -19.325  0.00  0.00    +0.171 HD
BRANCH   4   6
ATOM      6  C   UNL     1      34.981 -20.671 -19.954  0.00  0.00    +0.058 C 
ATOM      7  C   UNL     1      36.297 -20.260 -19.920  0.00  0.00    +0.044 C 
ATOM      8  C   UNL     1      34.055 -20.108 -20.806  0.00  0.00    +0.008 C 
ATOM      9  C   UNL     1      36.705 -19.237 -20.778  0.00  0.00    +0.168 C 
ATOM     10  C   UNL     1      35.788 -18.651 -21.649  0.00  0.00    +0.167 C 
ATOM     11  C   UNL     1      34.463 -19.085 -21.664  0.00  0.00    +0.040 C 
BRANCH   9  12
ATOM     12  O   UNL     1      38.002 -18.821 -20.754  0.00  0.00    -0.503 OA
ATOM     13  H   UNL     1      38.307 -18.277 -20.055  0.00  0.00    +0.292 HD
ENDBRANCH   9  12
BRANCH  10  14
ATOM     14  O   UNL     1      36.174 -17.652 -22.491  0.00  0.00    -0.503 OA
ATOM     15  H   UNL     1      36.808 -17.823 -23.160  0.00  0.00    +0.292 HD
ENDBRANCH  10  14
ENDBRANCH   4   6
ENDBRANCH   1   3
BRANCH   1  16
ATOM     16  C   UNL     1      32.347 -22.405 -16.856  0.00  0.00    +0.141 C 
BRANCH  16  19
ATOM     17  C   UNL     1      31.242 -23.904 -15.185  0.00  0.00    +0.000 C 
ATOM     18  C   UNL     1      31.335 -24.699 -14.018  0.00  0.00    -0.000 C 
ATOM     19  C   UNL     1      32.386 -23.239 -15.655  0.00  0.00    +0.031 C 
ATOM     20  C   UNL     1      33.604 -23.356 -14.984  0.00  0.00    +0.136 C 
ATOM     21  C   UNL     1      32.569 -24.805 -13.355  0.00  0.00    +0.003 C 
ATOM     22  C   UNL     1      30.009 -23.797 -15.847  0.00  0.00    -0.000 C 
ATOM     23  C   UNL     1      33.695 -24.137 -13.836  0.00  0.00    +0.037 C 
ATOM     24  C   UNL     1      30.191 -25.363 -13.546  0.00  0.00    -0.000 C 
ATOM     25  C   UNL     1      28.882 -24.465 -15.366  0.00  0.00    -0.000 C 
ATOM     26  C   UNL     1      28.972 -25.246 -14.217  0.00  0.00    -0.000 C 
BRANCH  20  27
ATOM     27  O   UNL     1      34.720 -22.714 -15.434  0.00  0.00    -0.472 OA
ATOM     28  C   UNL     1      35.979 -23.228 -15.005  0.00  0.00    +0.252 C 
ENDBRANCH  20  27
ENDBRANCH  16  19
ENDBRANCH   1  16
TORSDOF 7
ENDMDL
MODEL 5
REMARK VINA RESULT:     -10.3      5.159      8.039
REMARK  Name = 9562794
REMARK  7 active torsions:
REMARK  status: ('A' for Active; 'I' for Inactive)
REMARK    1  A    between atoms: N_1  and  C_2
REMARK    2  A    between atoms: N_1  and  N_16
REMARK    3  A    between atoms: C_2  and  C_5
REMARK    4  A    between atoms: C_6  and  O_13
REMARK    5  A    between atoms: C_17  and  C_19
REMARK    6  A    between atoms: C_22  and  O_25
REMARK    7  A    between atoms: C_23  and  O_27
REMARK                            x       y       z     vdW  Elec       q    Type
REMARK                         _______ _______ _______ _____ _____    ______ ____
ROOT
ATOM      1  N   UNL     1      35.406 -16.867 -21.572  0.00  0.00    -0.126 NA
ENDROOT
BRANCH   1   3
ATOM      2  O   UNL     1      34.976 -19.453 -22.352  0.00  0.00    -0.269 OA
ATOM      3  N   UNL     1      35.343 -17.888 -20.686  0.00  0.00    -0.228 N 
ATOM      4  C   UNL     1      35.122 -19.165 -21.167  0.00  0.00    +0.260 C 
ATOM      5  H   UNL     1      35.452 -17.725 -19.721  0.00  0.00    +0.171 HD
BRANCH   4   6
ATOM      6  C   UNL     1      35.042 -20.237 -20.141  0.00  0.00    +0.058 C 
ATOM      7  C   UNL     1      33.803 -20.734 -19.792  0.00  0.00    +0.044 C 
ATOM      8  C   UNL     1      36.209 -20.699 -19.569  0.00  0.00    +0.008 C 
ATOM      9  C   UNL     1      33.728 -21.739 -18.827  0.00  0.00    +0.168 C 
ATOM     10  C   UNL     1      34.894 -22.225 -18.234  0.00  0.00    +0.167 C 
ATOM     11  C   UNL     1      36.134 -21.705 -18.604  0.00  0.00    +0.040 C 
BRANCH   9  12
ATOM     12  O   UNL     1      32.511 -22.239 -18.473  0.00  0.00    -0.503 OA
ATOM     13  H   UNL     1      31.992 -22.698 -19.104  0.00  0.00    +0.292 HD
ENDBRANCH   9  12
BRANCH  10  14
ATOM     14  O   UNL     1      34.834 -23.205 -17.291  0.00  0.00    -0.503 OA
ATOM     15  H   UNL     1      35.615 -23.651 -17.029  0.00  0.00    +0.292 HD
ENDBRANCH  10  14
ENDBRANCH   4   6
ENDBRANCH   1   3
BRANCH   1  16
ATOM     16  C   UNL     1      34.853 -15.765 -21.162  0.00  0.00    +0.141 C 
BRANCH  16  19
ATOM     17  C   UNL     1      33.280 -13.860 -21.562  0.00  0.00    +0.000 C 
ATOM     18  C   UNL     1      32.579 -13.035 -22.473  0.00  0.00    -0.000 C 
ATOM     19  C   UNL     1      34.105 -14.883 -22.058  0.00  0.00    +0.031 C 
ATOM     20  C   UNL     1      34.237 -15.089 -23.432  0.00  0.00    +0.136 C 
ATOM     21  C   UNL     1      32.723 -13.256 -23.852  0.00  0.00    +0.003 C 
ATOM     22  C   UNL     1      33.136 -13.639 -20.183  0.00  0.00    -0.000 C 
ATOM     23  C   UNL     1      33.546 -14.277 -24.327  0.00  0.00    +0.037 C 
ATOM     24  C   UNL     1      31.753 -12.013 -21.977  0.00  0.00    -0.000 C 
ATOM     25  C   UNL     1      32.312 -12.619 -19.707  0.00  0.00    -0.000 C 
ATOM     26  C   UNL     1      31.621 -11.807 -20.603  0.00  0.00    -0.000 C 
BRANCH  20  27
ATOM     27  O   UNL     1      35.036 -16.079 -23.922  0.00  0.00    -0.472 OA
ATOM     28  C   UNL     1      34.410 -17.077 -24.725  0.00  0.00    +0.252 C 
ENDBRANCH  20  27
ENDBRANCH  16  19
ENDBRANCH   1  16
TORSDOF 7
ENDMDL
MODEL 6
REMARK VINA RESULT:     -10.2      3.117      7.955
REMARK  Name = 9562794
REMARK  7 active torsions:
REMARK  status: ('A' for Active; 'I' for Inactive)
REMARK    1  A    between atoms: N_1  and  C_2
REMARK    2  A    between atoms: N_1  and  N_16
REMARK    3  A    between atoms: C_2  and  C_5
REMARK    4  A    between atoms: C_6  and  O_13
REMARK    5  A    between atoms: C_17  and  C_19
REMARK    6  A    between atoms: C_22  and  O_25
REMARK    7  A    between atoms: C_23  and  O_27
REMARK                            x       y       z     vdW  Elec       q    Type
REMARK                         _______ _______ _______ _____ _____    ______ ____
ROOT
ATOM      1  N   UNL     1      32.692 -23.001 -17.907  0.00  0.00    -0.126 NA
ENDROOT
BRANCH   1   3
ATOM      2  O   UNL     1      35.354 -22.566 -18.367  0.00  0.00    -0.269 OA
ATOM      3  N   UNL     1      33.133 -22.023 -18.733  0.00  0.00    -0.228 N 
ATOM      4  C   UNL     1      34.496 -21.873 -18.908  0.00  0.00    +0.260 C 
ATOM      5  H   UNL     1      32.498 -21.432 -19.199  0.00  0.00    +0.171 HD
BRANCH   4   6
ATOM      6  C   UNL     1      34.914 -20.769 -19.810  0.00  0.00    +0.058 C 
ATOM      7  C   UNL     1      36.232 -20.360 -19.794  0.00  0.00    +0.044 C 
ATOM      8  C   UNL     1      33.972 -20.188 -20.632  0.00  0.00    +0.008 C 
ATOM      9  C   UNL     1      36.624 -19.321 -20.641  0.00  0.00    +0.168 C 
ATOM     10  C   UNL     1      35.691 -18.717 -21.482  0.00  0.00    +0.167 C 
ATOM     11  C   UNL     1      34.365 -19.150 -21.479  0.00  0.00    +0.040 C 
BRANCH   9  12
ATOM     12  O   UNL     1      37.922 -18.907 -20.635  0.00  0.00    -0.503 OA
ATOM     13  H   UNL     1      38.445 -19.015 -19.865  0.00  0.00    +0.292 HD
ENDBRANCH   9  12
BRANCH  10  14
ATOM     14  O   UNL     1      36.061 -17.703 -22.312  0.00  0.00    -0.503 OA
ATOM     15  H   UNL     1      35.414 -17.115 -22.651  0.00  0.00    +0.292 HD
ENDBRANCH  10  14
ENDBRANCH   4   6
ENDBRANCH   1   3
BRANCH   1  16
ATOM     16  C   UNL     1      32.149 -22.570 -16.809  0.00  0.00    +0.141 C 
BRANCH  16  19
ATOM     17  C   UNL     1      33.276 -23.497 -14.775  0.00  0.00    +0.000 C 
ATOM     18  C   UNL     1      33.204 -24.276 -13.596  0.00  0.00    -0.000 C 
ATOM     19  C   UNL     1      32.132 -23.364 -15.580  0.00  0.00    +0.031 C 
ATOM     20  C   UNL     1      30.937 -23.991 -15.227  0.00  0.00    +0.136 C 
ATOM     21  C   UNL     1      31.992 -24.900 -13.257  0.00  0.00    +0.003 C 
ATOM     22  C   UNL     1      34.487 -22.873 -15.114  0.00  0.00    -0.000 C 
ATOM     23  C   UNL     1      30.867 -24.758 -14.068  0.00  0.00    +0.037 C 
ATOM     24  C   UNL     1      34.347 -24.410 -12.791  0.00  0.00    -0.000 C 
ATOM     25  C   UNL     1      35.613 -23.016 -14.303  0.00  0.00    -0.000 C 
ATOM     26  C   UNL     1      35.544 -23.783 -13.143  0.00  0.00    -0.000 C 
BRANCH  20  27
ATOM     27  O   UNL     1      29.822 -23.867 -16.003  0.00  0.00    -0.472 OA
ATOM     28  C   UNL     1      28.592 -23.604 -15.331  0.00  0.00    +0.252 C 
ENDBRANCH  20  27
ENDBRANCH  16  19
ENDBRANCH   1  16
TORSDOF 7
ENDMDL
MODEL 7
REMARK VINA RESULT:      -9.9      3.184      7.929
REMARK  Name = 9562794
REMARK  7 active torsions:
REMARK  status: ('A' for Active; 'I' for Inactive)
REMARK    1  A    between atoms: N_1  and  C_2
REMARK    2  A    between atoms: N_1  and  N_16
REMARK    3  A    between atoms: C_2  and  C_5
REMARK    4  A    between atoms: C_6  and  O_13
REMARK    5  A    between atoms: C_17  and  C_19
REMARK    6  A    between atoms: C_22  and  O_25
REMARK    7  A    between atoms: C_23  and  O_27
REMARK                            x       y       z     vdW  Elec       q    Type
REMARK                         _______ _______ _______ _____ _____    ______ ____
ROOT
ATOM      1  N   UNL     1      32.779 -22.912 -18.064  0.00  0.00    -0.126 NA
ENDROOT
BRANCH   1   3
ATOM      2  O   UNL     1      32.429 -20.910 -19.895  0.00  0.00    -0.269 OA
ATOM      3  N   UNL     1      33.816 -22.199 -18.563  0.00  0.00    -0.228 N 
ATOM      4  C   UNL     1      33.548 -21.205 -19.486  0.00  0.00    +0.260 C 
ATOM      5  H   UNL     1      34.739 -22.384 -18.276  0.00  0.00    +0.171 HD
BRANCH   4   6
ATOM      6  C   UNL     1      34.732 -20.475 -20.010  0.00  0.00    +0.058 C 
ATOM      7  C   UNL     1      34.570 -19.638 -21.095  0.00  0.00    +0.044 C 
ATOM      8  C   UNL     1      35.953 -20.658 -19.396  0.00  0.00    +0.008 C 
ATOM      9  C   UNL     1      35.682 -18.954 -21.589  0.00  0.00    +0.168 C 
ATOM     10  C   UNL     1      36.928 -19.121 -20.986  0.00  0.00    +0.167 C 
ATOM     11  C   UNL     1      37.064 -19.973 -19.890  0.00  0.00    +0.040 C 
BRANCH   9  12
ATOM     12  O   UNL     1      35.537 -18.125 -22.660  0.00  0.00    -0.503 OA
ATOM     13  H   UNL     1      35.129 -18.438 -23.443  0.00  0.00    +0.292 HD
ENDBRANCH   9  12
BRANCH  10  14
ATOM     14  O   UNL     1      38.020 -18.459 -21.458  0.00  0.00    -0.503 OA
ATOM     15  H   UNL     1      38.430 -17.798 -20.934  0.00  0.00    +0.292 HD
ENDBRANCH  10  14
ENDBRANCH   4   6
ENDBRANCH   1   3
BRANCH   1  16
ATOM     16  C   UNL     1      32.288 -22.440 -16.958  0.00  0.00    +0.141 C 
BRANCH  16  19
ATOM     17  C   UNL     1      33.368 -23.409 -14.919  0.00  0.00    +0.000 C 
ATOM     18  C   UNL     1      33.260 -24.180 -13.737  0.00  0.00    -0.000 C 
ATOM     19  C   UNL     1      32.233 -23.228 -15.726  0.00  0.00    +0.031 C 
ATOM     20  C   UNL     1      31.010 -23.799 -15.374  0.00  0.00    +0.136 C 
ATOM     21  C   UNL     1      32.021 -24.748 -13.398  0.00  0.00    +0.003 C 
ATOM     22  C   UNL     1      34.606 -22.841 -15.258  0.00  0.00    -0.000 C 
ATOM     23  C   UNL     1      30.905 -24.559 -14.212  0.00  0.00    +0.037 C 
ATOM     24  C   UNL     1      34.394 -24.361 -12.930  0.00  0.00    -0.000 C 
ATOM     25  C   UNL     1      35.724 -23.030 -14.444  0.00  0.00    -0.000 C 
ATOM     26  C   UNL     1      35.618 -23.790 -13.281  0.00  0.00    -0.000 C 
BRANCH  20  27
ATOM     27  O   UNL     1      29.903 -23.629 -16.152  0.00  0.00    -0.472 OA
ATOM     28  C   UNL     1      28.638 -23.872 -15.540  0.00  0.00    +0.252 C 
ENDBRANCH  20  27
ENDBRANCH  16  19
ENDBRANCH   1  16
TORSDOF 7
ENDMDL
MODEL 8
REMARK VINA RESULT:      -9.8      9.867     13.549
REMARK  Name = 9562794
REMARK  7 active torsions:
REMARK  status: ('A' for Active; 'I' for Inactive)
REMARK    1  A    between atoms: N_1  and  C_2
REMARK    2  A    between atoms: N_1  and  N_16
REMARK    3  A    between atoms: C_2  and  C_5
REMARK    4  A    between atoms: C_6  and  O_13
REMARK    5  A    between atoms: C_17  and  C_19
REMARK    6  A    between atoms: C_22  and  O_25
REMARK    7  A    between atoms: C_23  and  O_27
REMARK                            x       y       z     vdW  Elec       q    Type
REMARK                         _______ _______ _______ _____ _____    ______ ____
ROOT
ATOM      1  N   UNL     1      33.831 -10.603 -23.890  0.00  0.00    -0.126 NA
ENDROOT
BRANCH   1   3
ATOM      2  O   UNL     1      33.255 -13.150 -24.704  0.00  0.00    -0.269 OA
ATOM      3  N   UNL     1      34.198 -11.691 -23.173  0.00  0.00    -0.228 N 
ATOM      4  C   UNL     1      33.865 -12.942 -23.659  0.00  0.00    +0.260 C 
ATOM      5  H   UNL     1      34.690 -11.595 -22.326  0.00  0.00    +0.171 HD
BRANCH   4   6
ATOM      6  C   UNL     1      34.278 -14.094 -22.815  0.00  0.00    +0.058 C 
ATOM      7  C   UNL     1      34.744 -15.236 -23.431  0.00  0.00    +0.044 C 
ATOM      8  C   UNL     1      34.181 -13.983 -21.444  0.00  0.00    +0.008 C 
ATOM      9  C   UNL     1      35.130 -16.319 -22.639  0.00  0.00    +0.168 C 
ATOM     10  C   UNL     1      35.042 -16.232 -21.250  0.00  0.00    +0.167 C 
ATOM     11  C   UNL     1      34.567 -15.065 -20.652  0.00  0.00    +0.040 C 
BRANCH   9  12
ATOM     12  O   UNL     1      35.592 -17.453 -23.234  0.00  0.00    -0.503 OA
ATOM     13  H   UNL     1      35.126 -17.826 -23.956  0.00  0.00    +0.292 HD
ENDBRANCH   9  12
BRANCH  10  14
ATOM     14  O   UNL     1      35.416 -17.281 -20.466  0.00  0.00    -0.503 OA
ATOM     15  H   UNL     1      35.393 -17.200 -19.533  0.00  0.00    +0.292 HD
ENDBRANCH  10  14
ENDBRANCH   4   6
ENDBRANCH   1   3
BRANCH   1  16
ATOM     16  C   UNL     1      32.742 -10.029 -23.473  0.00  0.00    +0.141 C 
BRANCH  16  19
ATOM     17  C   UNL     1      32.230  -9.398 -21.106  0.00  0.00    +0.000 C 
ATOM     18  C   UNL     1      32.248  -8.427 -20.077  0.00  0.00    -0.000 C 
ATOM     19  C   UNL     1      32.736  -9.064 -22.374  0.00  0.00    +0.031 C 
ATOM     20  C   UNL     1      33.252  -7.792 -22.621  0.00  0.00    +0.136 C 
ATOM     21  C   UNL     1      32.771  -7.151 -20.345  0.00  0.00    +0.003 C 
ATOM     22  C   UNL     1      31.707 -10.673 -20.839  0.00  0.00    -0.000 C 
ATOM     23  C   UNL     1      33.268  -6.837 -21.609  0.00  0.00    +0.037 C 
ATOM     24  C   UNL     1      31.741  -8.760 -18.811  0.00  0.00    -0.000 C 
ATOM     25  C   UNL     1      31.208 -10.988 -19.575  0.00  0.00    -0.000 C 
ATOM     26  C   UNL     1      31.225 -10.033 -18.562  0.00  0.00    -0.000 C 
BRANCH  20  27
ATOM     27  O   UNL     1      33.745  -7.459 -23.848  0.00  0.00    -0.472 OA
ATOM     28  C   UNL     1      35.042  -6.868 -23.886  0.00  0.00    +0.252 C 
ENDBRANCH  20  27
ENDBRANCH  16  19
ENDBRANCH   1  16
TORSDOF 7
ENDMDL
MODEL 9
REMARK VINA RESULT:      -9.7     10.540     13.862
REMARK  Name = 9562794
REMARK  7 active torsions:
REMARK  status: ('A' for Active; 'I' for Inactive)
REMARK    1  A    between atoms: N_1  and  C_2
REMARK    2  A    between atoms: N_1  and  N_16
REMARK    3  A    between atoms: C_2  and  C_5
REMARK    4  A    between atoms: C_6  and  O_13
REMARK    5  A    between atoms: C_17  and  C_19
REMARK    6  A    between atoms: C_22  and  O_25
REMARK    7  A    between atoms: C_23  and  O_27
REMARK                            x       y       z     vdW  Elec       q    Type
REMARK                         _______ _______ _______ _____ _____    ______ ____
ROOT
ATOM      1  N   UNL     1      31.957 -10.760 -23.038  0.00  0.00    -0.126 NA
ENDROOT
BRANCH   1   3
ATOM      2  O   UNL     1      34.264 -11.956 -23.896  0.00  0.00    -0.269 OA
ATOM      3  N   UNL     1      32.440 -11.891 -22.470  0.00  0.00    -0.228 N 
ATOM      4  C   UNL     1      33.613 -12.428 -22.967  0.00  0.00    +0.260 C 
ATOM      5  H   UNL     1      31.968 -12.320 -21.721  0.00  0.00    +0.171 HD
BRANCH   4   6
ATOM      6  C   UNL     1      34.078 -13.680 -22.315  0.00  0.00    +0.058 C 
ATOM      7  C   UNL     1      34.607 -14.683 -23.100  0.00  0.00    +0.044 C 
ATOM      8  C   UNL     1      33.963 -13.798 -20.946  0.00  0.00    +0.008 C 
ATOM      9  C   UNL     1      35.042 -15.859 -22.487  0.00  0.00    +0.168 C 
ATOM     10  C   UNL     1      34.937 -16.004 -21.104  0.00  0.00    +0.167 C 
ATOM     11  C   UNL     1      34.398 -14.975 -20.333  0.00  0.00    +0.040 C 
BRANCH   9  12
ATOM     12  O   UNL     1      35.566 -16.858 -23.251  0.00  0.00    -0.503 OA
ATOM     13  H   UNL     1      36.011 -17.574 -22.844  0.00  0.00    +0.292 HD
ENDBRANCH   9  12
BRANCH  10  14
ATOM     14  O   UNL     1      35.358 -17.147 -20.494  0.00  0.00    -0.503 OA
ATOM     15  H   UNL     1      34.953 -17.429 -19.698  0.00  0.00    +0.292 HD
ENDBRANCH  10  14
ENDBRANCH   4   6
ENDBRANCH   1   3
BRANCH   1  16
ATOM     16  C   UNL     1      31.182 -10.061 -22.265  0.00  0.00    +0.141 C 
BRANCH  16  19
ATOM     17  C   UNL     1      31.507  -7.580 -22.303  0.00  0.00    +0.000 C 
ATOM     18  C   UNL     1      31.944  -6.402 -21.652  0.00  0.00    -0.000 C 
ATOM     19  C   UNL     1      31.618  -8.813 -21.639  0.00  0.00    +0.031 C 
ATOM     20  C   UNL     1      32.153  -8.883 -20.353  0.00  0.00    +0.136 C 
ATOM     21  C   UNL     1      32.480  -6.491 -20.357  0.00  0.00    +0.003 C 
ATOM     22  C   UNL     1      30.971  -7.491 -23.598  0.00  0.00    -0.000 C 
ATOM     23  C   UNL     1      32.584  -7.724 -19.713  0.00  0.00    +0.037 C 
ATOM     24  C   UNL     1      31.833  -5.170 -22.316  0.00  0.00    -0.000 C 
ATOM     25  C   UNL     1      30.867  -6.258 -24.243  0.00  0.00    -0.000 C 
ATOM     26  C   UNL     1      31.298  -5.099 -23.603  0.00  0.00    -0.000 C 
BRANCH  20  27
ATOM     27  O   UNL     1      32.266 -10.075 -19.701  0.00  0.00    -0.472 OA
ATOM     28  C   UNL     1      31.482 -10.244 -18.522  0.00  0.00    +0.252 C 
ENDBRANCH  20  27
ENDBRANCH  16  19
ENDBRANCH   1  16
TORSDOF 7
ENDMDL
