MODEL 1
REMARK VINA RESULT:     -11.7      0.000      0.000
REMARK  Name = 28693
REMARK  5 active torsions:
REMARK  status: ('A' for Active; 'I' for Inactive)
REMARK    1  A    between atoms: C_6  and  C_20
REMARK    2  A    between atoms: C_20  and  N_22
REMARK    3  A    between atoms: C_23  and  O_25
REMARK    4  A    between atoms: O_25  and  C_26
REMARK    5  A    between atoms: C_26  and  C_27
REMARK                            x       y       z     vdW  Elec       q    Type
REMARK                         _______ _______ _______ _____ _____    ______ ____
ROOT
ATOM      1  N   UNL     1      32.564 -14.059 -20.921  0.00  0.00    +0.387 N 
ATOM      2  N   UNL     1      31.843  -8.080 -20.868  0.00  0.00    -0.284 N 
ATOM      3  C   UNL     1      32.935 -12.252 -22.633  0.00  0.00    +0.004 C 
ATOM      4  C   UNL     1      32.775 -12.599 -21.089  0.00  0.00    -0.050 C 
ATOM      5  C   UNL     1      34.082 -13.069 -23.243  0.00  0.00    +0.002 C 
ATOM      6  C   UNL     1      33.883 -14.562 -22.974  0.00  0.00    -0.001 C 
ATOM      7  C   UNL     1      31.642 -11.747 -20.399  0.00  0.00    +0.007 C 
ATOM      8  C   UNL     1      33.695 -14.823 -21.475  0.00  0.00    -0.076 C 
ATOM      9  C   UNL     1      33.086 -10.755 -22.846  0.00  0.00    -0.024 C 
ATOM     10  C   UNL     1      32.492  -9.919 -21.892  0.00  0.00    +0.007 C 
ATOM     11  C   UNL     1      31.802 -10.301 -20.724  0.00  0.00    -0.008 C 
ATOM     12  C   UNL     1      32.516  -8.540 -21.978  0.00  0.00    +0.051 C 
ATOM     13  C   UNL     1      32.367 -14.449 -19.522  0.00  0.00    -0.101 C 
ATOM     14  C   UNL     1      33.692 -10.113 -23.933  0.00  0.00    -0.004 C 
ATOM     15  C   UNL     1      31.402  -9.141 -20.101  0.00  0.00    +0.061 C 
ATOM     16  C   UNL     1      33.137  -7.891 -23.045  0.00  0.00    +0.015 C 
ATOM     17  C   UNL     1      33.721  -8.711 -24.023  0.00  0.00    +0.001 C 
ATOM     18  C   UNL     1      31.618  -6.689 -20.539  0.00  0.00    +0.117 C 
ATOM     19  H   UNL     1      31.709 -14.277 -21.433  0.00  0.00    -0.080 HD
ENDROOT
BRANCH   6  20
ATOM     20  C   UNL     1      35.063 -15.368 -23.519  0.00  0.00    +0.091 C 
BRANCH  20  22
ATOM     21  O   UNL     1      34.262 -17.853 -24.791  0.00  0.00    -0.226 OA
ATOM     22  N   UNL     1      35.085 -16.685 -22.961  0.00  0.00    -0.271 N 
ATOM     23  C   UNL     1      34.683 -17.826 -23.639  0.00  0.00    +0.402 C 
ATOM     24  H   UNL     1      35.407 -16.788 -22.037  0.00  0.00    +0.153 HD
BRANCH  23  25
ATOM     25  O   UNL     1      34.824 -18.924 -22.838  0.00  0.00    -0.430 OA
BRANCH  25  26
ATOM     26  C   UNL     1      35.355 -18.679 -21.531  0.00  0.00    +0.237 C 
BRANCH  26  27
ATOM     27  C   UNL     1      34.945 -19.797 -20.619  0.00  0.00    +0.021 C 
ATOM     28  C   UNL     1      35.919 -20.537 -19.956  0.00  0.00    -0.001 C 
ATOM     29  C   UNL     1      33.597 -20.084 -20.443  0.00  0.00    -0.001 C 
ATOM     30  C   UNL     1      35.538 -21.577 -19.108  0.00  0.00    -0.000 C 
ATOM     31  C   UNL     1      33.216 -21.124 -19.595  0.00  0.00    -0.000 C 
ATOM     32  C   UNL     1      34.187 -21.870 -18.928  0.00  0.00    -0.000 C 
ENDBRANCH  26  27
ENDBRANCH  25  26
ENDBRANCH  23  25
ENDBRANCH  20  22
ENDBRANCH   6  20
TORSDOF 5
ENDMDL
MODEL 2
REMARK VINA RESULT:     -11.2      0.984      1.402
REMARK  Name = 28693
REMARK  5 active torsions:
REMARK  status: ('A' for Active; 'I' for Inactive)
REMARK    1  A    between atoms: C_6  and  C_20
REMARK    2  A    between atoms: C_20  and  N_22
REMARK    3  A    between atoms: C_23  and  O_25
REMARK    4  A    between atoms: O_25  and  C_26
REMARK    5  A    between atoms: C_26  and  C_27
REMARK                            x       y       z     vdW  Elec       q    Type
REMARK                         _______ _______ _______ _____ _____    ______ ____
ROOT
ATOM      1  N   UNL     1      32.328 -13.445 -21.208  0.00  0.00    +0.387 N 
ATOM      2  N   UNL     1      32.177  -7.446 -20.705  0.00  0.00    -0.284 N 
ATOM      3  C   UNL     1      32.332 -11.565 -22.880  0.00  0.00    +0.004 C 
ATOM      4  C   UNL     1      32.606 -11.997 -21.373  0.00  0.00    -0.050 C 
ATOM      5  C   UNL     1      33.172 -12.421 -23.837  0.00  0.00    +0.002 C 
ATOM      6  C   UNL     1      32.932 -13.910 -23.579  0.00  0.00    -0.001 C 
ATOM      7  C   UNL     1      31.805 -11.111 -20.343  0.00  0.00    +0.007 C 
ATOM      8  C   UNL     1      33.174 -14.252 -22.105  0.00  0.00    -0.076 C 
ATOM      9  C   UNL     1      32.543 -10.071 -23.069  0.00  0.00    -0.024 C 
ATOM     10  C   UNL     1      32.333  -9.258 -21.949  0.00  0.00    +0.007 C 
ATOM     11  C   UNL     1      31.988  -9.663 -20.643  0.00  0.00    -0.008 C 
ATOM     12  C   UNL     1      32.450  -7.882 -21.983  0.00  0.00    +0.051 C 
ATOM     13  C   UNL     1      32.519 -13.908 -19.830  0.00  0.00    -0.101 C 
ATOM     14  C   UNL     1      32.854  -9.406 -24.262  0.00  0.00    -0.004 C 
ATOM     15  C   UNL     1      31.892  -8.519 -19.884  0.00  0.00    +0.061 C 
ATOM     16  C   UNL     1      32.781  -7.211 -23.161  0.00  0.00    +0.015 C 
ATOM     17  C   UNL     1      32.977  -8.007 -24.301  0.00  0.00    +0.001 C 
ATOM     18  C   UNL     1      32.182  -6.067 -20.270  0.00  0.00    +0.117 C 
ATOM     19  H   UNL     1      31.344 -13.569 -21.448  0.00  0.00    -0.080 HD
ENDROOT
BRANCH   6  20
ATOM     20  C   UNL     1      33.824 -14.761 -24.484  0.00  0.00    +0.091 C 
BRANCH  20  22
ATOM     21  O   UNL     1      34.193 -17.597 -24.997  0.00  0.00    -0.226 OA
ATOM     22  N   UNL     1      34.585 -15.700 -23.717  0.00  0.00    -0.271 N 
ATOM     23  C   UNL     1      34.710 -17.044 -24.032  0.00  0.00    +0.402 C 
ATOM     24  H   UNL     1      35.048 -15.369 -22.915  0.00  0.00    +0.153 HD
BRANCH  23  25
ATOM     25  O   UNL     1      35.499 -17.672 -23.110  0.00  0.00    -0.430 OA
BRANCH  25  26
ATOM     26  C   UNL     1      35.154 -17.448 -21.738  0.00  0.00    +0.237 C 
BRANCH  26  27
ATOM     27  C   UNL     1      35.346 -18.723 -20.970  0.00  0.00    +0.021 C 
ATOM     28  C   UNL     1      34.247 -19.523 -20.678  0.00  0.00    -0.001 C 
ATOM     29  C   UNL     1      36.621 -19.092 -20.557  0.00  0.00    -0.001 C 
ATOM     30  C   UNL     1      34.425 -20.708 -19.965  0.00  0.00    -0.000 C 
ATOM     31  C   UNL     1      36.800 -20.277 -19.843  0.00  0.00    -0.000 C 
ATOM     32  C   UNL     1      35.701 -21.085 -19.547  0.00  0.00    -0.000 C 
ENDBRANCH  26  27
ENDBRANCH  25  26
ENDBRANCH  23  25
ENDBRANCH  20  22
ENDBRANCH   6  20
TORSDOF 5
ENDMDL
MODEL 3
REMARK VINA RESULT:     -10.6      8.841     12.583
REMARK  Name = 28693
REMARK  5 active torsions:
REMARK  status: ('A' for Active; 'I' for Inactive)
REMARK    1  A    between atoms: C_6  and  C_20
REMARK    2  A    between atoms: C_20  and  N_22
REMARK    3  A    between atoms: C_23  and  O_25
REMARK    4  A    between atoms: O_25  and  C_26
REMARK    5  A    between atoms: C_26  and  C_27
REMARK                            x       y       z     vdW  Elec       q    Type
REMARK                         _______ _______ _______ _____ _____    ______ ____
ROOT
ATOM      1  N   UNL     1      31.851 -23.797 -14.770  0.00  0.00    +0.387 N 
ATOM      2  N   UNL     1      34.240 -21.123 -19.608  0.00  0.00    -0.284 N 
ATOM      3  C   UNL     1      34.211 -23.444 -15.568  0.00  0.00    +0.004 C 
ATOM      4  C   UNL     1      32.697 -22.967 -15.664  0.00  0.00    -0.050 C 
ATOM      5  C   UNL     1      34.692 -23.386 -14.111  0.00  0.00    +0.002 C 
ATOM      6  C   UNL     1      33.748 -24.175 -13.201  0.00  0.00    -0.001 C 
ATOM      7  C   UNL     1      32.168 -22.957 -17.150  0.00  0.00    +0.007 C 
ATOM      8  C   UNL     1      32.303 -23.695 -13.371  0.00  0.00    -0.076 C 
ATOM      9  C   UNL     1      35.096 -22.658 -16.522  0.00  0.00    -0.024 C 
ATOM     10  C   UNL     1      34.484 -22.153 -17.676  0.00  0.00    +0.007 C 
ATOM     11  C   UNL     1      33.127 -22.247 -18.044  0.00  0.00    -0.008 C 
ATOM     12  C   UNL     1      35.172 -21.454 -18.650  0.00  0.00    +0.051 C 
ATOM     13  C   UNL     1      30.431 -23.441 -14.838  0.00  0.00    -0.101 C 
ATOM     14  C   UNL     1      36.476 -22.444 -16.413  0.00  0.00    -0.004 C 
ATOM     15  C   UNL     1      32.996 -21.603 -19.252  0.00  0.00    +0.061 C 
ATOM     16  C   UNL     1      36.542 -21.216 -18.540  0.00  0.00    +0.015 C 
ATOM     17  C   UNL     1      37.178 -21.731 -17.399  0.00  0.00    +0.001 C 
ATOM     18  C   UNL     1      34.511 -20.383 -20.821  0.00  0.00    +0.117 C 
ATOM     19  H   UNL     1      31.952 -24.756 -15.102  0.00  0.00    -0.080 HD
ENDROOT
BRANCH   6  20
ATOM     20  C   UNL     1      34.188 -24.056 -11.741  0.00  0.00    +0.091 C 
BRANCH  20  22
ATOM     21  O   UNL     1      36.042 -24.337  -9.522  0.00  0.00    -0.226 OA
ATOM     22  N   UNL     1      35.525 -23.557 -11.647  0.00  0.00    -0.271 N 
ATOM     23  C   UNL     1      36.349 -23.735 -10.546  0.00  0.00    +0.402 C 
ATOM     24  H   UNL     1      35.883 -23.055 -12.414  0.00  0.00    +0.153 HD
BRANCH  23  25
ATOM     25  O   UNL     1      37.561 -23.143 -10.764  0.00  0.00    -0.430 OA
BRANCH  25  26
ATOM     26  C   UNL     1      38.622 -24.021 -11.158  0.00  0.00    +0.237 C 
BRANCH  26  27
ATOM     27  C   UNL     1      38.168 -24.845 -12.327  0.00  0.00    +0.021 C 
ATOM     28  C   UNL     1      37.685 -26.132 -12.116  0.00  0.00    -0.001 C 
ATOM     29  C   UNL     1      38.232 -24.314 -13.610  0.00  0.00    -0.001 C 
ATOM     30  C   UNL     1      37.262 -26.898 -13.202  0.00  0.00    -0.000 C 
ATOM     31  C   UNL     1      37.810 -25.080 -14.697  0.00  0.00    -0.000 C 
ATOM     32  C   UNL     1      37.325 -26.372 -14.492  0.00  0.00    -0.000 C 
ENDBRANCH  26  27
ENDBRANCH  25  26
ENDBRANCH  23  25
ENDBRANCH  20  22
ENDBRANCH   6  20
TORSDOF 5
ENDMDL
MODEL 4
REMARK VINA RESULT:     -10.6      5.197     11.887
REMARK  Name = 28693
REMARK  5 active torsions:
REMARK  status: ('A' for Active; 'I' for Inactive)
REMARK    1  A    between atoms: C_6  and  C_20
REMARK    2  A    between atoms: C_20  and  N_22
REMARK    3  A    between atoms: C_23  and  O_25
REMARK    4  A    between atoms: O_25  and  C_26
REMARK    5  A    between atoms: C_26  and  C_27
REMARK                            x       y       z     vdW  Elec       q    Type
REMARK                         _______ _______ _______ _____ _____    ______ ____
ROOT
ATOM      1  N   UNL     1      37.002 -23.380 -15.419  0.00  0.00    +0.387 N 
ATOM      2  N   UNL     1      31.458 -24.553 -13.383  0.00  0.00    -0.284 N 
ATOM      3  C   UNL     1      34.703 -23.138 -16.413  0.00  0.00    +0.004 C 
ATOM      4  C   UNL     1      35.561 -23.279 -15.080  0.00  0.00    -0.050 C 
ATOM      5  C   UNL     1      35.184 -21.929 -17.226  0.00  0.00    +0.002 C 
ATOM      6  C   UNL     1      36.691 -22.016 -17.480  0.00  0.00    -0.001 C 
ATOM      7  C   UNL     1      35.071 -24.478 -14.180  0.00  0.00    +0.007 C 
ATOM      8  C   UNL     1      37.454 -22.191 -16.163  0.00  0.00    -0.076 C 
ATOM      9  C   UNL     1      33.215 -23.100 -16.106  0.00  0.00    -0.024 C 
ATOM     10  C   UNL     1      32.793 -23.760 -14.945  0.00  0.00    +0.007 C 
ATOM     11  C   UNL     1      33.593 -24.426 -13.994  0.00  0.00    -0.008 C 
ATOM     12  C   UNL     1      31.468 -23.841 -14.561  0.00  0.00    +0.051 C 
ATOM     13  C   UNL     1      37.854 -23.555 -14.239  0.00  0.00    -0.101 C 
ATOM     14  C   UNL     1      32.203 -22.539 -16.895  0.00  0.00    -0.004 C 
ATOM     15  C   UNL     1      32.742 -24.916 -13.031  0.00  0.00    +0.061 C 
ATOM     16  C   UNL     1      30.455 -23.266 -15.329  0.00  0.00    +0.015 C 
ATOM     17  C   UNL     1      30.855 -22.615 -16.507  0.00  0.00    +0.001 C 
ATOM     18  C   UNL     1      30.278 -24.884 -12.613  0.00  0.00    +0.117 C 
ATOM     19  H   UNL     1      37.094 -24.213 -16.001  0.00  0.00    -0.080 HD
ENDROOT
BRANCH   6  20
ATOM     20  C   UNL     1      37.181 -20.775 -18.228  0.00  0.00    +0.091 C 
BRANCH  20  22
ATOM     21  O   UNL     1      37.594 -18.986 -20.479  0.00  0.00    -0.226 OA
ATOM     22  N   UNL     1      36.218 -20.346 -19.195  0.00  0.00    -0.271 N 
ATOM     23  C   UNL     1      36.498 -19.485 -20.245  0.00  0.00    +0.402 C 
ATOM     24  H   UNL     1      35.298 -20.684 -19.110  0.00  0.00    +0.153 HD
BRANCH  23  25
ATOM     25  O   UNL     1      35.373 -19.270 -20.990  0.00  0.00    -0.430 OA
BRANCH  25  26
ATOM     26  C   UNL     1      35.574 -19.152 -22.404  0.00  0.00    +0.237 C 
BRANCH  26  27
ATOM     27  C   UNL     1      35.155 -17.781 -22.845  0.00  0.00    +0.021 C 
ATOM     28  C   UNL     1      35.275 -16.708 -21.968  0.00  0.00    -0.001 C 
ATOM     29  C   UNL     1      34.651 -17.594 -24.127  0.00  0.00    -0.001 C 
ATOM     30  C   UNL     1      34.886 -15.433 -22.379  0.00  0.00    -0.000 C 
ATOM     31  C   UNL     1      34.262 -16.319 -24.538  0.00  0.00    -0.000 C 
ATOM     32  C   UNL     1      34.379 -15.239 -23.663  0.00  0.00    -0.000 C 
ENDBRANCH  26  27
ENDBRANCH  25  26
ENDBRANCH  23  25
ENDBRANCH  20  22
ENDBRANCH   6  20
TORSDOF 5
ENDMDL
MODEL 5
REMARK VINA RESULT:     -10.2      5.355     12.535
REMARK  Name = 28693
REMARK  5 active torsions:
REMARK  status: ('A' for Active; 'I' for Inactive)
REMARK    1  A    between atoms: C_6  and  C_20
REMARK    2  A    between atoms: C_20  and  N_22
REMARK    3  A    between atoms: C_23  and  O_25
REMARK    4  A    between atoms: O_25  and  C_26
REMARK    5  A    between atoms: C_26  and  C_27
REMARK                            x       y       z     vdW  Elec       q    Type
REMARK                         _______ _______ _______ _____ _____    ______ ____
ROOT
ATOM      1  N   UNL     1      32.160 -23.007 -15.464  0.00  0.00    +0.387 N 
ATOM      2  N   UNL     1      36.566 -25.044 -11.900  0.00  0.00    -0.284 N 
ATOM      3  C   UNL     1      34.666 -22.785 -15.506  0.00  0.00    +0.004 C 
ATOM      4  C   UNL     1      33.420 -23.612 -14.965  0.00  0.00    -0.050 C 
ATOM      5  C   UNL     1      34.632 -22.720 -17.039  0.00  0.00    +0.002 C 
ATOM      6  C   UNL     1      33.286 -22.178 -17.526  0.00  0.00    -0.001 C 
ATOM      7  C   UNL     1      33.434 -23.755 -13.394  0.00  0.00    +0.007 C 
ATOM      8  C   UNL     1      32.129 -22.993 -16.938  0.00  0.00    -0.076 C 
ATOM      9  C   UNL     1      35.971 -23.338 -14.958  0.00  0.00    -0.024 C 
ATOM     10  C   UNL     1      35.911 -23.979 -13.714  0.00  0.00    +0.007 C 
ATOM     11  C   UNL     1      34.771 -24.215 -12.921  0.00  0.00    -0.008 C 
ATOM     12  C   UNL     1      37.024 -24.495 -13.077  0.00  0.00    +0.051 C 
ATOM     13  C   UNL     1      30.963 -23.695 -14.971  0.00  0.00    -0.101 C 
ATOM     14  C   UNL     1      37.246 -23.212 -15.524  0.00  0.00    -0.004 C 
ATOM     15  C   UNL     1      35.199 -24.877 -11.794  0.00  0.00    +0.061 C 
ATOM     16  C   UNL     1      38.295 -24.396 -13.644  0.00  0.00    +0.015 C 
ATOM     17  C   UNL     1      38.380 -23.738 -14.881  0.00  0.00    +0.001 C 
ATOM     18  C   UNL     1      37.386 -25.702 -10.906  0.00  0.00    +0.117 C 
ATOM     19  H   UNL     1      32.147 -22.053 -15.104  0.00  0.00    -0.080 HD
ENDROOT
BRANCH   6  20
ATOM     20  C   UNL     1      33.228 -22.183 -19.054  0.00  0.00    +0.091 C 
BRANCH  20  22
ATOM     21  O   UNL     1      35.764 -21.152 -20.025  0.00  0.00    -0.226 OA
ATOM     22  N   UNL     1      33.501 -20.881 -19.581  0.00  0.00    -0.271 N 
ATOM     23  C   UNL     1      34.747 -20.466 -20.025  0.00  0.00    +0.402 C 
ATOM     24  H   UNL     1      32.757 -20.239 -19.631  0.00  0.00    +0.153 HD
BRANCH  23  25
ATOM     25  O   UNL     1      34.683 -19.175 -20.468  0.00  0.00    -0.430 OA
BRANCH  25  26
ATOM     26  C   UNL     1      35.796 -18.728 -21.252  0.00  0.00    +0.237 C 
BRANCH  26  27
ATOM     27  C   UNL     1      35.301 -17.792 -22.315  0.00  0.00    +0.021 C 
ATOM     28  C   UNL     1      35.304 -16.421 -22.083  0.00  0.00    -0.001 C 
ATOM     29  C   UNL     1      34.844 -18.304 -23.524  0.00  0.00    -0.001 C 
ATOM     30  C   UNL     1      34.845 -15.551 -23.071  0.00  0.00    -0.000 C 
ATOM     31  C   UNL     1      34.384 -17.434 -24.513  0.00  0.00    -0.000 C 
ATOM     32  C   UNL     1      34.384 -16.058 -24.286  0.00  0.00    -0.000 C 
ENDBRANCH  26  27
ENDBRANCH  25  26
ENDBRANCH  23  25
ENDBRANCH  20  22
ENDBRANCH   6  20
TORSDOF 5
ENDMDL
MODEL 6
REMARK VINA RESULT:     -10.2      4.859     12.280
REMARK  Name = 28693
REMARK  5 active torsions:
REMARK  status: ('A' for Active; 'I' for Inactive)
REMARK    1  A    between atoms: C_6  and  C_20
REMARK    2  A    between atoms: C_20  and  N_22
REMARK    3  A    between atoms: C_23  and  O_25
REMARK    4  A    between atoms: O_25  and  C_26
REMARK    5  A    between atoms: C_26  and  C_27
REMARK                            x       y       z     vdW  Elec       q    Type
REMARK                         _______ _______ _______ _____ _____    ______ ____
ROOT
ATOM      1  N   UNL     1      33.389 -22.306 -16.971  0.00  0.00    +0.387 N 
ATOM      2  N   UNL     1      36.315 -25.039 -12.473  0.00  0.00    -0.284 N 
ATOM      3  C   UNL     1      35.808 -22.408 -16.285  0.00  0.00    +0.004 C 
ATOM      4  C   UNL     1      34.374 -23.089 -16.183  0.00  0.00    -0.050 C 
ATOM      5  C   UNL     1      36.228 -22.277 -17.755  0.00  0.00    +0.002 C 
ATOM      6  C   UNL     1      35.151 -21.547 -18.560  0.00  0.00    -0.001 C 
ATOM      7  C   UNL     1      33.916 -23.296 -14.688  0.00  0.00    +0.007 C 
ATOM      8  C   UNL     1      33.789 -22.227 -18.387  0.00  0.00    -0.076 C 
ATOM      9  C   UNL     1      36.828 -23.148 -15.434  0.00  0.00    -0.024 C 
ATOM     10  C   UNL     1      36.338 -23.826 -14.311  0.00  0.00    +0.007 C 
ATOM     11  C   UNL     1      34.998 -23.944 -13.893  0.00  0.00    -0.008 C 
ATOM     12  C   UNL     1      37.153 -24.507 -13.427  0.00  0.00    +0.051 C 
ATOM     13  C   UNL     1      32.032 -22.852 -16.890  0.00  0.00    -0.101 C 
ATOM     14  C   UNL     1      38.218 -23.166 -15.606  0.00  0.00    -0.004 C 
ATOM     15  C   UNL     1      35.004 -24.701 -12.744  0.00  0.00    +0.061 C 
ATOM     16  C   UNL     1      38.537 -24.550 -13.602  0.00  0.00    +0.015 C 
ATOM     17  C   UNL     1      39.050 -23.860 -14.711  0.00  0.00    +0.001 C 
ATOM     18  C   UNL     1      36.732 -25.838 -11.341  0.00  0.00    +0.117 C 
ATOM     19  H   UNL     1      33.380 -21.374 -16.557  0.00  0.00    -0.080 HD
ENDROOT
BRANCH   6  20
ATOM     20  C   UNL     1      35.538 -21.481 -20.038  0.00  0.00    +0.091 C 
BRANCH  20  22
ATOM     21  O   UNL     1      37.259 -19.148 -19.850  0.00  0.00    -0.226 OA
ATOM     22  N   UNL     1      35.305 -20.174 -20.571  0.00  0.00    -0.271 N 
ATOM     23  C   UNL     1      36.182 -19.109 -20.436  0.00  0.00    +0.402 C 
ATOM     24  H   UNL     1      34.468 -20.022 -21.066  0.00  0.00    +0.153 HD
BRANCH  23  25
ATOM     25  O   UNL     1      35.676 -18.001 -21.054  0.00  0.00    -0.430 OA
BRANCH  25  26
ATOM     26  C   UNL     1      35.691 -18.022 -22.486  0.00  0.00    +0.237 C 
BRANCH  26  27
ATOM     27  C   UNL     1      35.028 -16.779 -23.002  0.00  0.00    +0.021 C 
ATOM     28  C   UNL     1      34.513 -16.758 -24.293  0.00  0.00    -0.001 C 
ATOM     29  C   UNL     1      34.934 -15.659 -22.184  0.00  0.00    -0.001 C 
ATOM     30  C   UNL     1      33.896 -15.602 -24.772  0.00  0.00    -0.000 C 
ATOM     31  C   UNL     1      34.318 -14.503 -22.663  0.00  0.00    -0.000 C 
ATOM     32  C   UNL     1      33.799 -14.474 -23.958  0.00  0.00    -0.000 C 
ENDBRANCH  26  27
ENDBRANCH  25  26
ENDBRANCH  23  25
ENDBRANCH  20  22
ENDBRANCH   6  20
TORSDOF 5
ENDMDL
MODEL 7
REMARK VINA RESULT:     -10.0      2.540      4.547
REMARK  Name = 28693
REMARK  5 active torsions:
REMARK  status: ('A' for Active; 'I' for Inactive)
REMARK    1  A    between atoms: C_6  and  C_20
REMARK    2  A    between atoms: C_20  and  N_22
REMARK    3  A    between atoms: C_23  and  O_25
REMARK    4  A    between atoms: O_25  and  C_26
REMARK    5  A    between atoms: C_26  and  C_27
REMARK                            x       y       z     vdW  Elec       q    Type
REMARK                         _______ _______ _______ _____ _____    ______ ____
ROOT
ATOM      1  N   UNL     1      31.786  -9.268 -21.404  0.00  0.00    +0.387 N 
ATOM      2  N   UNL     1      31.731  -3.332 -22.419  0.00  0.00    -0.284 N 
ATOM      3  C   UNL     1      31.948  -7.863 -23.485  0.00  0.00    +0.004 C 
ATOM      4  C   UNL     1      32.106  -7.907 -21.903  0.00  0.00    -0.050 C 
ATOM      5  C   UNL     1      32.835  -8.933 -24.136  0.00  0.00    +0.002 C 
ATOM      6  C   UNL     1      32.545 -10.311 -23.535  0.00  0.00    -0.001 C 
ATOM      7  C   UNL     1      31.255  -6.790 -21.186  0.00  0.00    +0.007 C 
ATOM      8  C   UNL     1      32.675 -10.275 -22.008  0.00  0.00    -0.076 C 
ATOM      9  C   UNL     1      32.205  -6.465 -24.024  0.00  0.00    -0.024 C 
ATOM     10  C   UNL     1      31.934  -5.397 -23.158  0.00  0.00    +0.007 C 
ATOM     11  C   UNL     1      31.489  -5.462 -21.823  0.00  0.00    -0.008 C 
ATOM     12  C   UNL     1      32.083  -4.073 -23.525  0.00  0.00    +0.051 C 
ATOM     13  C   UNL     1      31.870  -9.374 -19.944  0.00  0.00    -0.101 C 
ATOM     14  C   UNL     1      32.613  -6.119 -25.318  0.00  0.00    -0.004 C 
ATOM     15  C   UNL     1      31.365  -4.166 -21.380  0.00  0.00    +0.061 C 
ATOM     16  C   UNL     1      32.511  -3.719 -24.805  0.00  0.00    +0.015 C 
ATOM     17  C   UNL     1      32.769  -4.774 -25.693  0.00  0.00    +0.001 C 
ATOM     18  C   UNL     1      31.735  -1.887 -22.340  0.00  0.00    +0.117 C 
ATOM     19  H   UNL     1      30.819  -9.444 -21.678  0.00  0.00    -0.080 HD
ENDROOT
BRANCH   6  20
ATOM     20  C   UNL     1      33.479 -11.364 -24.132  0.00  0.00    +0.091 C 
BRANCH  20  22
ATOM     21  O   UNL     1      33.010 -14.174 -24.701  0.00  0.00    -0.226 OA
ATOM     22  N   UNL     1      33.632 -12.475 -23.245  0.00  0.00    -0.271 N 
ATOM     23  C   UNL     1      33.386 -13.794 -23.596  0.00  0.00    +0.402 C 
ATOM     24  H   UNL     1      33.931 -12.292 -22.325  0.00  0.00    +0.153 HD
BRANCH  23  25
ATOM     25  O   UNL     1      33.623 -14.617 -22.532  0.00  0.00    -0.430 OA
BRANCH  25  26
ATOM     26  C   UNL     1      34.975 -15.065 -22.379  0.00  0.00    +0.237 C 
BRANCH  26  27
ATOM     27  C   UNL     1      35.007 -16.563 -22.460  0.00  0.00    +0.021 C 
ATOM     28  C   UNL     1      35.394 -17.305 -21.349  0.00  0.00    -0.001 C 
ATOM     29  C   UNL     1      34.650 -17.196 -23.644  0.00  0.00    -0.001 C 
ATOM     30  C   UNL     1      35.423 -18.697 -21.423  0.00  0.00    -0.000 C 
ATOM     31  C   UNL     1      34.680 -18.589 -23.720  0.00  0.00    -0.000 C 
ATOM     32  C   UNL     1      35.067 -19.339 -22.609  0.00  0.00    -0.000 C 
ENDBRANCH  26  27
ENDBRANCH  25  26
ENDBRANCH  23  25
ENDBRANCH  20  22
ENDBRANCH   6  20
TORSDOF 5
ENDMDL
MODEL 8
REMARK VINA RESULT:      -9.8      4.487     11.924
REMARK  Name = 28693
REMARK  5 active torsions:
REMARK  status: ('A' for Active; 'I' for Inactive)
REMARK    1  A    between atoms: C_6  and  C_20
REMARK    2  A    between atoms: C_20  and  N_22
REMARK    3  A    between atoms: C_23  and  O_25
REMARK    4  A    between atoms: O_25  and  C_26
REMARK    5  A    between atoms: C_26  and  C_27
REMARK                            x       y       z     vdW  Elec       q    Type
REMARK                         _______ _______ _______ _____ _____    ______ ____
ROOT
ATOM      1  N   UNL     1      36.165 -22.024 -17.925  0.00  0.00    +0.387 N 
ATOM      2  N   UNL     1      34.922 -24.218 -12.456  0.00  0.00    -0.284 N 
ATOM      3  C   UNL     1      34.130 -23.103 -16.911  0.00  0.00    +0.004 C 
ATOM      4  C   UNL     1      35.499 -22.339 -16.637  0.00  0.00    -0.050 C 
ATOM      5  C   UNL     1      33.231 -22.264 -17.829  0.00  0.00    +0.002 C 
ATOM      6  C   UNL     1      33.978 -21.878 -19.108  0.00  0.00    -0.001 C 
ATOM      7  C   UNL     1      36.440 -23.136 -15.654  0.00  0.00    +0.007 C 
ATOM      8  C   UNL     1      35.303 -21.184 -18.775  0.00  0.00    -0.076 C 
ATOM      9  C   UNL     1      33.453 -23.500 -15.609  0.00  0.00    -0.024 C 
ATOM     10  C   UNL     1      34.288 -23.717 -14.506  0.00  0.00    +0.007 C 
ATOM     11  C   UNL     1      35.688 -23.569 -14.442  0.00  0.00    -0.008 C 
ATOM     12  C   UNL     1      33.816 -24.120 -13.271  0.00  0.00    +0.051 C 
ATOM     13  C   UNL     1      37.457 -21.354 -17.749  0.00  0.00    -0.101 C 
ATOM     14  C   UNL     1      32.090 -23.746 -15.407  0.00  0.00    -0.004 C 
ATOM     15  C   UNL     1      36.064 -23.889 -13.158  0.00  0.00    +0.061 C 
ATOM     16  C   UNL     1      32.456 -24.346 -13.053  0.00  0.00    +0.015 C 
ATOM     17  C   UNL     1      31.605 -24.152 -14.152  0.00  0.00    +0.001 C 
ATOM     18  C   UNL     1      34.906 -24.611 -11.064  0.00  0.00    +0.117 C 
ATOM     19  H   UNL     1      36.334 -22.922 -18.378  0.00  0.00    -0.080 HD
ENDROOT
BRANCH   6  20
ATOM     20  C   UNL     1      33.106 -20.981 -19.988  0.00  0.00    +0.091 C 
BRANCH  20  22
ATOM     21  O   UNL     1      34.909 -20.101 -22.089  0.00  0.00    -0.226 OA
ATOM     22  N   UNL     1      33.699 -19.690 -20.151  0.00  0.00    -0.271 N 
ATOM     23  C   UNL     1      34.554 -19.348 -21.187  0.00  0.00    +0.402 C 
ATOM     24  H   UNL     1      33.485 -18.998 -19.483  0.00  0.00    +0.153 HD
BRANCH  23  25
ATOM     25  O   UNL     1      34.949 -18.046 -21.063  0.00  0.00    -0.430 OA
BRANCH  25  26
ATOM     26  C   UNL     1      35.759 -17.535 -22.128  0.00  0.00    +0.237 C 
BRANCH  26  27
ATOM     27  C   UNL     1      35.015 -16.435 -22.825  0.00  0.00    +0.021 C 
ATOM     28  C   UNL     1      34.592 -16.614 -24.138  0.00  0.00    -0.001 C 
ATOM     29  C   UNL     1      34.754 -15.247 -22.152  0.00  0.00    -0.001 C 
ATOM     30  C   UNL     1      33.899 -15.591 -24.786  0.00  0.00    -0.000 C 
ATOM     31  C   UNL     1      34.061 -14.224 -22.801  0.00  0.00    -0.000 C 
ATOM     32  C   UNL     1      33.635 -14.396 -24.118  0.00  0.00    -0.000 C 
ENDBRANCH  26  27
ENDBRANCH  25  26
ENDBRANCH  23  25
ENDBRANCH  20  22
ENDBRANCH   6  20
TORSDOF 5
ENDMDL
MODEL 9
REMARK VINA RESULT:      -9.8      4.006     11.404
REMARK  Name = 28693
REMARK  5 active torsions:
REMARK  status: ('A' for Active; 'I' for Inactive)
REMARK    1  A    between atoms: C_6  and  C_20
REMARK    2  A    between atoms: C_20  and  N_22
REMARK    3  A    between atoms: C_23  and  O_25
REMARK    4  A    between atoms: O_25  and  C_26
REMARK    5  A    between atoms: C_26  and  C_27
REMARK                            x       y       z     vdW  Elec       q    Type
REMARK                         _______ _______ _______ _____ _____    ______ ____
ROOT
ATOM      1  N   UNL     1      36.250 -21.619 -18.425  0.00  0.00    +0.387 N 
ATOM      2  N   UNL     1      34.504 -23.970 -13.164  0.00  0.00    -0.284 N 
ATOM      3  C   UNL     1      34.109 -22.666 -17.620  0.00  0.00    +0.004 C 
ATOM      4  C   UNL     1      35.473 -21.958 -17.208  0.00  0.00    -0.050 C 
ATOM      5  C   UNL     1      33.312 -21.765 -18.573  0.00  0.00    +0.002 C 
ATOM      6  C   UNL     1      34.171 -21.357 -19.772  0.00  0.00    -0.001 C 
ATOM      7  C   UNL     1      36.307 -22.821 -16.185  0.00  0.00    +0.007 C 
ATOM      8  C   UNL     1      35.485 -20.720 -19.307  0.00  0.00    -0.076 C 
ATOM      9  C   UNL     1      33.317 -23.089 -16.393  0.00  0.00    -0.024 C 
ATOM     10  C   UNL     1      34.053 -23.374 -15.236  0.00  0.00    +0.007 C 
ATOM     11  C   UNL     1      35.447 -23.274 -15.055  0.00  0.00    -0.008 C 
ATOM     12  C   UNL     1      33.470 -23.806 -14.059  0.00  0.00    +0.051 C 
ATOM     13  C   UNL     1      37.543 -20.998 -18.121  0.00  0.00    -0.101 C 
ATOM     14  C   UNL     1      31.935 -23.297 -16.310  0.00  0.00    -0.004 C 
ATOM     15  C   UNL     1      35.708 -23.653 -13.759  0.00  0.00    +0.061 C 
ATOM     16  C   UNL     1      32.092 -23.995 -13.959  0.00  0.00    +0.015 C 
ATOM     17  C   UNL     1      31.338 -23.733 -15.114  0.00  0.00    +0.001 C 
ATOM     18  C   UNL     1      34.364 -24.413 -11.794  0.00  0.00    +0.117 C 
ATOM     19  H   UNL     1      36.429 -22.505 -18.898  0.00  0.00    -0.080 HD
ENDROOT
BRANCH   6  20
ATOM     20  C   UNL     1      33.400 -20.401 -20.683  0.00  0.00    +0.091 C 
BRANCH  20  22
ATOM     21  O   UNL     1      34.629 -19.966 -23.280  0.00  0.00    -0.226 OA
ATOM     22  N   UNL     1      34.224 -19.305 -21.091  0.00  0.00    -0.271 N 
ATOM     23  C   UNL     1      34.775 -19.171 -22.356  0.00  0.00    +0.402 C 
ATOM     24  H   UNL     1      34.412 -18.600 -20.430  0.00  0.00    +0.153 HD
BRANCH  23  25
ATOM     25  O   UNL     1      35.509 -18.021 -22.431  0.00  0.00    -0.430 OA
BRANCH  25  26
ATOM     26  C   UNL     1      35.588 -17.251 -21.226  0.00  0.00    +0.237 C 
BRANCH  26  27
ATOM     27  C   UNL     1      34.954 -15.911 -21.459  0.00  0.00    +0.021 C 
ATOM     28  C   UNL     1      34.886 -15.397 -22.750  0.00  0.00    -0.001 C 
ATOM     29  C   UNL     1      34.440 -15.197 -20.384  0.00  0.00    -0.001 C 
ATOM     30  C   UNL     1      34.297 -14.152 -22.967  0.00  0.00    -0.000 C 
ATOM     31  C   UNL     1      33.850 -13.951 -20.600  0.00  0.00    -0.000 C 
ATOM     32  C   UNL     1      33.779 -13.428 -21.892  0.00  0.00    -0.000 C 
ENDBRANCH  26  27
ENDBRANCH  25  26
ENDBRANCH  23  25
ENDBRANCH  20  22
ENDBRANCH   6  20
TORSDOF 5
ENDMDL
