MODEL 1
REMARK VINA RESULT:     -10.5      0.000      0.000
REMARK  Name = 24178120
REMARK  2 active torsions:
REMARK  status: ('A' for Active; 'I' for Inactive)
REMARK    1  A    between atoms: N_2  and  C_16
REMARK    2  A    between atoms: C_4  and  O_22
REMARK                            x       y       z     vdW  Elec       q    Type
REMARK                         _______ _______ _______ _____ _____    ______ ____
ROOT
ATOM      1  O   UNL     1      34.679 -23.966 -12.604  0.00  0.00    -0.288 OA
ATOM      2  N   UNL     1      35.489 -22.397 -16.849  0.00  0.00    -0.264 N 
ATOM      3  N   UNL     1      33.214 -23.093 -16.311  0.00  0.00    -0.392 NA
ATOM      4  C   UNL     1      35.148 -23.775 -14.959  0.00  0.00    +0.204 C 
ATOM      5  C   UNL     1      36.419 -22.954 -14.766  0.00  0.00    +0.065 C 
ATOM      6  C   UNL     1      36.794 -22.524 -16.190  0.00  0.00    +0.101 C 
ATOM      7  C   UNL     1      34.494 -23.045 -16.123  0.00  0.00    +0.195 C 
ATOM      8  C   UNL     1      34.263 -23.918 -13.754  0.00  0.00    +0.207 C 
ATOM      9  C   UNL     1      32.830 -24.083 -14.071  0.00  0.00    +0.063 C 
ATOM     10  C   UNL     1      32.389 -23.716 -15.353  0.00  0.00    +0.117 C 
ATOM     11  C   UNL     1      31.955 -24.621 -13.125  0.00  0.00    +0.005 C 
ATOM     12  C   UNL     1      31.039 -23.909 -15.666  0.00  0.00    +0.081 C 
ATOM     13  C   UNL     1      30.158 -24.455 -14.729  0.00  0.00    -0.037 C 
ATOM     14  C   UNL     1      30.615 -24.806 -13.460  0.00  0.00    -0.008 C 
ATOM     15  C   UNL     1      28.724 -24.654 -15.084  0.00  0.00    +0.027 C 
ENDROOT
BRANCH   2  16
ATOM     16  C   UNL     1      35.341 -21.739 -18.045  0.00  0.00    +0.053 C 
ATOM     17  C   UNL     1      34.086 -21.660 -18.648  0.00  0.00    +0.015 C 
ATOM     18  C   UNL     1      36.448 -21.150 -18.658  0.00  0.00    +0.015 C 
ATOM     19  C   UNL     1      33.935 -20.991 -19.863  0.00  0.00    +0.001 C 
ATOM     20  C   UNL     1      36.297 -20.481 -19.874  0.00  0.00    +0.001 C 
ATOM     21  C   UNL     1      35.042 -20.402 -20.475  0.00  0.00    +0.000 C 
ENDBRANCH   2  16
BRANCH   4  22
ATOM     22  O   UNL     1      35.435 -25.100 -15.376  0.00  0.00    -0.372 OA
ATOM     23  H   UNL     1      35.026 -25.263 -16.239  0.00  0.00    +0.211 HD
ENDBRANCH   4  22
TORSDOF 2
ENDMDL
MODEL 2
REMARK VINA RESULT:     -10.5     11.078     14.295
REMARK  Name = 24178120
REMARK  2 active torsions:
REMARK  status: ('A' for Active; 'I' for Inactive)
REMARK    1  A    between atoms: N_2  and  C_16
REMARK    2  A    between atoms: C_4  and  O_22
REMARK                            x       y       z     vdW  Elec       q    Type
REMARK                         _______ _______ _______ _____ _____    ______ ____
ROOT
ATOM      1  O   UNL     1      31.709  -9.414 -19.338  0.00  0.00    -0.288 OA
ATOM      2  N   UNL     1      32.744 -13.178 -21.766  0.00  0.00    -0.264 N 
ATOM      3  N   UNL     1      32.693 -11.045 -22.946  0.00  0.00    -0.392 NA
ATOM      4  C   UNL     1      31.623 -11.358 -20.757  0.00  0.00    +0.204 C 
ATOM      5  C   UNL     1      32.099 -12.322 -19.676  0.00  0.00    +0.065 C 
ATOM      6  C   UNL     1      32.328 -13.637 -20.435  0.00  0.00    +0.101 C 
ATOM      7  C   UNL     1      32.422 -11.838 -21.960  0.00  0.00    +0.195 C 
ATOM      8  C   UNL     1      31.790  -9.895 -20.460  0.00  0.00    +0.207 C 
ATOM      9  C   UNL     1      31.979  -9.052 -21.657  0.00  0.00    +0.063 C 
ATOM     10  C   UNL     1      32.365  -9.677 -22.853  0.00  0.00    +0.117 C 
ATOM     11  C   UNL     1      31.746  -7.676 -21.595  0.00  0.00    +0.005 C 
ATOM     12  C   UNL     1      32.508  -8.883 -23.997  0.00  0.00    +0.081 C 
ATOM     13  C   UNL     1      32.268  -7.507 -23.947  0.00  0.00    -0.037 C 
ATOM     14  C   UNL     1      31.892  -6.905 -22.747  0.00  0.00    -0.008 C 
ATOM     15  C   UNL     1      32.423  -6.680 -25.177  0.00  0.00    +0.027 C 
ENDROOT
BRANCH   2  16
ATOM     16  C   UNL     1      33.341 -14.023 -22.670  0.00  0.00    +0.053 C 
ATOM     17  C   UNL     1      34.386 -14.853 -22.264  0.00  0.00    +0.015 C 
ATOM     18  C   UNL     1      32.902 -14.051 -23.994  0.00  0.00    +0.015 C 
ATOM     19  C   UNL     1      34.992 -15.711 -23.181  0.00  0.00    +0.001 C 
ATOM     20  C   UNL     1      33.508 -14.909 -24.911  0.00  0.00    +0.001 C 
ATOM     21  C   UNL     1      34.553 -15.739 -24.505  0.00  0.00    +0.000 C 
ENDBRANCH   2  16
BRANCH   4  22
ATOM     22  O   UNL     1      30.246 -11.530 -21.047  0.00  0.00    -0.372 OA
ATOM     23  H   UNL     1      29.793 -10.675 -20.988  0.00  0.00    +0.211 HD
ENDBRANCH   4  22
TORSDOF 2
ENDMDL
MODEL 3
REMARK VINA RESULT:     -10.0      2.100      6.329
REMARK  Name = 24178120
REMARK  2 active torsions:
REMARK  status: ('A' for Active; 'I' for Inactive)
REMARK    1  A    between atoms: N_2  and  C_16
REMARK    2  A    between atoms: C_4  and  O_22
REMARK                            x       y       z     vdW  Elec       q    Type
REMARK                         _______ _______ _______ _____ _____    ______ ____
ROOT
ATOM      1  O   UNL     1      31.860 -22.066 -17.950  0.00  0.00    -0.288 OA
ATOM      2  N   UNL     1      34.964 -23.883 -15.086  0.00  0.00    -0.264 N 
ATOM      3  N   UNL     1      35.780 -22.456 -16.888  0.00  0.00    -0.392 NA
ATOM      4  C   UNL     1      33.537 -23.456 -16.921  0.00  0.00    +0.204 C 
ATOM      5  C   UNL     1      32.696 -23.772 -15.688  0.00  0.00    +0.065 C 
ATOM      6  C   UNL     1      33.675 -24.503 -14.759  0.00  0.00    +0.101 C 
ATOM      7  C   UNL     1      34.900 -23.199 -16.297  0.00  0.00    +0.195 C 
ATOM      8  C   UNL     1      33.043 -22.334 -17.789  0.00  0.00    +0.207 C 
ATOM      9  C   UNL     1      34.109 -21.615 -18.515  0.00  0.00    +0.063 C 
ATOM     10  C   UNL     1      35.431 -21.759 -18.062  0.00  0.00    +0.117 C 
ATOM     11  C   UNL     1      33.803 -20.843 -19.638  0.00  0.00    +0.005 C 
ATOM     12  C   UNL     1      36.446 -21.108 -18.773  0.00  0.00    +0.081 C 
ATOM     13  C   UNL     1      36.150 -20.342 -19.902  0.00  0.00    -0.037 C 
ATOM     14  C   UNL     1      34.830 -20.207 -20.331  0.00  0.00    -0.008 C 
ATOM     15  C   UNL     1      37.247 -19.659 -20.647  0.00  0.00    +0.027 C 
ENDROOT
BRANCH   2  16
ATOM     16  C   UNL     1      36.063 -24.024 -14.275  0.00  0.00    +0.053 C 
ATOM     17  C   UNL     1      36.158 -23.285 -13.095  0.00  0.00    +0.015 C 
ATOM     18  C   UNL     1      37.084 -24.905 -14.631  0.00  0.00    +0.015 C 
ATOM     19  C   UNL     1      37.274 -23.429 -12.270  0.00  0.00    +0.001 C 
ATOM     20  C   UNL     1      38.200 -25.048 -13.806  0.00  0.00    +0.001 C 
ATOM     21  C   UNL     1      38.295 -24.310 -12.627  0.00  0.00    +0.000 C 
ENDBRANCH   2  16
BRANCH   4  22
ATOM     22  O   UNL     1      33.651 -24.577 -17.782  0.00  0.00    -0.372 OA
ATOM     23  H   UNL     1      34.355 -24.418 -18.429  0.00  0.00    +0.211 HD
ENDBRANCH   4  22
TORSDOF 2
ENDMDL
MODEL 4
REMARK VINA RESULT:      -9.8      1.280      5.954
REMARK  Name = 24178120
REMARK  2 active torsions:
REMARK  status: ('A' for Active; 'I' for Inactive)
REMARK    1  A    between atoms: N_2  and  C_16
REMARK    2  A    between atoms: C_4  and  O_22
REMARK                            x       y       z     vdW  Elec       q    Type
REMARK                         _______ _______ _______ _____ _____    ______ ____
ROOT
ATOM      1  O   UNL     1      37.043 -23.363 -15.933  0.00  0.00    -0.288 OA
ATOM      2  N   UNL     1      32.608 -23.922 -14.857  0.00  0.00    -0.264 N 
ATOM      3  N   UNL     1      33.135 -22.714 -16.910  0.00  0.00    -0.392 NA
ATOM      4  C   UNL     1      34.792 -23.061 -15.130  0.00  0.00    +0.204 C 
ATOM      5  C   UNL     1      34.834 -24.260 -14.189  0.00  0.00    +0.065 C 
ATOM      6  C   UNL     1      33.384 -24.393 -13.704  0.00  0.00    +0.101 C 
ATOM      7  C   UNL     1      33.409 -23.211 -15.746  0.00  0.00    +0.195 C 
ATOM      8  C   UNL     1      35.902 -22.972 -16.138  0.00  0.00    +0.207 C 
ATOM      9  C   UNL     1      35.528 -22.285 -17.391  0.00  0.00    +0.063 C 
ATOM     10  C   UNL     1      34.163 -22.141 -17.685  0.00  0.00    +0.117 C 
ATOM     11  C   UNL     1      36.515 -21.771 -18.236  0.00  0.00    +0.005 C 
ATOM     12  C   UNL     1      33.808 -21.457 -18.853  0.00  0.00    +0.081 C 
ATOM     13  C   UNL     1      34.788 -20.931 -19.699  0.00  0.00    -0.037 C 
ATOM     14  C   UNL     1      36.138 -21.092 -19.392  0.00  0.00    -0.008 C 
ATOM     15  C   UNL     1      34.388 -20.204 -20.938  0.00  0.00    +0.027 C 
ENDROOT
BRANCH   2  16
ATOM     16  C   UNL     1      31.260 -24.158 -14.969  0.00  0.00    +0.053 C 
ATOM     17  C   UNL     1      30.469 -23.327 -15.763  0.00  0.00    +0.015 C 
ATOM     18  C   UNL     1      30.680 -25.230 -14.288  0.00  0.00    +0.015 C 
ATOM     19  C   UNL     1      29.100 -23.566 -15.877  0.00  0.00    +0.001 C 
ATOM     20  C   UNL     1      29.310 -25.469 -14.403  0.00  0.00    +0.001 C 
ATOM     21  C   UNL     1      28.521 -24.637 -15.196  0.00  0.00    +0.000 C 
ENDBRANCH   2  16
BRANCH   4  22
ATOM     22  O   UNL     1      34.826 -21.833 -14.421  0.00  0.00    -0.372 OA
ATOM     23  H   UNL     1      35.077 -21.999 -13.499  0.00  0.00    +0.211 HD
ENDBRANCH   4  22
TORSDOF 2
ENDMDL
MODEL 5
REMARK VINA RESULT:      -9.5      1.882      4.129
REMARK  Name = 24178120
REMARK  2 active torsions:
REMARK  status: ('A' for Active; 'I' for Inactive)
REMARK    1  A    between atoms: N_2  and  C_16
REMARK    2  A    between atoms: C_4  and  O_22
REMARK                            x       y       z     vdW  Elec       q    Type
REMARK                         _______ _______ _______ _____ _____    ______ ____
ROOT
ATOM      1  O   UNL     1      32.337 -25.187 -12.787  0.00  0.00    -0.288 OA
ATOM      2  N   UNL     1      33.285 -22.741 -16.562  0.00  0.00    -0.264 N 
ATOM      3  N   UNL     1      35.055 -23.003 -14.905  0.00  0.00    -0.392 NA
ATOM      4  C   UNL     1      32.692 -23.411 -14.375  0.00  0.00    +0.204 C 
ATOM      5  C   UNL     1      31.643 -23.916 -15.361  0.00  0.00    +0.065 C 
ATOM      6  C   UNL     1      31.845 -23.024 -16.594  0.00  0.00    +0.101 C 
ATOM      7  C   UNL     1      33.827 -23.029 -15.313  0.00  0.00    +0.195 C 
ATOM      8  C   UNL     1      33.095 -24.369 -13.290  0.00  0.00    +0.207 C 
ATOM      9  C   UNL     1      34.478 -24.189 -12.806  0.00  0.00    +0.063 C 
ATOM     10  C   UNL     1      35.372 -23.466 -13.613  0.00  0.00    +0.117 C 
ATOM     11  C   UNL     1      34.865 -24.701 -11.566  0.00  0.00    +0.005 C 
ATOM     12  C   UNL     1      36.673 -23.263 -13.137  0.00  0.00    +0.081 C 
ATOM     13  C   UNL     1      37.066 -23.764 -11.893  0.00  0.00    -0.037 C 
ATOM     14  C   UNL     1      36.164 -24.485 -11.112  0.00  0.00    -0.008 C 
ATOM     15  C   UNL     1      38.455 -23.534 -11.404  0.00  0.00    +0.027 C 
ENDROOT
BRANCH   2  16
ATOM     16  C   UNL     1      33.947 -22.229 -17.651  0.00  0.00    +0.053 C 
ATOM     17  C   UNL     1      33.226 -21.679 -18.711  0.00  0.00    +0.015 C 
ATOM     18  C   UNL     1      35.342 -22.259 -17.697  0.00  0.00    +0.015 C 
ATOM     19  C   UNL     1      33.898 -21.158 -19.816  0.00  0.00    +0.001 C 
ATOM     20  C   UNL     1      36.014 -21.738 -18.804  0.00  0.00    +0.001 C 
ATOM     21  C   UNL     1      35.292 -21.188 -19.862  0.00  0.00    +0.000 C 
ENDBRANCH   2  16
BRANCH   4  22
ATOM     22  O   UNL     1      32.262 -22.239 -13.703  0.00  0.00    -0.372 OA
ATOM     23  H   UNL     1      31.452 -22.429 -13.205  0.00  0.00    +0.211 HD
ENDBRANCH   4  22
TORSDOF 2
ENDMDL
MODEL 6
REMARK VINA RESULT:      -9.2      1.768      4.221
REMARK  Name = 24178120
REMARK  2 active torsions:
REMARK  status: ('A' for Active; 'I' for Inactive)
REMARK    1  A    between atoms: N_2  and  C_16
REMARK    2  A    between atoms: C_4  and  O_22
REMARK                            x       y       z     vdW  Elec       q    Type
REMARK                         _______ _______ _______ _____ _____    ______ ____
ROOT
ATOM      1  O   UNL     1      33.144 -25.464 -13.684  0.00  0.00    -0.288 OA
ATOM      2  N   UNL     1      33.629 -22.506 -17.169  0.00  0.00    -0.264 N 
ATOM      3  N   UNL     1      35.652 -23.284 -16.051  0.00  0.00    -0.392 NA
ATOM      4  C   UNL     1      33.428 -23.486 -15.028  0.00  0.00    +0.204 C 
ATOM      5  C   UNL     1      32.121 -23.667 -15.793  0.00  0.00    +0.065 C 
ATOM      6  C   UNL     1      32.191 -22.597 -16.891  0.00  0.00    +0.101 C 
ATOM      7  C   UNL     1      34.377 -23.082 -16.147  0.00  0.00    +0.195 C 
ATOM      8  C   UNL     1      33.897 -24.668 -14.229  0.00  0.00    +0.207 C 
ATOM      9  C   UNL     1      35.363 -24.753 -14.076  0.00  0.00    +0.063 C 
ATOM     10  C   UNL     1      36.165 -24.011 -14.959  0.00  0.00    +0.117 C 
ATOM     11  C   UNL     1      35.923 -25.528 -13.057  0.00  0.00    +0.005 C 
ATOM     12  C   UNL     1      37.553 -24.062 -14.789  0.00  0.00    +0.081 C 
ATOM     13  C   UNL     1      38.121 -24.826 -13.767  0.00  0.00    -0.037 C 
ATOM     14  C   UNL     1      37.307 -25.561 -12.906  0.00  0.00    -0.008 C 
ATOM     15  C   UNL     1      39.603 -24.864 -13.603  0.00  0.00    +0.027 C 
ENDROOT
BRANCH   2  16
ATOM     16  C   UNL     1      34.111 -21.889 -18.298  0.00  0.00    +0.053 C 
ATOM     17  C   UNL     1      33.247 -21.170 -19.123  0.00  0.00    +0.015 C 
ATOM     18  C   UNL     1      35.466 -21.983 -18.619  0.00  0.00    +0.015 C 
ATOM     19  C   UNL     1      33.736 -20.543 -20.269  0.00  0.00    +0.001 C 
ATOM     20  C   UNL     1      35.955 -21.356 -19.766  0.00  0.00    +0.001 C 
ATOM     21  C   UNL     1      35.091 -20.637 -20.590  0.00  0.00    +0.000 C 
ENDBRANCH   2  16
BRANCH   4  22
ATOM     22  O   UNL     1      33.354 -22.412 -14.105  0.00  0.00    -0.372 OA
ATOM     23  H   UNL     1      34.229 -22.256 -13.718  0.00  0.00    +0.211 HD
ENDBRANCH   4  22
TORSDOF 2
ENDMDL
MODEL 7
REMARK VINA RESULT:      -9.2      6.878     10.491
REMARK  Name = 24178120
REMARK  2 active torsions:
REMARK  status: ('A' for Active; 'I' for Inactive)
REMARK    1  A    between atoms: N_2  and  C_16
REMARK    2  A    between atoms: C_4  and  O_22
REMARK                            x       y       z     vdW  Elec       q    Type
REMARK                         _______ _______ _______ _____ _____    ______ ____
ROOT
ATOM      1  O   UNL     1      33.106 -14.661 -24.946  0.00  0.00    -0.288 OA
ATOM      2  N   UNL     1      35.111 -17.944 -22.428  0.00  0.00    -0.264 N 
ATOM      3  N   UNL     1      34.189 -16.016 -21.253  0.00  0.00    -0.392 NA
ATOM      4  C   UNL     1      34.661 -15.980 -23.663  0.00  0.00    +0.204 C 
ATOM      5  C   UNL     1      34.593 -17.189 -24.591  0.00  0.00    +0.065 C 
ATOM      6  C   UNL     1      35.374 -18.272 -23.834  0.00  0.00    +0.101 C 
ATOM      7  C   UNL     1      34.621 -16.648 -22.296  0.00  0.00    +0.195 C 
ATOM      8  C   UNL     1      33.601 -14.934 -23.861  0.00  0.00    +0.207 C 
ATOM      9  C   UNL     1      33.254 -14.184 -22.637  0.00  0.00    +0.063 C 
ATOM     10  C   UNL     1      33.616 -14.736 -21.397  0.00  0.00    +0.117 C 
ATOM     11  C   UNL     1      32.611 -12.947 -22.725  0.00  0.00    +0.005 C 
ATOM     12  C   UNL     1      33.321 -14.008 -20.239  0.00  0.00    +0.081 C 
ATOM     13  C   UNL     1      32.687 -12.765 -20.318  0.00  0.00    -0.037 C 
ATOM     14  C   UNL     1      32.330 -12.239 -21.558  0.00  0.00    -0.008 C 
ATOM     15  C   UNL     1      32.385 -12.005 -19.072  0.00  0.00    +0.027 C 
ENDROOT
BRANCH   2  16
ATOM     16  C   UNL     1      35.367 -18.836 -21.415  0.00  0.00    +0.053 C 
ATOM     17  C   UNL     1      34.358 -19.685 -20.961  0.00  0.00    +0.015 C 
ATOM     18  C   UNL     1      36.638 -18.892 -20.840  0.00  0.00    +0.015 C 
ATOM     19  C   UNL     1      34.619 -20.591 -19.933  0.00  0.00    +0.001 C 
ATOM     20  C   UNL     1      36.898 -19.798 -19.812  0.00  0.00    +0.001 C 
ATOM     21  C   UNL     1      35.889 -20.647 -19.359  0.00  0.00    +0.000 C 
ENDBRANCH   2  16
BRANCH   4  22
ATOM     22  O   UNL     1      35.896 -15.293 -23.781  0.00  0.00    -0.372 OA
ATOM     23  H   UNL     1      35.983 -14.658 -23.055  0.00  0.00    +0.211 HD
ENDBRANCH   4  22
TORSDOF 2
ENDMDL
MODEL 8
REMARK VINA RESULT:      -9.1      1.421      6.009
REMARK  Name = 24178120
REMARK  2 active torsions:
REMARK  status: ('A' for Active; 'I' for Inactive)
REMARK    1  A    between atoms: N_2  and  C_16
REMARK    2  A    between atoms: C_4  and  O_22
REMARK                            x       y       z     vdW  Elec       q    Type
REMARK                         _______ _______ _______ _____ _____    ______ ____
ROOT
ATOM      1  O   UNL     1      36.190 -23.784 -15.910  0.00  0.00    -0.288 OA
ATOM      2  N   UNL     1      31.657 -23.579 -15.172  0.00  0.00    -0.264 N 
ATOM      3  N   UNL     1      32.538 -22.445 -17.144  0.00  0.00    -0.392 NA
ATOM      4  C   UNL     1      33.971 -23.108 -15.261  0.00  0.00    +0.204 C 
ATOM      5  C   UNL     1      33.734 -24.312 -14.357  0.00  0.00    +0.065 C 
ATOM      6  C   UNL     1      32.250 -24.198 -13.981  0.00  0.00    +0.101 C 
ATOM      7  C   UNL     1      32.634 -23.003 -15.979  0.00  0.00    +0.195 C 
ATOM      8  C   UNL     1      35.153 -23.195 -16.184  0.00  0.00    +0.207 C 
ATOM      9  C   UNL     1      35.000 -22.432 -17.439  0.00  0.00    +0.063 C 
ATOM     10  C   UNL     1      33.706 -22.046 -17.825  0.00  0.00    +0.117 C 
ATOM     11  C   UNL     1      36.121 -22.083 -18.195  0.00  0.00    +0.005 C 
ATOM     12  C   UNL     1      33.564 -21.290 -18.995  0.00  0.00    +0.081 C 
ATOM     13  C   UNL     1      34.681 -20.929 -19.752  0.00  0.00    -0.037 C 
ATOM     14  C   UNL     1      35.956 -21.328 -19.354  0.00  0.00    -0.008 C 
ATOM     15  C   UNL     1      34.508 -20.121 -20.993  0.00  0.00    +0.027 C 
ENDROOT
BRANCH   2  16
ATOM     16  C   UNL     1      30.301 -23.574 -15.387  0.00  0.00    +0.053 C 
ATOM     17  C   UNL     1      29.693 -24.651 -16.033  0.00  0.00    +0.015 C 
ATOM     18  C   UNL     1      29.530 -22.491 -14.960  0.00  0.00    +0.015 C 
ATOM     19  C   UNL     1      28.315 -24.646 -16.251  0.00  0.00    +0.001 C 
ATOM     20  C   UNL     1      28.152 -22.487 -15.178  0.00  0.00    +0.001 C 
ATOM     21  C   UNL     1      27.546 -23.564 -15.824  0.00  0.00    +0.000 C 
ENDBRANCH   2  16
BRANCH   4  22
ATOM     22  O   UNL     1      34.163 -21.917 -14.514  0.00  0.00    -0.372 OA
ATOM     23  H   UNL     1      34.543 -21.234 -15.087  0.00  0.00    +0.211 HD
ENDBRANCH   4  22
TORSDOF 2
ENDMDL
MODEL 9
REMARK VINA RESULT:      -9.0     13.230     15.871
REMARK  Name = 24178120
REMARK  2 active torsions:
REMARK  status: ('A' for Active; 'I' for Inactive)
REMARK    1  A    between atoms: N_2  and  C_16
REMARK    2  A    between atoms: C_4  and  O_22
REMARK                            x       y       z     vdW  Elec       q    Type
REMARK                         _______ _______ _______ _____ _____    ______ ____
ROOT
ATOM      1  O   UNL     1      30.620  -9.749 -19.358  0.00  0.00    -0.288 OA
ATOM      2  N   UNL     1      32.815  -6.859 -22.181  0.00  0.00    -0.264 N 
ATOM      3  N   UNL     1      32.998  -9.248 -22.635  0.00  0.00    -0.392 NA
ATOM      4  C   UNL     1      32.270  -8.380 -20.456  0.00  0.00    +0.204 C 
ATOM      5  C   UNL     1      31.513  -7.074 -20.237  0.00  0.00    +0.065 C 
ATOM      6  C   UNL     1      32.304  -6.053 -21.065  0.00  0.00    +0.101 C 
ATOM      7  C   UNL     1      32.738  -8.219 -21.894  0.00  0.00    +0.195 C 
ATOM      8  C   UNL     1      31.497  -9.644 -20.205  0.00  0.00    +0.207 C 
ATOM      9  C   UNL     1      31.941 -10.796 -21.014  0.00  0.00    +0.063 C 
ATOM     10  C   UNL     1      32.717 -10.543 -22.156  0.00  0.00    +0.117 C 
ATOM     11  C   UNL     1      31.617 -12.098 -20.625  0.00  0.00    +0.005 C 
ATOM     12  C   UNL     1      33.170 -11.638 -22.902  0.00  0.00    +0.081 C 
ATOM     13  C   UNL     1      32.859 -12.944 -22.515  0.00  0.00    -0.037 C 
ATOM     14  C   UNL     1      32.081 -13.173 -21.381  0.00  0.00    -0.008 C 
ATOM     15  C   UNL     1      33.353 -14.096 -23.322  0.00  0.00    +0.027 C 
ENDROOT
BRANCH   2  16
ATOM     16  C   UNL     1      33.320  -6.283 -23.320  0.00  0.00    +0.053 C 
ATOM     17  C   UNL     1      32.486  -5.539 -24.155  0.00  0.00    +0.015 C 
ATOM     18  C   UNL     1      34.669  -6.441 -23.643  0.00  0.00    +0.015 C 
ATOM     19  C   UNL     1      32.999  -4.953 -25.312  0.00  0.00    +0.001 C 
ATOM     20  C   UNL     1      35.182  -5.855 -24.800  0.00  0.00    +0.001 C 
ATOM     21  C   UNL     1      34.347  -5.111 -25.634  0.00  0.00    +0.000 C 
ENDBRANCH   2  16
BRANCH   4  22
ATOM     22  O   UNL     1      33.418  -8.469 -19.627  0.00  0.00    -0.372 OA
ATOM     23  H   UNL     1      33.846  -7.601 -19.573  0.00  0.00    +0.211 HD
ENDBRANCH   4  22
TORSDOF 2
ENDMDL
