MODEL 1
REMARK VINA RESULT:     -10.1      0.000      0.000
REMARK  Name = 20317278
REMARK  2 active torsions:
REMARK  status: ('A' for Active; 'I' for Inactive)
REMARK    1  A    between atoms: C_8  and  C_16
REMARK    2  A    between atoms: C_13  and  N_24
REMARK                            x       y       z     vdW  Elec       q    Type
REMARK                         _______ _______ _______ _____ _____    ______ ____
ROOT
ATOM      1  N   UNL     1      36.846 -24.951 -12.893  0.00  0.00    -0.279 N 
ATOM      2  N   UNL     1      34.209 -23.563 -12.232  0.00  0.00    -0.262 NA
ATOM      3  N   UNL     1      36.460 -25.872 -10.929  0.00  0.00    -0.131 NA
ATOM      4  N   UNL     1      37.367 -26.656 -11.598  0.00  0.00    -0.133 NA
ATOM      5  C   UNL     1      36.808 -24.038 -13.970  0.00  0.00    +0.068 C 
ATOM      6  C   UNL     1      35.701 -23.194 -14.189  0.00  0.00    +0.035 C 
ATOM      7  C   UNL     1      36.175 -24.842 -11.696  0.00  0.00    +0.172 A 
ATOM      8  C   UNL     1      34.380 -23.352 -13.492  0.00  0.00    +0.078 C 
ATOM      9  C   UNL     1      35.354 -23.662 -11.347  0.00  0.00    +0.191 C 
ATOM     10  C   UNL     1      37.610 -26.082 -12.755  0.00  0.00    +0.147 A 
ATOM     11  C   UNL     1      37.926 -23.952 -14.815  0.00  0.00    +0.019 C 
ATOM     12  C   UNL     1      35.777 -22.219 -15.199  0.00  0.00    +0.027 C 
ATOM     13  C   UNL     1      36.908 -22.119 -16.010  0.00  0.00    +0.143 C 
ATOM     14  C   UNL     1      37.972 -22.995 -15.829  0.00  0.00    +0.026 C 
ATOM     15  C   UNL     1      38.451 -26.706 -13.798  0.00  0.00    +0.074 C 
ENDROOT
BRANCH   8  16
ATOM     16  C   UNL     1      33.137 -23.294 -14.320  0.00  0.00    +0.017 C 
ATOM     17  C   UNL     1      31.904 -23.063 -13.710  0.00  0.00    +0.001 C 
ATOM     18  C   UNL     1      33.210 -23.471 -15.701  0.00  0.00    +0.001 C 
ATOM     19  C   UNL     1      30.744 -23.008 -14.482  0.00  0.00    +0.000 C 
ATOM     20  C   UNL     1      32.050 -23.416 -16.473  0.00  0.00    +0.000 C 
ATOM     21  C   UNL     1      30.817 -23.185 -15.863  0.00  0.00    +0.000 C 
ENDBRANCH   8  16
BRANCH  13  24
ATOM     22  O   UNL     1      37.587 -20.070 -16.819  0.00  0.00    -0.126 OA
ATOM     23  O   UNL     1      36.388 -21.363 -18.125  0.00  0.00    -0.126 OA
ATOM     24  N   UNL     1      36.963 -21.137 -17.034  0.00  0.00    +0.058 N 
ENDBRANCH  13  24
TORSDOF 2
ENDMDL
MODEL 2
REMARK VINA RESULT:     -10.1      3.144      6.411
REMARK  Name = 20317278
REMARK  2 active torsions:
REMARK  status: ('A' for Active; 'I' for Inactive)
REMARK    1  A    between atoms: C_8  and  C_16
REMARK    2  A    between atoms: C_13  and  N_24
REMARK                            x       y       z     vdW  Elec       q    Type
REMARK                         _______ _______ _______ _____ _____    ______ ____
ROOT
ATOM      1  N   UNL     1      35.200 -22.339 -17.530  0.00  0.00    -0.279 N 
ATOM      2  N   UNL     1      37.494 -22.565 -15.529  0.00  0.00    -0.262 NA
ATOM      3  N   UNL     1      36.783 -21.369 -18.716  0.00  0.00    -0.131 NA
ATOM      4  N   UNL     1      35.783 -21.756 -19.573  0.00  0.00    -0.133 NA
ATOM      5  C   UNL     1      34.473 -22.832 -16.424  0.00  0.00    +0.068 C 
ATOM      6  C   UNL     1      35.109 -23.208 -15.225  0.00  0.00    +0.035 C 
ATOM      7  C   UNL     1      36.417 -21.695 -17.496  0.00  0.00    +0.172 A 
ATOM      8  C   UNL     1      36.595 -23.376 -15.086  0.00  0.00    +0.078 C 
ATOM      9  C   UNL     1      37.104 -21.356 -16.230  0.00  0.00    +0.191 C 
ATOM     10  C   UNL     1      34.834 -22.308 -18.852  0.00  0.00    +0.147 A 
ATOM     11  C   UNL     1      33.074 -22.908 -16.522  0.00  0.00    +0.019 C 
ATOM     12  C   UNL     1      34.320 -23.568 -14.118  0.00  0.00    +0.027 C 
ATOM     13  C   UNL     1      32.929 -23.605 -14.217  0.00  0.00    +0.143 C 
ATOM     14  C   UNL     1      32.309 -23.292 -15.421  0.00  0.00    +0.026 C 
ATOM     15  C   UNL     1      33.646 -22.953 -19.449  0.00  0.00    +0.074 C 
ENDROOT
BRANCH   8  16
ATOM     16  C   UNL     1      37.103 -24.603 -14.401  0.00  0.00    +0.017 C 
ATOM     17  C   UNL     1      36.723 -25.865 -14.858  0.00  0.00    +0.001 C 
ATOM     18  C   UNL     1      37.957 -24.487 -13.305  0.00  0.00    +0.001 C 
ATOM     19  C   UNL     1      37.197 -27.010 -14.220  0.00  0.00    +0.000 C 
ATOM     20  C   UNL     1      38.432 -25.633 -12.666  0.00  0.00    +0.000 C 
ATOM     21  C   UNL     1      38.051 -26.894 -13.123  0.00  0.00    +0.000 C 
ENDBRANCH   8  16
BRANCH  13  24
ATOM     22  O   UNL     1      31.977 -25.203 -12.854  0.00  0.00    -0.126 OA
ATOM     23  O   UNL     1      31.650 -23.088 -12.370  0.00  0.00    -0.126 OA
ATOM     24  N   UNL     1      32.147 -23.983 -13.093  0.00  0.00    +0.058 N 
ENDBRANCH  13  24
TORSDOF 2
ENDMDL
MODEL 3
REMARK VINA RESULT:      -9.4      2.732      5.382
REMARK  Name = 20317278
REMARK  2 active torsions:
REMARK  status: ('A' for Active; 'I' for Inactive)
REMARK    1  A    between atoms: C_8  and  C_16
REMARK    2  A    between atoms: C_13  and  N_24
REMARK                            x       y       z     vdW  Elec       q    Type
REMARK                         _______ _______ _______ _____ _____    ______ ____
ROOT
ATOM      1  N   UNL     1      35.977 -21.850 -17.629  0.00  0.00    -0.279 N 
ATOM      2  N   UNL     1      33.218 -23.120 -17.931  0.00  0.00    -0.262 NA
ATOM      3  N   UNL     1      35.485 -21.120 -19.650  0.00  0.00    -0.131 NA
ATOM      4  N   UNL     1      36.489 -20.332 -19.142  0.00  0.00    -0.133 NA
ATOM      5  C   UNL     1      35.974 -22.639 -16.458  0.00  0.00    +0.068 C 
ATOM      6  C   UNL     1      34.841 -23.378 -16.064  0.00  0.00    +0.035 C 
ATOM      7  C   UNL     1      35.204 -22.041 -18.753  0.00  0.00    +0.172 A 
ATOM      8  C   UNL     1      33.479 -23.207 -16.672  0.00  0.00    +0.078 C 
ATOM      9  C   UNL     1      34.290 -23.194 -18.906  0.00  0.00    +0.191 C 
ATOM     10  C   UNL     1      36.791 -20.794 -17.950  0.00  0.00    +0.147 A 
ATOM     11  C   UNL     1      37.150 -22.708 -15.694  0.00  0.00    +0.019 C 
ATOM     12  C   UNL     1      34.943 -24.243 -14.959  0.00  0.00    +0.027 C 
ATOM     13  C   UNL     1      36.128 -24.331 -14.230  0.00  0.00    +0.143 C 
ATOM     14  C   UNL     1      37.224 -23.553 -14.587  0.00  0.00    +0.026 C 
ATOM     15  C   UNL     1      37.750 -20.121 -17.050  0.00  0.00    +0.074 C 
ENDROOT
BRANCH   8  16
ATOM     16  C   UNL     1      32.307 -23.093 -15.752  0.00  0.00    +0.017 C 
ATOM     17  C   UNL     1      31.013 -23.059 -16.272  0.00  0.00    +0.001 C 
ATOM     18  C   UNL     1      32.506 -23.020 -14.374  0.00  0.00    +0.001 C 
ATOM     19  C   UNL     1      29.919 -22.954 -15.414  0.00  0.00    +0.000 C 
ATOM     20  C   UNL     1      31.412 -22.914 -13.516  0.00  0.00    +0.000 C 
ATOM     21  C   UNL     1      30.119 -22.881 -14.036  0.00  0.00    +0.000 C 
ENDBRANCH   8  16
BRANCH  13  24
ATOM     22  O   UNL     1      36.924 -26.228 -13.189  0.00  0.00    -0.126 OA
ATOM     23  O   UNL     1      35.567 -24.915 -12.071  0.00  0.00    -0.126 OA
ATOM     24  N   UNL     1      36.210 -25.200 -13.110  0.00  0.00    +0.058 N 
ENDBRANCH  13  24
TORSDOF 2
ENDMDL
MODEL 4
REMARK VINA RESULT:      -9.1     12.330     14.885
REMARK  Name = 20317278
REMARK  2 active torsions:
REMARK  status: ('A' for Active; 'I' for Inactive)
REMARK    1  A    between atoms: C_8  and  C_16
REMARK    2  A    between atoms: C_13  and  N_24
REMARK                            x       y       z     vdW  Elec       q    Type
REMARK                         _______ _______ _______ _____ _____    ______ ____
ROOT
ATOM      1  N   UNL     1      33.847 -14.570 -22.625  0.00  0.00    -0.279 N 
ATOM      2  N   UNL     1      33.220 -12.406 -24.685  0.00  0.00    -0.262 NA
ATOM      3  N   UNL     1      34.339 -15.691 -24.458  0.00  0.00    -0.131 NA
ATOM      4  N   UNL     1      34.944 -16.318 -23.397  0.00  0.00    -0.133 NA
ATOM      5  C   UNL     1      33.278 -13.609 -21.761  0.00  0.00    +0.068 C 
ATOM      6  C   UNL     1      32.895 -12.333 -22.219  0.00  0.00    +0.035 C 
ATOM      7  C   UNL     1      33.664 -14.664 -23.987  0.00  0.00    +0.172 A 
ATOM      8  C   UNL     1      33.277 -11.777 -23.560  0.00  0.00    +0.078 C 
ATOM      9  C   UNL     1      32.745 -13.776 -24.731  0.00  0.00    +0.191 C 
ATOM     10  C   UNL     1      34.621 -15.657 -22.308  0.00  0.00    +0.147 A 
ATOM     11  C   UNL     1      33.061 -13.961 -20.419  0.00  0.00    +0.019 C 
ATOM     12  C   UNL     1      32.218 -11.469 -21.340  0.00  0.00    +0.027 C 
ATOM     13  C   UNL     1      31.975 -11.844 -20.019  0.00  0.00    +0.143 C 
ATOM     14  C   UNL     1      32.411 -13.080 -19.555  0.00  0.00    +0.026 C 
ATOM     15  C   UNL     1      35.189 -15.974 -20.981  0.00  0.00    +0.074 C 
ENDROOT
BRANCH   8  16
ATOM     16  C   UNL     1      33.805 -10.381 -23.619  0.00  0.00    +0.017 C 
ATOM     17  C   UNL     1      35.179 -10.158 -23.712  0.00  0.00    +0.001 C 
ATOM     18  C   UNL     1      32.924  -9.300 -23.579  0.00  0.00    +0.001 C 
ATOM     19  C   UNL     1      35.671  -8.854 -23.767  0.00  0.00    +0.000 C 
ATOM     20  C   UNL     1      33.417  -7.997 -23.634  0.00  0.00    +0.000 C 
ATOM     21  C   UNL     1      34.790  -7.774 -23.728  0.00  0.00    +0.000 C 
ENDBRANCH   8  16
BRANCH  13  24
ATOM     22  O   UNL     1      31.790 -10.732 -18.007  0.00  0.00    -0.126 OA
ATOM     23  O   UNL     1      30.236 -10.412 -19.523  0.00  0.00    -0.126 OA
ATOM     24  N   UNL     1      31.301 -10.954 -19.140  0.00  0.00    +0.058 N 
ENDBRANCH  13  24
TORSDOF 2
ENDMDL
MODEL 5
REMARK VINA RESULT:      -8.6      3.032      6.504
REMARK  Name = 20317278
REMARK  2 active torsions:
REMARK  status: ('A' for Active; 'I' for Inactive)
REMARK    1  A    between atoms: C_8  and  C_16
REMARK    2  A    between atoms: C_13  and  N_24
REMARK                            x       y       z     vdW  Elec       q    Type
REMARK                         _______ _______ _______ _____ _____    ______ ____
ROOT
ATOM      1  N   UNL     1      34.286 -23.303 -15.451  0.00  0.00    -0.279 N 
ATOM      2  N   UNL     1      37.292 -22.998 -15.890  0.00  0.00    -0.262 NA
ATOM      3  N   UNL     1      34.256 -22.613 -17.543  0.00  0.00    -0.131 NA
ATOM      4  N   UNL     1      33.052 -23.213 -17.273  0.00  0.00    -0.133 NA
ATOM      5  C   UNL     1      34.722 -23.531 -14.127  0.00  0.00    +0.068 C 
ATOM      6  C   UNL     1      36.089 -23.597 -13.796  0.00  0.00    +0.035 C 
ATOM      7  C   UNL     1      34.978 -22.645 -16.444  0.00  0.00    +0.172 A 
ATOM      8  C   UNL     1      37.191 -23.697 -14.812  0.00  0.00    +0.078 C 
ATOM      9  C   UNL     1      36.288 -22.000 -16.210  0.00  0.00    +0.191 C 
ATOM     10  C   UNL     1      33.072 -23.596 -16.017  0.00  0.00    +0.147 A 
ATOM     11  C   UNL     1      33.755 -23.657 -13.116  0.00  0.00    +0.019 C 
ATOM     12  C   UNL     1      36.459 -23.698 -12.443  0.00  0.00    +0.027 C 
ATOM     13  C   UNL     1      35.489 -23.785 -11.444  0.00  0.00    +0.143 C 
ATOM     14  C   UNL     1      34.141 -23.782 -11.782  0.00  0.00    +0.026 C 
ATOM     15  C   UNL     1      31.986 -24.390 -15.403  0.00  0.00    +0.074 C 
ENDROOT
BRANCH   8  16
ATOM     16  C   UNL     1      38.262 -24.715 -14.590  0.00  0.00    +0.017 C 
ATOM     17  C   UNL     1      39.604 -24.348 -14.697  0.00  0.00    +0.001 C 
ATOM     18  C   UNL     1      37.921 -26.030 -14.278  0.00  0.00    +0.001 C 
ATOM     19  C   UNL     1      40.604 -25.298 -14.490  0.00  0.00    +0.000 C 
ATOM     20  C   UNL     1      38.921 -26.980 -14.071  0.00  0.00    +0.000 C 
ATOM     21  C   UNL     1      40.263 -26.613 -14.177  0.00  0.00    +0.000 C 
ENDBRANCH   8  16
BRANCH  13  24
ATOM     22  O   UNL     1      35.359 -24.794  -9.375  0.00  0.00    -0.126 OA
ATOM     23  O   UNL     1      36.736 -23.104  -9.627  0.00  0.00    -0.126 OA
ATOM     24  N   UNL     1      35.880 -23.900 -10.083  0.00  0.00    +0.058 N 
ENDBRANCH  13  24
TORSDOF 2
ENDMDL
MODEL 6
REMARK VINA RESULT:      -8.5      2.437      4.600
REMARK  Name = 20317278
REMARK  2 active torsions:
REMARK  status: ('A' for Active; 'I' for Inactive)
REMARK    1  A    between atoms: C_8  and  C_16
REMARK    2  A    between atoms: C_13  and  N_24
REMARK                            x       y       z     vdW  Elec       q    Type
REMARK                         _______ _______ _______ _____ _____    ______ ____
ROOT
ATOM      1  N   UNL     1      35.739 -24.887 -12.564  0.00  0.00    -0.279 N 
ATOM      2  N   UNL     1      36.982 -24.837 -15.352  0.00  0.00    -0.262 NA
ATOM      3  N   UNL     1      37.561 -26.053 -12.145  0.00  0.00    -0.131 NA
ATOM      4  N   UNL     1      37.064 -25.592 -10.952  0.00  0.00    -0.133 NA
ATOM      5  C   UNL     1      34.670 -24.287 -13.266  0.00  0.00    +0.068 C 
ATOM      6  C   UNL     1      34.777 -23.941 -14.627  0.00  0.00    +0.035 C 
ATOM      7  C   UNL     1      36.750 -25.652 -13.101  0.00  0.00    +0.172 A 
ATOM      8  C   UNL     1      36.073 -23.923 -15.385  0.00  0.00    +0.078 C 
ATOM      9  C   UNL     1      36.797 -26.020 -14.533  0.00  0.00    +0.191 C 
ATOM     10  C   UNL     1      35.964 -24.922 -11.212  0.00  0.00    +0.147 A 
ATOM     11  C   UNL     1      33.461 -24.070 -12.585  0.00  0.00    +0.019 C 
ATOM     12  C   UNL     1      33.637 -23.466 -15.301  0.00  0.00    +0.027 C 
ATOM     13  C   UNL     1      32.431 -23.288 -14.623  0.00  0.00    +0.143 C 
ATOM     14  C   UNL     1      32.348 -23.573 -13.265  0.00  0.00    +0.026 C 
ATOM     15  C   UNL     1      35.217 -24.176 -10.178  0.00  0.00    +0.074 C 
ENDROOT
BRANCH   8  16
ATOM     16  C   UNL     1      36.372 -22.734 -16.239  0.00  0.00    +0.017 C 
ATOM     17  C   UNL     1      37.317 -21.797 -15.822  0.00  0.00    +0.001 C 
ATOM     18  C   UNL     1      35.707 -22.562 -17.453  0.00  0.00    +0.001 C 
ATOM     19  C   UNL     1      37.597 -20.687 -16.619  0.00  0.00    +0.000 C 
ATOM     20  C   UNL     1      35.987 -21.453 -18.250  0.00  0.00    +0.000 C 
ATOM     21  C   UNL     1      36.932 -20.515 -17.833  0.00  0.00    +0.000 C 
ENDBRANCH   8  16
BRANCH  13  24
ATOM     22  O   UNL     1      30.257 -22.522 -14.664  0.00  0.00    -0.126 OA
ATOM     23  O   UNL     1      31.356 -22.647 -16.559  0.00  0.00    -0.126 OA
ATOM     24  N   UNL     1      31.293 -22.796 -15.315  0.00  0.00    +0.058 N 
ENDBRANCH  13  24
TORSDOF 2
ENDMDL
MODEL 7
REMARK VINA RESULT:      -8.2      1.894      2.502
REMARK  Name = 20317278
REMARK  2 active torsions:
REMARK  status: ('A' for Active; 'I' for Inactive)
REMARK    1  A    between atoms: C_8  and  C_16
REMARK    2  A    between atoms: C_13  and  N_24
REMARK                            x       y       z     vdW  Elec       q    Type
REMARK                         _______ _______ _______ _____ _____    ______ ____
ROOT
ATOM      1  N   UNL     1      35.317 -24.581 -13.248  0.00  0.00    -0.279 N 
ATOM      2  N   UNL     1      32.592 -23.547 -12.340  0.00  0.00    -0.262 NA
ATOM      3  N   UNL     1      35.509 -24.966 -11.086  0.00  0.00    -0.131 NA
ATOM      4  N   UNL     1      36.438 -25.735 -11.743  0.00  0.00    -0.133 NA
ATOM      5  C   UNL     1      34.878 -24.029 -14.471  0.00  0.00    +0.068 C 
ATOM      6  C   UNL     1      33.586 -23.488 -14.620  0.00  0.00    +0.035 C 
ATOM      7  C   UNL     1      34.863 -24.259 -11.988  0.00  0.00    +0.172 A 
ATOM      8  C   UNL     1      32.483 -23.672 -13.618  0.00  0.00    +0.078 C 
ATOM      9  C   UNL     1      33.868 -23.191 -11.748  0.00  0.00    +0.191 C 
ATOM     10  C   UNL     1      36.332 -25.477 -13.026  0.00  0.00    +0.147 A 
ATOM     11  C   UNL     1      35.777 -23.991 -15.549  0.00  0.00    +0.019 C 
ATOM     12  C   UNL     1      33.254 -22.838 -15.823  0.00  0.00    +0.027 C 
ATOM     13  C   UNL     1      34.168 -22.775 -16.874  0.00  0.00    +0.143 C 
ATOM     14  C   UNL     1      35.420 -23.365 -16.744  0.00  0.00    +0.026 C 
ATOM     15  C   UNL     1      37.095 -26.211 -14.057  0.00  0.00    +0.074 C 
ENDROOT
BRANCH   8  16
ATOM     16  C   UNL     1      31.133 -24.066 -14.123  0.00  0.00    +0.017 C 
ATOM     17  C   UNL     1      30.739 -25.404 -14.088  0.00  0.00    +0.001 C 
ATOM     18  C   UNL     1      30.267 -23.097 -14.629  0.00  0.00    +0.001 C 
ATOM     19  C   UNL     1      29.478 -25.772 -14.559  0.00  0.00    +0.000 C 
ATOM     20  C   UNL     1      29.007 -23.465 -15.099  0.00  0.00    +0.000 C 
ATOM     21  C   UNL     1      28.613 -24.803 -15.065  0.00  0.00    +0.000 C 
ENDBRANCH   8  16
BRANCH  13  24
ATOM     22  O   UNL     1      34.718 -21.631 -18.799  0.00  0.00    -0.126 OA
ATOM     23  O   UNL     1      32.602 -22.067 -18.412  0.00  0.00    -0.126 OA
ATOM     24  N   UNL     1      33.812 -22.126 -18.087  0.00  0.00    +0.058 N 
ENDBRANCH  13  24
TORSDOF 2
ENDMDL
MODEL 8
REMARK VINA RESULT:      -8.1     17.998     20.342
REMARK  Name = 20317278
REMARK  2 active torsions:
REMARK  status: ('A' for Active; 'I' for Inactive)
REMARK    1  A    between atoms: C_8  and  C_16
REMARK    2  A    between atoms: C_13  and  N_24
REMARK                            x       y       z     vdW  Elec       q    Type
REMARK                         _______ _______ _______ _____ _____    ______ ____
ROOT
ATOM      1  N   UNL     1      31.688  -8.058 -21.912  0.00  0.00    -0.279 N 
ATOM      2  N   UNL     1      32.169  -8.110 -24.926  0.00  0.00    -0.262 NA
ATOM      3  N   UNL     1      31.685 -10.240 -22.220  0.00  0.00    -0.131 NA
ATOM      4  N   UNL     1      31.908  -9.996 -20.887  0.00  0.00    -0.133 NA
ATOM      5  C   UNL     1      31.584  -6.673 -22.171  0.00  0.00    +0.068 C 
ATOM      6  C   UNL     1      31.829  -6.136 -23.450  0.00  0.00    +0.035 C 
ATOM      7  C   UNL     1      31.528  -9.080 -22.821  0.00  0.00    +0.172 A 
ATOM      8  C   UNL     1      32.465  -6.907 -24.571  0.00  0.00    +0.078 C 
ATOM      9  C   UNL     1      31.131  -8.843 -24.226  0.00  0.00    +0.191 C 
ATOM     10  C   UNL     1      31.880  -8.694 -20.712  0.00  0.00    +0.147 A 
ATOM     11  C   UNL     1      31.187  -5.825 -21.125  0.00  0.00    +0.019 C 
ATOM     12  C   UNL     1      31.583  -4.770 -23.674  0.00  0.00    +0.027 C 
ATOM     13  C   UNL     1      31.154  -3.944 -22.635  0.00  0.00    +0.143 C 
ATOM     14  C   UNL     1      30.973  -4.467 -21.360  0.00  0.00    +0.026 C 
ATOM     15  C   UNL     1      32.201  -8.052 -19.420  0.00  0.00    +0.074 C 
ENDROOT
BRANCH   8  16
ATOM     16  C   UNL     1      33.565  -6.251 -25.340  0.00  0.00    +0.017 C 
ATOM     17  C   UNL     1      33.364  -5.884 -26.670  0.00  0.00    +0.001 C 
ATOM     18  C   UNL     1      34.794  -6.006 -24.728  0.00  0.00    +0.001 C 
ATOM     19  C   UNL     1      34.391  -5.271 -27.388  0.00  0.00    +0.000 C 
ATOM     20  C   UNL     1      35.821  -5.393 -25.446  0.00  0.00    +0.000 C 
ATOM     21  C   UNL     1      35.619  -5.026 -26.776  0.00  0.00    +0.000 C 
ENDBRANCH   8  16
BRANCH  13  24
ATOM     22  O   UNL     1      31.905  -1.786 -22.945  0.00  0.00    -0.126 OA
ATOM     23  O   UNL     1      29.743  -2.159 -23.013  0.00  0.00    -0.126 OA
ATOM     24  N   UNL     1      30.923  -2.563 -22.875  0.00  0.00    +0.058 N 
ENDBRANCH  13  24
TORSDOF 2
ENDMDL
MODEL 9
REMARK VINA RESULT:      -8.0      2.569      4.671
REMARK  Name = 20317278
REMARK  2 active torsions:
REMARK  status: ('A' for Active; 'I' for Inactive)
REMARK    1  A    between atoms: C_8  and  C_16
REMARK    2  A    between atoms: C_13  and  N_24
REMARK                            x       y       z     vdW  Elec       q    Type
REMARK                         _______ _______ _______ _____ _____    ______ ____
ROOT
ATOM      1  N   UNL     1      35.439 -24.892 -12.633  0.00  0.00    -0.279 N 
ATOM      2  N   UNL     1      36.555 -24.997 -15.473  0.00  0.00    -0.262 NA
ATOM      3  N   UNL     1      37.213 -26.144 -12.256  0.00  0.00    -0.131 NA
ATOM      4  N   UNL     1      36.797 -25.619 -11.058  0.00  0.00    -0.133 NA
ATOM      5  C   UNL     1      34.373 -24.256 -13.307  0.00  0.00    +0.068 C 
ATOM      6  C   UNL     1      34.437 -23.958 -14.682  0.00  0.00    +0.035 C 
ATOM      7  C   UNL     1      36.382 -25.728 -13.188  0.00  0.00    +0.172 A 
ATOM      8  C   UNL     1      35.696 -24.036 -15.497  0.00  0.00    +0.078 C 
ATOM      9  C   UNL     1      36.345 -26.142 -14.608  0.00  0.00    +0.191 C 
ATOM     10  C   UNL     1      35.724 -24.897 -11.292  0.00  0.00    +0.147 A 
ATOM     11  C   UNL     1      33.210 -23.951 -12.582  0.00  0.00    +0.019 C 
ATOM     12  C   UNL     1      33.295 -23.442 -15.321  0.00  0.00    +0.027 C 
ATOM     13  C   UNL     1      32.132 -23.177 -14.597  0.00  0.00    +0.143 C 
ATOM     14  C   UNL     1      32.096 -23.415 -13.228  0.00  0.00    +0.026 C 
ATOM     15  C   UNL     1      35.066 -24.080 -10.251  0.00  0.00    +0.074 C 
ENDROOT
BRANCH   8  16
ATOM     16  C   UNL     1      36.020 -22.892 -16.402  0.00  0.00    +0.017 C 
ATOM     17  C   UNL     1      35.434 -22.815 -17.665  0.00  0.00    +0.001 C 
ATOM     18  C   UNL     1      36.909 -21.902 -15.984  0.00  0.00    +0.001 C 
ATOM     19  C   UNL     1      35.736 -21.748 -18.510  0.00  0.00    +0.000 C 
ATOM     20  C   UNL     1      37.211 -20.835 -16.829  0.00  0.00    +0.000 C 
ATOM     21  C   UNL     1      36.625 -20.758 -18.093  0.00  0.00    +0.000 C 
ENDBRANCH   8  16
BRANCH  13  24
ATOM     22  O   UNL     1      30.973 -22.614 -16.509  0.00  0.00    -0.126 OA
ATOM     23  O   UNL     1      30.034 -22.220 -14.565  0.00  0.00    -0.126 OA
ATOM     24  N   UNL     1      30.992 -22.644 -15.255  0.00  0.00    +0.058 N 
ENDBRANCH  13  24
TORSDOF 2
ENDMDL
