MODEL 1
REMARK VINA RESULT:     -11.6      0.000      0.000
REMARK  Name = 11507920
REMARK  4 active torsions:
REMARK  status: ('A' for Active; 'I' for Inactive)
REMARK    1  A    between atoms: C_1  and  C_8
REMARK    2  A    between atoms: C_2  and  C_17
REMARK    3  A    between atoms: C_17  and  N_18
REMARK    4  A    between atoms: N_18  and  C_21
REMARK                            x       y       z     vdW  Elec       q    Type
REMARK                         _______ _______ _______ _____ _____    ______ ____
ROOT
ATOM      1  C   UNL     1      34.803 -18.993 -21.810  0.00  0.00    -0.000 C 
ATOM      2  C   UNL     1      34.972 -16.721 -22.612  0.00  0.00    -0.003 C 
ATOM      3  C   UNL     1      34.995 -17.636 -21.558  0.00  0.00    -0.003 C 
ATOM      4  C   UNL     1      34.587 -19.439 -23.113  0.00  0.00    -0.000 C 
ATOM      5  C   UNL     1      34.757 -17.167 -23.917  0.00  0.00    -0.003 C 
ATOM      6  C   UNL     1      34.563 -18.526 -24.167  0.00  0.00    -0.000 C 
ENDROOT
BRANCH   1   8
ATOM      7  N   UNL     1      32.680 -22.034 -18.506  0.00  0.00    -0.312 N 
ATOM      8  C   UNL     1      34.825 -19.942 -20.715  0.00  0.00    +0.001 C 
ATOM      9  C   UNL     1      33.686 -21.372 -19.173  0.00  0.00    +0.048 C 
ATOM     10  C   UNL     1      34.894 -21.773 -18.598  0.00  0.00    +0.015 C 
ATOM     11  C   UNL     1      33.620 -20.459 -20.231  0.00  0.00    +0.015 C 
ATOM     12  C   UNL     1      36.045 -20.323 -20.161  0.00  0.00    +0.000 C 
ATOM     13  C   UNL     1      36.096 -21.237 -19.102  0.00  0.00    +0.001 C 
ATOM     14  C   UNL     1      34.577 -22.698 -17.564  0.00  0.00    +0.017 C 
ATOM     15  C   UNL     1      33.209 -22.836 -17.532  0.00  0.00    +0.062 C 
ATOM     16  H   UNL     1      31.719 -21.943 -18.701  0.00  0.00    +0.152 HD
ENDBRANCH   1   8
BRANCH   2  17
ATOM     17  C   UNL     1      35.177 -15.269 -22.346  0.00  0.00    +0.114 C 
BRANCH  17  18
ATOM     18  N   UNL     1      34.155 -14.453 -22.948  0.00  0.00    -0.327 N 
ATOM     19  H   UNL     1      34.028 -14.512 -23.923  0.00  0.00    +0.147 HD
BRANCH  18  21
ATOM     20  N   UNL     1      32.184 -11.450 -22.042  0.00  0.00    -0.228 NA
ATOM     21  C   UNL     1      33.339 -13.585 -22.234  0.00  0.00    +0.077 C 
ATOM     22  C   UNL     1      32.976 -12.322 -22.706  0.00  0.00    +0.139 C 
ATOM     23  C   UNL     1      32.832 -13.955 -20.982  0.00  0.00    +0.019 C 
ATOM     24  C   UNL     1      32.014 -13.085 -20.269  0.00  0.00    +0.022 C 
ATOM     25  C   UNL     1      31.722 -11.856 -20.838  0.00  0.00    +0.100 C 
ATOM     26  N   UNL     1      33.478 -11.925 -23.971  0.00  0.00    -0.342 N 
ATOM     27  H   UNL     1      33.245 -11.041 -24.337  0.00  0.00    +0.144 HD
ATOM     28  H   UNL     1      34.058 -12.532 -24.484  0.00  0.00    +0.144 HD
ENDBRANCH  18  21
ENDBRANCH  17  18
ENDBRANCH   2  17
TORSDOF 4
ENDMDL
MODEL 2
REMARK VINA RESULT:     -11.6      0.820      1.506
REMARK  Name = 11507920
REMARK  4 active torsions:
REMARK  status: ('A' for Active; 'I' for Inactive)
REMARK    1  A    between atoms: C_1  and  C_8
REMARK    2  A    between atoms: C_2  and  C_17
REMARK    3  A    between atoms: C_17  and  N_18
REMARK    4  A    between atoms: N_18  and  C_21
REMARK                            x       y       z     vdW  Elec       q    Type
REMARK                         _______ _______ _______ _____ _____    ______ ____
ROOT
ATOM      1  C   UNL     1      34.833 -18.890 -21.834  0.00  0.00    -0.000 C 
ATOM      2  C   UNL     1      34.904 -16.598 -22.593  0.00  0.00    -0.003 C 
ATOM      3  C   UNL     1      34.941 -17.528 -21.554  0.00  0.00    -0.003 C 
ATOM      4  C   UNL     1      34.687 -19.323 -23.151  0.00  0.00    -0.000 C 
ATOM      5  C   UNL     1      34.758 -17.030 -23.911  0.00  0.00    -0.003 C 
ATOM      6  C   UNL     1      34.649 -18.393 -24.190  0.00  0.00    -0.000 C 
ENDROOT
BRANCH   1   8
ATOM      7  N   UNL     1      32.757 -22.008 -18.572  0.00  0.00    -0.312 N 
ATOM      8  C   UNL     1      34.869 -19.855 -20.755  0.00  0.00    +0.001 C 
ATOM      9  C   UNL     1      33.753 -21.323 -19.232  0.00  0.00    +0.048 C 
ATOM     10  C   UNL     1      34.967 -21.719 -18.668  0.00  0.00    +0.015 C 
ATOM     11  C   UNL     1      33.673 -20.394 -20.275  0.00  0.00    +0.015 C 
ATOM     12  C   UNL     1      36.096 -20.231 -20.210  0.00  0.00    +0.000 C 
ATOM     13  C   UNL     1      36.161 -21.161 -19.167  0.00  0.00    +0.001 C 
ATOM     14  C   UNL     1      34.665 -22.664 -17.648  0.00  0.00    +0.017 C 
ATOM     15  C   UNL     1      33.299 -22.819 -17.613  0.00  0.00    +0.062 C 
ATOM     16  H   UNL     1      31.795 -21.925 -18.763  0.00  0.00    +0.152 HD
ENDBRANCH   1   8
BRANCH   2  17
ATOM     17  C   UNL     1      35.019 -15.141 -22.296  0.00  0.00    +0.114 C 
BRANCH  17  18
ATOM     18  N   UNL     1      33.739 -14.533 -22.038  0.00  0.00    -0.327 N 
ATOM     19  H   UNL     1      33.067 -15.056 -21.546  0.00  0.00    +0.147 HD
BRANCH  18  21
ATOM     20  N   UNL     1      32.005 -11.265 -22.225  0.00  0.00    -0.228 NA
ATOM     21  C   UNL     1      33.399 -13.250 -22.445  0.00  0.00    +0.077 C 
ATOM     22  C   UNL     1      32.366 -12.515 -21.858  0.00  0.00    +0.139 C 
ATOM     23  C   UNL     1      34.097 -12.625 -23.487  0.00  0.00    +0.019 C 
ATOM     24  C   UNL     1      33.754 -11.340 -23.892  0.00  0.00    +0.022 C 
ATOM     25  C   UNL     1      32.711 -10.708 -23.235  0.00  0.00    +0.100 C 
ATOM     26  N   UNL     1      31.644 -13.127 -20.803  0.00  0.00    -0.342 N 
ATOM     27  H   UNL     1      30.909 -12.641 -20.364  0.00  0.00    +0.144 HD
ATOM     28  H   UNL     1      31.877 -14.036 -20.508  0.00  0.00    +0.144 HD
ENDBRANCH  18  21
ENDBRANCH  17  18
ENDBRANCH   2  17
TORSDOF 4
ENDMDL
MODEL 3
REMARK VINA RESULT:     -11.3      2.443      8.774
REMARK  Name = 11507920
REMARK  4 active torsions:
REMARK  status: ('A' for Active; 'I' for Inactive)
REMARK    1  A    between atoms: C_1  and  C_8
REMARK    2  A    between atoms: C_2  and  C_17
REMARK    3  A    between atoms: C_17  and  N_18
REMARK    4  A    between atoms: N_18  and  C_21
REMARK                            x       y       z     vdW  Elec       q    Type
REMARK                         _______ _______ _______ _____ _____    ______ ____
ROOT
ATOM      1  C   UNL     1      35.371 -20.153 -20.333  0.00  0.00    -0.000 C 
ATOM      2  C   UNL     1      34.581 -21.985 -18.970  0.00  0.00    -0.003 C 
ATOM      3  C   UNL     1      34.376 -21.075 -20.008  0.00  0.00    -0.003 C 
ATOM      4  C   UNL     1      36.570 -20.139 -19.621  0.00  0.00    -0.000 C 
ATOM      5  C   UNL     1      35.780 -21.971 -18.257  0.00  0.00    -0.003 C 
ATOM      6  C   UNL     1      36.774 -21.047 -18.582  0.00  0.00    -0.000 C 
ENDROOT
BRANCH   1   8
ATOM      7  N   UNL     1      35.205 -15.591 -22.288  0.00  0.00    -0.312 N 
ATOM      8  C   UNL     1      35.158 -19.208 -21.409  0.00  0.00    +0.001 C 
ATOM      9  C   UNL     1      35.112 -16.963 -22.233  0.00  0.00    +0.048 C 
ATOM     10  C   UNL     1      34.739 -17.400 -23.506  0.00  0.00    +0.015 C 
ATOM     11  C   UNL     1      35.328 -17.842 -21.167  0.00  0.00    +0.015 C 
ATOM     12  C   UNL     1      34.786 -19.673 -22.669  0.00  0.00    +0.000 C 
ATOM     13  C   UNL     1      34.573 -18.782 -23.727  0.00  0.00    +0.001 C 
ATOM     14  C   UNL     1      34.612 -16.243 -24.324  0.00  0.00    +0.017 C 
ATOM     15  C   UNL     1      34.904 -15.147 -23.547  0.00  0.00    +0.062 C 
ATOM     16  H   UNL     1      35.452 -15.012 -21.530  0.00  0.00    +0.152 HD
ENDBRANCH   1   8
BRANCH   2  17
ATOM     17  C   UNL     1      33.518 -22.971 -18.622  0.00  0.00    +0.114 C 
BRANCH  17  18
ATOM     18  N   UNL     1      32.551 -22.431 -17.701  0.00  0.00    -0.327 N 
ATOM     19  H   UNL     1      31.987 -21.684 -18.006  0.00  0.00    +0.147 HD
BRANCH  18  21
ATOM     20  N   UNL     1      30.891 -23.513 -14.572  0.00  0.00    -0.228 NA
ATOM     21  C   UNL     1      32.369 -22.902 -16.408  0.00  0.00    +0.077 C 
ATOM     22  C   UNL     1      31.109 -23.057 -15.826  0.00  0.00    +0.139 C 
ATOM     23  C   UNL     1      33.471 -23.250 -15.616  0.00  0.00    +0.019 C 
ATOM     24  C   UNL     1      33.287 -23.722 -14.321  0.00  0.00    +0.022 C 
ATOM     25  C   UNL     1      31.988 -23.835 -13.850  0.00  0.00    +0.100 C 
ATOM     26  N   UNL     1      29.979 -22.710 -16.607  0.00  0.00    -0.342 N 
ATOM     27  H   UNL     1      29.073 -22.806 -16.232  0.00  0.00    +0.144 HD
ATOM     28  H   UNL     1      30.098 -22.374 -17.524  0.00  0.00    +0.144 HD
ENDBRANCH  18  21
ENDBRANCH  17  18
ENDBRANCH   2  17
TORSDOF 4
ENDMDL
MODEL 4
REMARK VINA RESULT:     -11.3      2.491      8.905
REMARK  Name = 11507920
REMARK  4 active torsions:
REMARK  status: ('A' for Active; 'I' for Inactive)
REMARK    1  A    between atoms: C_1  and  C_8
REMARK    2  A    between atoms: C_2  and  C_17
REMARK    3  A    between atoms: C_17  and  N_18
REMARK    4  A    between atoms: N_18  and  C_21
REMARK                            x       y       z     vdW  Elec       q    Type
REMARK                         _______ _______ _______ _____ _____    ______ ____
ROOT
ATOM      1  C   UNL     1      35.229 -20.196 -20.321  0.00  0.00    -0.000 C 
ATOM      2  C   UNL     1      34.277 -21.744 -18.730  0.00  0.00    -0.003 C 
ATOM      3  C   UNL     1      34.118 -20.845 -19.785  0.00  0.00    -0.003 C 
ATOM      4  C   UNL     1      36.500 -20.444 -19.805  0.00  0.00    -0.000 C 
ATOM      5  C   UNL     1      35.548 -21.992 -18.212  0.00  0.00    -0.003 C 
ATOM      6  C   UNL     1      36.660 -21.342 -18.749  0.00  0.00    -0.000 C 
ENDROOT
BRANCH   1   8
ATOM      7  N   UNL     1      35.191 -15.659 -22.340  0.00  0.00    -0.312 N 
ATOM      8  C   UNL     1      35.063 -19.262 -21.416  0.00  0.00    +0.001 C 
ATOM      9  C   UNL     1      35.077 -17.028 -22.270  0.00  0.00    +0.048 C 
ATOM     10  C   UNL     1      34.736 -17.477 -23.548  0.00  0.00    +0.015 C 
ATOM     11  C   UNL     1      35.247 -17.896 -21.186  0.00  0.00    +0.015 C 
ATOM     12  C   UNL     1      34.723 -19.739 -22.681  0.00  0.00    +0.000 C 
ATOM     13  C   UNL     1      34.555 -18.859 -23.756  0.00  0.00    +0.001 C 
ATOM     14  C   UNL     1      34.652 -16.329 -24.384  0.00  0.00    +0.017 C 
ATOM     15  C   UNL     1      34.936 -15.227 -23.613  0.00  0.00    +0.062 C 
ATOM     16  H   UNL     1      35.424 -15.073 -21.582  0.00  0.00    +0.152 HD
ENDBRANCH   1   8
BRANCH   2  17
ATOM     17  C   UNL     1      33.089 -22.438 -18.154  0.00  0.00    +0.114 C 
BRANCH  17  18
ATOM     18  N   UNL     1      33.384 -23.071 -16.894  0.00  0.00    -0.327 N 
ATOM     19  H   UNL     1      34.267 -23.491 -16.781  0.00  0.00    +0.147 HD
BRANCH  18  21
ATOM     20  N   UNL     1      32.070 -23.198 -13.433  0.00  0.00    -0.228 NA
ATOM     21  C   UNL     1      32.493 -23.124 -15.830  0.00  0.00    +0.077 C 
ATOM     22  C   UNL     1      32.905 -23.148 -14.496  0.00  0.00    +0.139 C 
ATOM     23  C   UNL     1      31.112 -23.154 -16.059  0.00  0.00    +0.019 C 
ATOM     24  C   UNL     1      30.222 -23.206 -14.992  0.00  0.00    +0.022 C 
ATOM     25  C   UNL     1      30.747 -23.226 -13.710  0.00  0.00    +0.100 C 
ATOM     26  N   UNL     1      34.299 -23.120 -14.238  0.00  0.00    -0.342 N 
ATOM     27  H   UNL     1      34.628 -23.135 -13.310  0.00  0.00    +0.144 HD
ATOM     28  H   UNL     1      34.937 -23.084 -14.986  0.00  0.00    +0.144 HD
ENDBRANCH  18  21
ENDBRANCH  17  18
ENDBRANCH   2  17
TORSDOF 4
ENDMDL
MODEL 5
REMARK VINA RESULT:     -11.2      1.537      2.718
REMARK  Name = 11507920
REMARK  4 active torsions:
REMARK  status: ('A' for Active; 'I' for Inactive)
REMARK    1  A    between atoms: C_1  and  C_8
REMARK    2  A    between atoms: C_2  and  C_17
REMARK    3  A    between atoms: C_17  and  N_18
REMARK    4  A    between atoms: N_18  and  C_21
REMARK                            x       y       z     vdW  Elec       q    Type
REMARK                         _______ _______ _______ _____ _____    ______ ____
ROOT
ATOM      1  C   UNL     1      35.369 -19.949 -20.500  0.00  0.00    -0.000 C 
ATOM      2  C   UNL     1      35.379 -18.618 -22.516  0.00  0.00    -0.003 C 
ATOM      3  C   UNL     1      34.698 -19.427 -21.606  0.00  0.00    -0.003 C 
ATOM      4  C   UNL     1      36.719 -19.664 -20.304  0.00  0.00    -0.000 C 
ATOM      5  C   UNL     1      36.730 -18.333 -22.321  0.00  0.00    -0.003 C 
ATOM      6  C   UNL     1      37.401 -18.857 -21.215  0.00  0.00    -0.000 C 
ENDROOT
BRANCH   1   8
ATOM      7  N   UNL     1      35.103 -23.097 -16.669  0.00  0.00    -0.312 N 
ATOM      8  C   UNL     1      34.662 -20.789 -19.556  0.00  0.00    +0.001 C 
ATOM      9  C   UNL     1      34.665 -22.300 -17.702  0.00  0.00    +0.048 C 
ATOM     10  C   UNL     1      33.273 -22.408 -17.742  0.00  0.00    +0.015 C 
ATOM     11  C   UNL     1      35.386 -21.500 -18.595  0.00  0.00    +0.015 C 
ATOM     12  C   UNL     1      33.272 -20.878 -19.621  0.00  0.00    +0.000 C 
ATOM     13  C   UNL     1      32.564 -21.683 -18.721  0.00  0.00    +0.001 C 
ATOM     14  C   UNL     1      32.893 -23.296 -16.698  0.00  0.00    +0.017 C 
ATOM     15  C   UNL     1      34.039 -23.703 -16.057  0.00  0.00    +0.062 C 
ATOM     16  H   UNL     1      36.045 -23.214 -16.408  0.00  0.00    +0.152 HD
ENDBRANCH   1   8
BRANCH   2  17
ATOM     17  C   UNL     1      34.663 -18.058 -23.699  0.00  0.00    +0.114 C 
BRANCH  17  18
ATOM     18  N   UNL     1      35.072 -16.710 -23.998  0.00  0.00    -0.327 N 
ATOM     19  H   UNL     1      35.802 -16.578 -24.645  0.00  0.00    +0.147 HD
BRANCH  18  21
ATOM     20  N   UNL     1      32.958 -13.700 -23.559  0.00  0.00    -0.228 NA
ATOM     21  C   UNL     1      34.495 -15.584 -23.426  0.00  0.00    +0.077 C 
ATOM     22  C   UNL     1      33.543 -14.801 -24.082  0.00  0.00    +0.139 C 
ATOM     23  C   UNL     1      34.853 -15.180 -22.133  0.00  0.00    +0.019 C 
ATOM     24  C   UNL     1      34.274 -14.053 -21.562  0.00  0.00    +0.022 C 
ATOM     25  C   UNL     1      33.340 -13.353 -22.309  0.00  0.00    +0.100 C 
ATOM     26  N   UNL     1      33.165 -15.188 -25.392  0.00  0.00    -0.342 N 
ATOM     27  H   UNL     1      32.497 -14.662 -25.888  0.00  0.00    +0.144 HD
ATOM     28  H   UNL     1      33.569 -15.984 -25.807  0.00  0.00    +0.144 HD
ENDBRANCH  18  21
ENDBRANCH  17  18
ENDBRANCH   2  17
TORSDOF 4
ENDMDL
MODEL 6
REMARK VINA RESULT:     -11.0      1.779      8.659
REMARK  Name = 11507920
REMARK  4 active torsions:
REMARK  status: ('A' for Active; 'I' for Inactive)
REMARK    1  A    between atoms: C_1  and  C_8
REMARK    2  A    between atoms: C_2  and  C_17
REMARK    3  A    between atoms: C_17  and  N_18
REMARK    4  A    between atoms: N_18  and  C_21
REMARK                            x       y       z     vdW  Elec       q    Type
REMARK                         _______ _______ _______ _____ _____    ______ ____
ROOT
ATOM      1  C   UNL     1      35.526 -18.799 -21.042  0.00  0.00    -0.000 C 
ATOM      2  C   UNL     1      34.859 -20.759 -19.797  0.00  0.00    -0.003 C 
ATOM      3  C   UNL     1      34.528 -19.664 -20.597  0.00  0.00    -0.003 C 
ATOM      4  C   UNL     1      36.856 -19.025 -20.688  0.00  0.00    -0.000 C 
ATOM      5  C   UNL     1      36.189 -20.986 -19.443  0.00  0.00    -0.003 C 
ATOM      6  C   UNL     1      37.188 -20.119 -19.888  0.00  0.00    -0.000 C 
ENDROOT
BRANCH   1   8
ATOM      7  N   UNL     1      34.492 -14.005 -21.822  0.00  0.00    -0.312 N 
ATOM      8  C   UNL     1      35.182 -17.662 -21.871  0.00  0.00    +0.001 C 
ATOM      9  C   UNL     1      34.699 -15.333 -22.118  0.00  0.00    +0.048 C 
ATOM     10  C   UNL     1      34.515 -15.481 -23.495  0.00  0.00    +0.015 C 
ATOM     11  C   UNL     1      35.032 -16.404 -21.282  0.00  0.00    +0.015 C 
ATOM     12  C   UNL     1      35.004 -17.840 -23.242  0.00  0.00    +0.000 C 
ATOM     13  C   UNL     1      34.670 -16.760 -24.066  0.00  0.00    +0.001 C 
ATOM     14  C   UNL     1      34.191 -14.196 -24.012  0.00  0.00    +0.017 C 
ATOM     15  C   UNL     1      34.184 -13.310 -22.960  0.00  0.00    +0.062 C 
ATOM     16  H   UNL     1      34.555 -13.611 -20.922  0.00  0.00    +0.152 HD
ENDBRANCH   1   8
BRANCH   2  17
ATOM     17  C   UNL     1      33.793 -21.685 -19.320  0.00  0.00    +0.114 C 
BRANCH  17  18
ATOM     18  N   UNL     1      34.300 -22.681 -18.411  0.00  0.00    -0.327 N 
ATOM     19  H   UNL     1      35.018 -23.275 -18.727  0.00  0.00    +0.147 HD
BRANCH  18  21
ATOM     20  N   UNL     1      34.260 -23.030 -14.724  0.00  0.00    -0.228 NA
ATOM     21  C   UNL     1      33.834 -22.852 -17.114  0.00  0.00    +0.077 C 
ATOM     22  C   UNL     1      34.675 -22.868 -16.000  0.00  0.00    +0.139 C 
ATOM     23  C   UNL     1      32.465 -23.016 -16.867  0.00  0.00    +0.019 C 
ATOM     24  C   UNL     1      32.000 -23.187 -15.567  0.00  0.00    +0.022 C 
ATOM     25  C   UNL     1      32.930 -23.186 -14.540  0.00  0.00    +0.100 C 
ATOM     26  N   UNL     1      36.065 -22.705 -16.226  0.00  0.00    -0.342 N 
ATOM     27  H   UNL     1      36.691 -22.710 -15.465  0.00  0.00    +0.144 HD
ATOM     28  H   UNL     1      36.405 -22.584 -17.141  0.00  0.00    +0.144 HD
ENDBRANCH  18  21
ENDBRANCH  17  18
ENDBRANCH   2  17
TORSDOF 4
ENDMDL
MODEL 7
REMARK VINA RESULT:     -10.9      2.526      4.810
REMARK  Name = 11507920
REMARK  4 active torsions:
REMARK  status: ('A' for Active; 'I' for Inactive)
REMARK    1  A    between atoms: C_1  and  C_8
REMARK    2  A    between atoms: C_2  and  C_17
REMARK    3  A    between atoms: C_17  and  N_18
REMARK    4  A    between atoms: N_18  and  C_21
REMARK                            x       y       z     vdW  Elec       q    Type
REMARK                         _______ _______ _______ _____ _____    ______ ____
ROOT
ATOM      1  C   UNL     1      34.539 -21.659 -18.424  0.00  0.00    -0.000 C 
ATOM      2  C   UNL     1      35.050 -20.177 -20.262  0.00  0.00    -0.003 C 
ATOM      3  C   UNL     1      35.464 -20.907 -19.147  0.00  0.00    -0.003 C 
ATOM      4  C   UNL     1      33.201 -21.682 -18.813  0.00  0.00    -0.000 C 
ATOM      5  C   UNL     1      33.711 -20.199 -20.651  0.00  0.00    -0.003 C 
ATOM      6  C   UNL     1      32.785 -20.951 -19.926  0.00  0.00    -0.000 C 
ENDROOT
BRANCH   1   8
ATOM      7  N   UNL     1      37.905 -23.231 -15.128  0.00  0.00    -0.312 N 
ATOM      8  C   UNL     1      34.969 -22.416 -17.267  0.00  0.00    +0.001 C 
ATOM      9  C   UNL     1      36.681 -23.101 -15.742  0.00  0.00    +0.048 C 
ATOM     10  C   UNL     1      35.776 -23.888 -15.026  0.00  0.00    +0.015 C 
ATOM     11  C   UNL     1      36.307 -22.355 -16.865  0.00  0.00    +0.015 C 
ATOM     12  C   UNL     1      34.045 -23.193 -16.571  0.00  0.00    +0.000 C 
ATOM     13  C   UNL     1      34.433 -23.935 -15.450  0.00  0.00    +0.001 C 
ATOM     14  C   UNL     1      36.502 -24.493 -13.962  0.00  0.00    +0.017 C 
ATOM     15  C   UNL     1      37.807 -24.070 -14.052  0.00  0.00    +0.062 C 
ATOM     16  H   UNL     1      38.733 -22.785 -15.421  0.00  0.00    +0.152 HD
ENDBRANCH   1   8
BRANCH   2  17
ATOM     17  C   UNL     1      36.038 -19.372 -21.037  0.00  0.00    +0.114 C 
BRANCH  17  18
ATOM     18  N   UNL     1      35.873 -17.957 -20.829  0.00  0.00    -0.327 N 
ATOM     19  H   UNL     1      36.146 -17.580 -19.961  0.00  0.00    +0.147 HD
BRANCH  18  21
ATOM     20  N   UNL     1      34.324 -14.961 -22.362  0.00  0.00    -0.228 NA
ATOM     21  C   UNL     1      35.350 -17.092 -21.781  0.00  0.00    +0.077 C 
ATOM     22  C   UNL     1      34.840 -15.831 -21.464  0.00  0.00    +0.139 C 
ATOM     23  C   UNL     1      35.316 -17.459 -23.133  0.00  0.00    +0.019 C 
ATOM     24  C   UNL     1      34.793 -16.591 -24.085  0.00  0.00    +0.022 C 
ATOM     25  C   UNL     1      34.314 -15.365 -23.652  0.00  0.00    +0.100 C 
ATOM     26  N   UNL     1      34.862 -15.438 -20.103  0.00  0.00    -0.342 N 
ATOM     27  H   UNL     1      34.511 -14.556 -19.840  0.00  0.00    +0.144 HD
ATOM     28  H   UNL     1      35.229 -16.044 -19.420  0.00  0.00    +0.144 HD
ENDBRANCH  18  21
ENDBRANCH  17  18
ENDBRANCH   2  17
TORSDOF 4
ENDMDL
MODEL 8
REMARK VINA RESULT:     -10.9      7.420     10.664
REMARK  Name = 11507920
REMARK  4 active torsions:
REMARK  status: ('A' for Active; 'I' for Inactive)
REMARK    1  A    between atoms: C_1  and  C_8
REMARK    2  A    between atoms: C_2  and  C_17
REMARK    3  A    between atoms: C_17  and  N_18
REMARK    4  A    between atoms: N_18  and  C_21
REMARK                            x       y       z     vdW  Elec       q    Type
REMARK                         _______ _______ _______ _____ _____    ______ ____
ROOT
ATOM      1  C   UNL     1      34.035 -22.714 -16.680  0.00  0.00    -0.000 C 
ATOM      2  C   UNL     1      36.394 -22.259 -16.434  0.00  0.00    -0.003 C 
ATOM      3  C   UNL     1      35.174 -22.647 -15.879  0.00  0.00    -0.003 C 
ATOM      4  C   UNL     1      34.113 -22.393 -18.034  0.00  0.00    -0.000 C 
ATOM      5  C   UNL     1      36.473 -21.937 -17.789  0.00  0.00    -0.003 C 
ATOM      6  C   UNL     1      35.332 -22.003 -18.589  0.00  0.00    -0.000 C 
ENDROOT
BRANCH   1   8
ATOM      7  N   UNL     1      29.075 -22.872 -16.493  0.00  0.00    -0.312 N 
ATOM      8  C   UNL     1      32.769 -23.116 -16.103  0.00  0.00    +0.001 C 
ATOM      9  C   UNL     1      30.377 -23.118 -16.121  0.00  0.00    +0.048 C 
ATOM     10  C   UNL     1      30.333 -23.906 -14.969  0.00  0.00    +0.015 C 
ATOM     11  C   UNL     1      31.578 -22.708 -16.710  0.00  0.00    +0.015 C 
ATOM     12  C   UNL     1      32.756 -23.903 -14.953  0.00  0.00    +0.000 C 
ATOM     13  C   UNL     1      31.547 -24.305 -14.374  0.00  0.00    +0.001 C 
ATOM     14  C   UNL     1      28.961 -24.124 -14.665  0.00  0.00    +0.017 C 
ATOM     15  C   UNL     1      28.212 -23.475 -15.619  0.00  0.00    +0.062 C 
ATOM     16  H   UNL     1      28.803 -22.339 -17.275  0.00  0.00    +0.152 HD
ENDBRANCH   1   8
BRANCH   2  17
ATOM     17  C   UNL     1      37.614 -22.186 -15.579  0.00  0.00    +0.114 C 
BRANCH  17  18
ATOM     18  N   UNL     1      38.278 -23.459 -15.464  0.00  0.00    -0.327 N 
ATOM     19  H   UNL     1      38.844 -23.757 -16.213  0.00  0.00    +0.147 HD
BRANCH  18  21
ATOM     20  N   UNL     1      38.953 -26.194 -13.058  0.00  0.00    -0.228 NA
ATOM     21  C   UNL     1      38.165 -24.292 -14.358  0.00  0.00    +0.077 C 
ATOM     22  C   UNL     1      39.029 -25.363 -14.122  0.00  0.00    +0.139 C 
ATOM     23  C   UNL     1      37.154 -24.082 -13.411  0.00  0.00    +0.019 C 
ATOM     24  C   UNL     1      37.043 -24.917 -12.304  0.00  0.00    +0.022 C 
ATOM     25  C   UNL     1      37.959 -25.948 -12.174  0.00  0.00    +0.100 C 
ATOM     26  N   UNL     1      40.059 -25.596 -15.068  0.00  0.00    -0.342 N 
ATOM     27  H   UNL     1      40.689 -26.341 -14.935  0.00  0.00    +0.144 HD
ATOM     28  H   UNL     1      40.147 -25.012 -15.855  0.00  0.00    +0.144 HD
ENDBRANCH  18  21
ENDBRANCH  17  18
ENDBRANCH   2  17
TORSDOF 4
ENDMDL
MODEL 9
REMARK VINA RESULT:     -10.9      4.545     10.771
REMARK  Name = 11507920
REMARK  4 active torsions:
REMARK  status: ('A' for Active; 'I' for Inactive)
REMARK    1  A    between atoms: C_1  and  C_8
REMARK    2  A    between atoms: C_2  and  C_17
REMARK    3  A    between atoms: C_17  and  N_18
REMARK    4  A    between atoms: N_18  and  C_21
REMARK                            x       y       z     vdW  Elec       q    Type
REMARK                         _______ _______ _______ _____ _____    ______ ____
ROOT
ATOM      1  C   UNL     1      35.110 -22.131 -17.620  0.00  0.00    -0.000 C 
ATOM      2  C   UNL     1      36.373 -23.034 -15.770  0.00  0.00    -0.003 C 
ATOM      3  C   UNL     1      36.299 -22.216 -16.897  0.00  0.00    -0.003 C 
ATOM      4  C   UNL     1      33.994 -22.865 -17.218  0.00  0.00    -0.000 C 
ATOM      5  C   UNL     1      35.257 -23.768 -15.367  0.00  0.00    -0.003 C 
ATOM      6  C   UNL     1      34.068 -23.684 -16.092  0.00  0.00    -0.000 C 
ENDROOT
BRANCH   1   8
ATOM      7  N   UNL     1      37.019 -19.085 -21.047  0.00  0.00    -0.312 N 
ATOM      8  C   UNL     1      35.034 -21.283 -18.791  0.00  0.00    +0.001 C 
ATOM      9  C   UNL     1      36.070 -19.828 -20.382  0.00  0.00    +0.048 C 
ATOM     10  C   UNL     1      34.860 -19.647 -21.057  0.00  0.00    +0.015 C 
ATOM     11  C   UNL     1      36.187 -20.639 -19.248  0.00  0.00    +0.015 C 
ATOM     12  C   UNL     1      33.813 -21.120 -19.444  0.00  0.00    +0.000 C 
ATOM     13  C   UNL     1      33.710 -20.305 -20.577  0.00  0.00    +0.001 C 
ATOM     14  C   UNL     1      35.119 -18.770 -22.148  0.00  0.00    +0.017 C 
ATOM     15  C   UNL     1      36.454 -18.443 -22.114  0.00  0.00    +0.062 C 
ATOM     16  H   UNL     1      37.968 -19.025 -20.790  0.00  0.00    +0.152 HD
ENDBRANCH   1   8
BRANCH   2  17
ATOM     17  C   UNL     1      37.644 -23.126 -14.995  0.00  0.00    +0.114 C 
BRANCH  17  18
ATOM     18  N   UNL     1      37.686 -24.291 -14.150  0.00  0.00    -0.327 N 
ATOM     19  H   UNL     1      38.084 -25.115 -14.515  0.00  0.00    +0.147 HD
BRANCH  18  21
ATOM     20  N   UNL     1      36.312 -25.567 -10.956  0.00  0.00    -0.228 NA
ATOM     21  C   UNL     1      37.199 -24.321 -12.850  0.00  0.00    +0.077 C 
ATOM     22  C   UNL     1      36.790 -25.497 -12.218  0.00  0.00    +0.139 C 
ATOM     23  C   UNL     1      37.097 -23.141 -12.102  0.00  0.00    +0.019 C 
ATOM     24  C   UNL     1      36.609 -23.173 -10.800  0.00  0.00    +0.022 C 
ATOM     25  C   UNL     1      36.234 -24.400 -10.278  0.00  0.00    +0.100 C 
ATOM     26  N   UNL     1      36.882 -26.704 -12.956  0.00  0.00    -0.342 N 
ATOM     27  H   UNL     1      36.604 -27.554 -12.545  0.00  0.00    +0.144 HD
ATOM     28  H   UNL     1      37.226 -26.693 -13.878  0.00  0.00    +0.144 HD
ENDBRANCH  18  21
ENDBRANCH  17  18
ENDBRANCH   2  17
TORSDOF 4
ENDMDL
