MODEL 1
REMARK VINA RESULT:     -10.9      0.000      0.000
REMARK  Name = 25102845
REMARK  4 active torsions:
REMARK  status: ('A' for Active; 'I' for Inactive)
REMARK    1  A    between atoms: C_5  and  C_12
REMARK    2  A    between atoms: C_9  and  C_17
REMARK    3  A    between atoms: C_17  and  C_18
REMARK    4  A    between atoms: C_18  and  N_21
REMARK                            x       y       z     vdW  Elec       q    Type
REMARK                         _______ _______ _______ _____ _____    ______ ____
ROOT
ATOM      1  F   UNL     1      31.251 -24.204 -12.911  0.00  0.00    -0.202 F 
ATOM      2  F   UNL     1      32.537 -25.774 -13.706  0.00  0.00    -0.202 F 
ATOM      3  O   UNL     1      35.581 -22.512 -16.360  0.00  0.00    -0.275 OA
ATOM      4  N   UNL     1      33.850 -23.404 -15.109  0.00  0.00    -0.267 N 
ATOM      5  C   UNL     1      34.631 -23.650 -13.904  0.00  0.00    +0.158 C 
ATOM      6  C   UNL     1      33.596 -23.863 -12.807  0.00  0.00    +0.098 C 
ATOM      7  C   UNL     1      32.407 -24.435 -13.561  0.00  0.00    +0.284 C 
ATOM      8  C   UNL     1      32.443 -23.757 -14.915  0.00  0.00    +0.160 C 
ATOM      9  C   UNL     1      34.389 -22.795 -16.232  0.00  0.00    +0.228 C 
ENDROOT
BRANCH   5  12
ATOM     10  O   UNL     1      35.110 -25.713 -14.977  0.00  0.00    -0.273 OA
ATOM     11  N   UNL     1      36.582 -25.002 -13.344  0.00  0.00    -0.278 N 
ATOM     12  C   UNL     1      35.454 -24.882 -14.135  0.00  0.00    +0.244 C 
ATOM     13  C   UNL     1      37.482 -26.143 -13.443  0.00  0.00    +0.094 C 
ATOM     14  C   UNL     1      37.045 -24.056 -12.334  0.00  0.00    +0.094 C 
ATOM     15  C   UNL     1      38.718 -25.721 -12.664  0.00  0.00    +0.023 C 
ATOM     16  C   UNL     1      38.146 -24.801 -11.592  0.00  0.00    +0.023 C 
ENDBRANCH   5  12
BRANCH   9  17
ATOM     17  C   UNL     1      33.411 -22.493 -17.340  0.00  0.00    +0.107 C 
BRANCH  17  18
ATOM     18  C   UNL     1      34.015 -22.853 -18.681  0.00  0.00    +0.111 C 
BRANCH  18  21
ATOM     19  O   UNL     1      36.821 -21.878 -18.925  0.00  0.00    -0.269 OA
ATOM     20  O   UNL     1      32.514 -20.806 -20.251  0.00  0.00    -0.269 OA
ATOM     21  N   UNL     1      34.516 -21.698 -19.378  0.00  0.00    -0.222 N 
ATOM     22  C   UNL     1      35.853 -21.340 -19.426  0.00  0.00    +0.255 C 
ATOM     23  C   UNL     1      33.720 -20.810 -20.083  0.00  0.00    +0.255 C 
ATOM     24  C   UNL     1      35.917 -20.126 -20.239  0.00  0.00    +0.058 C 
ATOM     25  C   UNL     1      34.626 -19.806 -20.637  0.00  0.00    +0.058 C 
ATOM     26  C   UNL     1      37.004 -19.359 -20.604  0.00  0.00    +0.005 C 
ATOM     27  C   UNL     1      34.356 -18.702 -21.418  0.00  0.00    +0.005 C 
ATOM     28  C   UNL     1      36.754 -18.236 -21.398  0.00  0.00    +0.000 C 
ATOM     29  C   UNL     1      35.443 -17.910 -21.801  0.00  0.00    +0.000 C 
ENDBRANCH  18  21
ENDBRANCH  17  18
ENDBRANCH   9  17
TORSDOF 4
ENDMDL
MODEL 2
REMARK VINA RESULT:     -10.9      0.032      1.635
REMARK  Name = 25102845
REMARK  4 active torsions:
REMARK  status: ('A' for Active; 'I' for Inactive)
REMARK    1  A    between atoms: C_5  and  C_12
REMARK    2  A    between atoms: C_9  and  C_17
REMARK    3  A    between atoms: C_17  and  C_18
REMARK    4  A    between atoms: C_18  and  N_21
REMARK                            x       y       z     vdW  Elec       q    Type
REMARK                         _______ _______ _______ _____ _____    ______ ____
ROOT
ATOM      1  F   UNL     1      31.209 -24.206 -12.917  0.00  0.00    -0.202 F 
ATOM      2  F   UNL     1      32.503 -25.775 -13.704  0.00  0.00    -0.202 F 
ATOM      3  O   UNL     1      35.572 -22.507 -16.320  0.00  0.00    -0.275 OA
ATOM      4  N   UNL     1      33.830 -23.401 -15.088  0.00  0.00    -0.267 N 
ATOM      5  C   UNL     1      34.599 -23.650 -13.876  0.00  0.00    +0.158 C 
ATOM      6  C   UNL     1      33.553 -23.867 -12.790  0.00  0.00    +0.098 C 
ATOM      7  C   UNL     1      32.372 -24.436 -13.557  0.00  0.00    +0.284 C 
ATOM      8  C   UNL     1      32.421 -23.754 -14.908  0.00  0.00    +0.160 C 
ATOM      9  C   UNL     1      34.379 -22.789 -16.204  0.00  0.00    +0.228 C 
ENDROOT
BRANCH   5  12
ATOM     10  O   UNL     1      35.079 -25.718 -14.940  0.00  0.00    -0.273 OA
ATOM     11  N   UNL     1      36.555 -24.996 -13.315  0.00  0.00    -0.278 N 
ATOM     12  C   UNL     1      35.423 -24.882 -14.103  0.00  0.00    +0.244 C 
ATOM     13  C   UNL     1      37.456 -26.135 -13.410  0.00  0.00    +0.094 C 
ATOM     14  C   UNL     1      37.019 -24.043 -12.311  0.00  0.00    +0.094 C 
ATOM     15  C   UNL     1      38.693 -25.707 -12.637  0.00  0.00    +0.023 C 
ATOM     16  C   UNL     1      38.123 -24.782 -11.569  0.00  0.00    +0.023 C 
ENDBRANCH   5  12
BRANCH   9  17
ATOM     17  C   UNL     1      33.411 -22.483 -17.320  0.00  0.00    +0.107 C 
BRANCH  17  18
ATOM     18  C   UNL     1      34.020 -22.859 -18.655  0.00  0.00    +0.111 C 
BRANCH  18  21
ATOM     19  O   UNL     1      32.520 -20.840 -20.253  0.00  0.00    -0.269 OA
ATOM     20  O   UNL     1      36.831 -21.891 -18.922  0.00  0.00    -0.269 OA
ATOM     21  N   UNL     1      34.520 -21.713 -19.366  0.00  0.00    -0.222 N 
ATOM     22  C   UNL     1      33.724 -20.834 -20.080  0.00  0.00    +0.255 C 
ATOM     23  C   UNL     1      35.857 -21.355 -19.420  0.00  0.00    +0.255 C 
ATOM     24  C   UNL     1      34.627 -19.823 -20.627  0.00  0.00    +0.058 C 
ATOM     25  C   UNL     1      35.919 -20.138 -20.228  0.00  0.00    +0.058 C 
ATOM     26  C   UNL     1      34.355 -18.721 -21.411  0.00  0.00    +0.005 C 
ATOM     27  C   UNL     1      37.003 -19.368 -20.591  0.00  0.00    +0.005 C 
ATOM     28  C   UNL     1      35.440 -17.924 -21.789  0.00  0.00    +0.000 C 
ATOM     29  C   UNL     1      36.751 -18.244 -21.384  0.00  0.00    +0.000 C 
ENDBRANCH  18  21
ENDBRANCH  17  18
ENDBRANCH   9  17
TORSDOF 4
ENDMDL
MODEL 3
REMARK VINA RESULT:     -10.2     10.723     15.903
REMARK  Name = 25102845
REMARK  4 active torsions:
REMARK  status: ('A' for Active; 'I' for Inactive)
REMARK    1  A    between atoms: C_5  and  C_12
REMARK    2  A    between atoms: C_9  and  C_17
REMARK    3  A    between atoms: C_17  and  C_18
REMARK    4  A    between atoms: C_18  and  N_21
REMARK                            x       y       z     vdW  Elec       q    Type
REMARK                         _______ _______ _______ _____ _____    ______ ____
ROOT
ATOM      1  F   UNL     1      36.448  -7.034 -22.871  0.00  0.00    -0.202 F 
ATOM      2  F   UNL     1      34.994  -6.707 -24.462  0.00  0.00    -0.202 F 
ATOM      3  O   UNL     1      31.959 -10.682 -23.072  0.00  0.00    -0.275 OA
ATOM      4  N   UNL     1      33.728  -9.200 -23.240  0.00  0.00    -0.267 N 
ATOM      5  C   UNL     1      33.040  -8.059 -22.648  0.00  0.00    +0.158 C 
ATOM      6  C   UNL     1      34.150  -7.080 -22.287  0.00  0.00    +0.098 C 
ATOM      7  C   UNL     1      35.227  -7.386 -23.315  0.00  0.00    +0.284 C 
ATOM      8  C   UNL     1      35.119  -8.877 -23.558  0.00  0.00    +0.160 C 
ATOM      9  C   UNL     1      33.136 -10.448 -23.350  0.00  0.00    +0.228 C 
ENDROOT
BRANCH   5  12
ATOM     10  O   UNL     1      31.746  -8.184 -24.635  0.00  0.00    -0.273 OA
ATOM     11  N   UNL     1      31.747  -6.173 -23.497  0.00  0.00    -0.278 N 
ATOM     12  C   UNL     1      32.119  -7.492 -23.687  0.00  0.00    +0.244 C 
ATOM     13  C   UNL     1      30.862  -5.475 -24.419  0.00  0.00    +0.094 C 
ATOM     14  C   UNL     1      32.149  -5.302 -22.397  0.00  0.00    +0.094 C 
ATOM     15  C   UNL     1      30.465  -4.207 -23.680  0.00  0.00    +0.023 C 
ATOM     16  C   UNL     1      31.692  -3.915 -22.825  0.00  0.00    +0.023 C 
ENDBRANCH   5  12
BRANCH   9  17
ATOM     17  C   UNL     1      34.032 -11.550 -23.859  0.00  0.00    +0.107 C 
BRANCH  17  18
ATOM     18  C   UNL     1      33.200 -12.728 -24.319  0.00  0.00    +0.111 C 
BRANCH  18  21
ATOM     19  O   UNL     1      33.442 -15.314 -25.781  0.00  0.00    -0.269 OA
ATOM     20  O   UNL     1      34.341 -13.420 -21.650  0.00  0.00    -0.269 OA
ATOM     21  N   UNL     1      33.733 -13.982 -23.859  0.00  0.00    -0.222 N 
ATOM     22  C   UNL     1      33.798 -15.129 -24.633  0.00  0.00    +0.255 C 
ATOM     23  C   UNL     1      34.243 -14.190 -22.588  0.00  0.00    +0.255 C 
ATOM     24  C   UNL     1      34.411 -16.152 -23.788  0.00  0.00    +0.058 C 
ATOM     25  C   UNL     1      34.680 -15.584 -22.550  0.00  0.00    +0.058 C 
ATOM     26  C   UNL     1      34.710 -17.470 -24.065  0.00  0.00    +0.005 C 
ATOM     27  C   UNL     1      35.262 -16.304 -21.528  0.00  0.00    +0.005 C 
ATOM     28  C   UNL     1      35.301 -18.219 -23.044  0.00  0.00    +0.000 C 
ATOM     29  C   UNL     1      35.574 -17.642 -21.787  0.00  0.00    +0.000 C 
ENDBRANCH  18  21
ENDBRANCH  17  18
ENDBRANCH   9  17
TORSDOF 4
ENDMDL
MODEL 4
REMARK VINA RESULT:     -10.2     11.363     16.483
REMARK  Name = 25102845
REMARK  4 active torsions:
REMARK  status: ('A' for Active; 'I' for Inactive)
REMARK    1  A    between atoms: C_5  and  C_12
REMARK    2  A    between atoms: C_9  and  C_17
REMARK    3  A    between atoms: C_17  and  C_18
REMARK    4  A    between atoms: C_18  and  N_21
REMARK                            x       y       z     vdW  Elec       q    Type
REMARK                         _______ _______ _______ _____ _____    ______ ____
ROOT
ATOM      1  F   UNL     1      30.519  -5.102 -20.999  0.00  0.00    -0.202 F 
ATOM      2  F   UNL     1      32.689  -5.135 -21.210  0.00  0.00    -0.202 F 
ATOM      3  O   UNL     1      32.781  -9.607 -23.845  0.00  0.00    -0.275 OA
ATOM      4  N   UNL     1      32.093  -7.796 -22.580  0.00  0.00    -0.267 N 
ATOM      5  C   UNL     1      32.203  -6.805 -23.642  0.00  0.00    +0.158 C 
ATOM      6  C   UNL     1      31.409  -5.606 -23.139  0.00  0.00    +0.098 C 
ATOM      7  C   UNL     1      31.540  -5.714 -21.629  0.00  0.00    +0.284 C 
ATOM      8  C   UNL     1      31.571  -7.202 -21.348  0.00  0.00    +0.160 C 
ATOM      9  C   UNL     1      32.342  -9.143 -22.791  0.00  0.00    +0.228 C 
ENDROOT
BRANCH   5  12
ATOM     10  O   UNL     1      34.441  -6.615 -22.870  0.00  0.00    -0.273 OA
ATOM     11  N   UNL     1      34.021  -6.008 -25.060  0.00  0.00    -0.278 N 
ATOM     12  C   UNL     1      33.656  -6.474 -23.809  0.00  0.00    +0.244 C 
ATOM     13  C   UNL     1      35.392  -5.638 -25.381  0.00  0.00    +0.094 C 
ATOM     14  C   UNL     1      33.145  -5.821 -26.212  0.00  0.00    +0.094 C 
ATOM     15  C   UNL     1      35.406  -5.506 -26.896  0.00  0.00    +0.023 C 
ATOM     16  C   UNL     1      33.990  -5.040 -27.209  0.00  0.00    +0.023 C 
ENDBRANCH   5  12
BRANCH   9  17
ATOM     17  C   UNL     1      32.049 -10.050 -21.622  0.00  0.00    +0.107 C 
BRANCH  17  18
ATOM     18  C   UNL     1      31.431 -11.344 -22.109  0.00  0.00    +0.111 C 
BRANCH  18  21
ATOM     19  O   UNL     1      32.167 -12.792 -19.610  0.00  0.00    -0.269 OA
ATOM     20  O   UNL     1      33.013 -12.821 -24.165  0.00  0.00    -0.269 OA
ATOM     21  N   UNL     1      32.315 -12.466 -21.939  0.00  0.00    -0.222 N 
ATOM     22  C   UNL     1      32.584 -13.065 -20.720  0.00  0.00    +0.255 C 
ATOM     23  C   UNL     1      33.001 -13.078 -22.975  0.00  0.00    +0.255 C 
ATOM     24  C   UNL     1      33.512 -14.159 -21.002  0.00  0.00    +0.058 C 
ATOM     25  C   UNL     1      33.765 -14.167 -22.367  0.00  0.00    +0.058 C 
ATOM     26  C   UNL     1      34.094 -15.072 -20.148  0.00  0.00    +0.005 C 
ATOM     27  C   UNL     1      34.611 -15.088 -22.947  0.00  0.00    +0.005 C 
ATOM     28  C   UNL     1      34.954 -16.017 -20.714  0.00  0.00    +0.000 C 
ATOM     29  C   UNL     1      35.212 -16.025 -22.100  0.00  0.00    +0.000 C 
ENDBRANCH  18  21
ENDBRANCH  17  18
ENDBRANCH   9  17
TORSDOF 4
ENDMDL
MODEL 5
REMARK VINA RESULT:     -10.2     11.369     16.498
REMARK  Name = 25102845
REMARK  4 active torsions:
REMARK  status: ('A' for Active; 'I' for Inactive)
REMARK    1  A    between atoms: C_5  and  C_12
REMARK    2  A    between atoms: C_9  and  C_17
REMARK    3  A    between atoms: C_17  and  C_18
REMARK    4  A    between atoms: C_18  and  N_21
REMARK                            x       y       z     vdW  Elec       q    Type
REMARK                         _______ _______ _______ _____ _____    ______ ____
ROOT
ATOM      1  F   UNL     1      30.530  -5.096 -20.998  0.00  0.00    -0.202 F 
ATOM      2  F   UNL     1      32.700  -5.135 -21.207  0.00  0.00    -0.202 F 
ATOM      3  O   UNL     1      32.783  -9.600 -23.852  0.00  0.00    -0.275 OA
ATOM      4  N   UNL     1      32.098  -7.790 -22.583  0.00  0.00    -0.267 N 
ATOM      5  C   UNL     1      32.213  -6.797 -23.643  0.00  0.00    +0.158 C 
ATOM      6  C   UNL     1      31.421  -5.597 -23.139  0.00  0.00    +0.098 C 
ATOM      7  C   UNL     1      31.550  -5.709 -21.629  0.00  0.00    +0.284 C 
ATOM      8  C   UNL     1      31.576  -7.198 -21.351  0.00  0.00    +0.160 C 
ATOM      9  C   UNL     1      32.343  -9.137 -22.798  0.00  0.00    +0.228 C 
ENDROOT
BRANCH   5  12
ATOM     10  O   UNL     1      34.451  -6.621 -22.870  0.00  0.00    -0.273 OA
ATOM     11  N   UNL     1      34.033  -5.995 -25.055  0.00  0.00    -0.278 N 
ATOM     12  C   UNL     1      33.667  -6.470 -23.808  0.00  0.00    +0.244 C 
ATOM     13  C   UNL     1      35.406  -5.628 -25.373  0.00  0.00    +0.094 C 
ATOM     14  C   UNL     1      33.158  -5.797 -26.206  0.00  0.00    +0.094 C 
ATOM     15  C   UNL     1      35.420  -5.484 -26.887  0.00  0.00    +0.023 C 
ATOM     16  C   UNL     1      34.006  -5.011 -27.196  0.00  0.00    +0.023 C 
ENDBRANCH   5  12
BRANCH   9  17
ATOM     17  C   UNL     1      32.046 -10.047 -21.632  0.00  0.00    +0.107 C 
BRANCH  17  18
ATOM     18  C   UNL     1      31.420 -11.335 -22.122  0.00  0.00    +0.111 C 
BRANCH  18  21
ATOM     19  O   UNL     1      32.987 -12.824 -24.175  0.00  0.00    -0.269 OA
ATOM     20  O   UNL     1      32.132 -12.801 -19.621  0.00  0.00    -0.269 OA
ATOM     21  N   UNL     1      32.296 -12.464 -21.951  0.00  0.00    -0.222 N 
ATOM     22  C   UNL     1      32.980 -13.080 -22.985  0.00  0.00    +0.255 C 
ATOM     23  C   UNL     1      32.556 -13.067 -20.731  0.00  0.00    +0.255 C 
ATOM     24  C   UNL     1      33.751 -14.161 -22.373  0.00  0.00    +0.058 C 
ATOM     25  C   UNL     1      33.495 -14.153 -21.009  0.00  0.00    +0.058 C 
ATOM     26  C   UNL     1      34.604 -15.079 -22.949  0.00  0.00    +0.005 C 
ATOM     27  C   UNL     1      34.077 -15.063 -20.152  0.00  0.00    +0.005 C 
ATOM     28  C   UNL     1      35.207 -16.010 -22.099  0.00  0.00    +0.000 C 
ATOM     29  C   UNL     1      34.946 -16.003 -20.714  0.00  0.00    +0.000 C 
ENDBRANCH  18  21
ENDBRANCH  17  18
ENDBRANCH   9  17
TORSDOF 4
ENDMDL
MODEL 6
REMARK VINA RESULT:     -10.2      6.151     11.354
REMARK  Name = 25102845
REMARK  4 active torsions:
REMARK  status: ('A' for Active; 'I' for Inactive)
REMARK    1  A    between atoms: C_5  and  C_12
REMARK    2  A    between atoms: C_9  and  C_17
REMARK    3  A    between atoms: C_17  and  C_18
REMARK    4  A    between atoms: C_18  and  N_21
REMARK                            x       y       z     vdW  Elec       q    Type
REMARK                         _______ _______ _______ _____ _____    ______ ____
ROOT
ATOM      1  F   UNL     1      32.231 -13.960 -18.832  0.00  0.00    -0.202 F 
ATOM      2  F   UNL     1      33.551 -12.516 -19.794  0.00  0.00    -0.202 F 
ATOM      3  O   UNL     1      34.627 -15.574 -23.848  0.00  0.00    -0.275 OA
ATOM      4  N   UNL     1      33.872 -14.785 -21.808  0.00  0.00    -0.267 N 
ATOM      5  C   UNL     1      32.843 -13.904 -22.345  0.00  0.00    +0.158 C 
ATOM      6  C   UNL     1      31.945 -13.585 -21.157  0.00  0.00    +0.098 C 
ATOM      7  C   UNL     1      32.892 -13.684 -19.972  0.00  0.00    +0.284 C 
ATOM      8  C   UNL     1      33.866 -14.783 -20.344  0.00  0.00    +0.160 C 
ATOM      9  C   UNL     1      34.649 -15.599 -22.616  0.00  0.00    +0.228 C 
ENDROOT
BRANCH   5  12
ATOM     10  O   UNL     1      34.692 -12.724 -23.255  0.00  0.00    -0.273 OA
ATOM     11  N   UNL     1      32.755 -11.524 -22.873  0.00  0.00    -0.278 N 
ATOM     12  C   UNL     1      33.523 -12.675 -22.869  0.00  0.00    +0.244 C 
ATOM     13  C   UNL     1      33.270 -10.247 -23.345  0.00  0.00    +0.094 C 
ATOM     14  C   UNL     1      31.368 -11.399 -22.435  0.00  0.00    +0.094 C 
ATOM     15  C   UNL     1      32.038  -9.367 -23.483  0.00  0.00    +0.023 C 
ATOM     16  C   UNL     1      31.118  -9.898 -22.391  0.00  0.00    +0.023 C 
ENDBRANCH   5  12
BRANCH   9  17
ATOM     17  C   UNL     1      35.570 -16.549 -21.890  0.00  0.00    +0.107 C 
BRANCH  17  18
ATOM     18  C   UNL     1      35.438 -17.943 -22.465  0.00  0.00    +0.111 C 
BRANCH  18  21
ATOM     19  O   UNL     1      37.640 -18.832 -20.663  0.00  0.00    -0.269 OA
ATOM     20  O   UNL     1      33.186 -19.700 -21.599  0.00  0.00    -0.269 OA
ATOM     21  N   UNL     1      35.419 -18.953 -21.441  0.00  0.00    -0.222 N 
ATOM     22  C   UNL     1      36.510 -19.285 -20.656  0.00  0.00    +0.255 C 
ATOM     23  C   UNL     1      34.306 -19.713 -21.120  0.00  0.00    +0.255 C 
ATOM     24  C   UNL     1      36.053 -20.337 -19.750  0.00  0.00    +0.058 C 
ATOM     25  C   UNL     1      34.718 -20.597 -20.031  0.00  0.00    +0.058 C 
ATOM     26  C   UNL     1      36.736 -21.019 -18.765  0.00  0.00    +0.005 C 
ATOM     27  C   UNL     1      33.999 -21.550 -19.341  0.00  0.00    +0.005 C 
ATOM     28  C   UNL     1      36.026 -21.989 -18.050  0.00  0.00    +0.000 C 
ATOM     29  C   UNL     1      34.671 -22.252 -18.336  0.00  0.00    +0.000 C 
ENDBRANCH  18  21
ENDBRANCH  17  18
ENDBRANCH   9  17
TORSDOF 4
ENDMDL
MODEL 7
REMARK VINA RESULT:     -10.1      9.784     14.953
REMARK  Name = 25102845
REMARK  4 active torsions:
REMARK  status: ('A' for Active; 'I' for Inactive)
REMARK    1  A    between atoms: C_5  and  C_12
REMARK    2  A    between atoms: C_9  and  C_17
REMARK    3  A    between atoms: C_17  and  C_18
REMARK    4  A    between atoms: C_18  and  N_21
REMARK                            x       y       z     vdW  Elec       q    Type
REMARK                         _______ _______ _______ _____ _____    ______ ____
ROOT
ATOM      1  F   UNL     1      31.191  -9.192 -19.159  0.00  0.00    -0.202 F 
ATOM      2  F   UNL     1      33.086  -8.400 -19.891  0.00  0.00    -0.202 F 
ATOM      3  O   UNL     1      32.683 -10.613 -24.569  0.00  0.00    -0.275 OA
ATOM      4  N   UNL     1      32.332 -10.030 -22.357  0.00  0.00    -0.267 N 
ATOM      5  C   UNL     1      31.889  -8.666 -22.617  0.00  0.00    +0.158 C 
ATOM      6  C   UNL     1      31.217  -8.223 -21.324  0.00  0.00    +0.098 C 
ATOM      7  C   UNL     1      31.947  -9.028 -20.262  0.00  0.00    +0.284 C 
ATOM      8  C   UNL     1      32.271 -10.348 -20.930  0.00  0.00    +0.160 C 
ATOM      9  C   UNL     1      32.642 -10.918 -23.376  0.00  0.00    +0.228 C 
ENDROOT
BRANCH   5  12
ATOM     10  O   UNL     1      34.211  -8.183 -22.500  0.00  0.00    -0.273 OA
ATOM     11  N   UNL     1      32.880  -6.703 -23.673  0.00  0.00    -0.278 N 
ATOM     12  C   UNL     1      33.105  -7.841 -22.919  0.00  0.00    +0.244 C 
ATOM     13  C   UNL     1      33.954  -5.795 -24.046  0.00  0.00    +0.094 C 
ATOM     14  C   UNL     1      31.599  -6.245 -24.202  0.00  0.00    +0.094 C 
ATOM     15  C   UNL     1      33.342  -4.898 -25.111  0.00  0.00    +0.023 C 
ATOM     16  C   UNL     1      31.877  -4.833 -24.698  0.00  0.00    +0.023 C 
ENDBRANCH   5  12
BRANCH   9  17
ATOM     17  C   UNL     1      32.950 -12.328 -22.939  0.00  0.00    +0.107 C 
BRANCH  17  18
ATOM     18  C   UNL     1      33.922 -12.972 -23.905  0.00  0.00    +0.111 C 
BRANCH  18  21
ATOM     19  O   UNL     1      33.708 -15.449 -25.550  0.00  0.00    -0.269 OA
ATOM     20  O   UNL     1      34.928 -14.044 -21.307  0.00  0.00    -0.269 OA
ATOM     21  N   UNL     1      34.228 -14.330 -23.542  0.00  0.00    -0.222 N 
ATOM     22  C   UNL     1      34.092 -15.412 -24.396  0.00  0.00    +0.255 C 
ATOM     23  C   UNL     1      34.696 -14.715 -22.296  0.00  0.00    +0.255 C 
ATOM     24  C   UNL     1      34.519 -16.584 -23.634  0.00  0.00    +0.058 C 
ATOM     25  C   UNL     1      34.884 -16.163 -22.363  0.00  0.00    +0.058 C 
ATOM     26  C   UNL     1      34.583 -17.911 -24.009  0.00  0.00    +0.005 C 
ATOM     27  C   UNL     1      35.332 -17.045 -21.403  0.00  0.00    +0.005 C 
ATOM     28  C   UNL     1      35.036 -18.823 -23.051  0.00  0.00    +0.000 C 
ATOM     29  C   UNL     1      35.406 -18.395 -21.761  0.00  0.00    +0.000 C 
ENDBRANCH  18  21
ENDBRANCH  17  18
ENDBRANCH   9  17
TORSDOF 4
ENDMDL
MODEL 8
REMARK VINA RESULT:     -10.1      9.706     14.840
REMARK  Name = 25102845
REMARK  4 active torsions:
REMARK  status: ('A' for Active; 'I' for Inactive)
REMARK    1  A    between atoms: C_5  and  C_12
REMARK    2  A    between atoms: C_9  and  C_17
REMARK    3  A    between atoms: C_17  and  C_18
REMARK    4  A    between atoms: C_18  and  N_21
REMARK                            x       y       z     vdW  Elec       q    Type
REMARK                         _______ _______ _______ _____ _____    ______ ____
ROOT
ATOM      1  F   UNL     1      31.177  -9.256 -19.129  0.00  0.00    -0.202 F 
ATOM      2  F   UNL     1      33.060  -8.457 -19.883  0.00  0.00    -0.202 F 
ATOM      3  O   UNL     1      32.646 -10.735 -24.529  0.00  0.00    -0.275 OA
ATOM      4  N   UNL     1      32.305 -10.126 -22.323  0.00  0.00    -0.267 N 
ATOM      5  C   UNL     1      31.848  -8.770 -22.598  0.00  0.00    +0.158 C 
ATOM      6  C   UNL     1      31.180  -8.315 -21.307  0.00  0.00    +0.098 C 
ATOM      7  C   UNL     1      31.924  -9.100 -20.239  0.00  0.00    +0.284 C 
ATOM      8  C   UNL     1      32.255 -10.426 -20.891  0.00  0.00    +0.160 C 
ATOM      9  C   UNL     1      32.615 -11.024 -23.332  0.00  0.00    +0.228 C 
ENDROOT
BRANCH   5  12
ATOM     10  O   UNL     1      34.166  -8.262 -22.497  0.00  0.00    -0.273 OA
ATOM     11  N   UNL     1      32.816  -6.817 -23.693  0.00  0.00    -0.278 N 
ATOM     12  C   UNL     1      33.054  -7.939 -22.919  0.00  0.00    +0.244 C 
ATOM     13  C   UNL     1      33.880  -5.904 -24.086  0.00  0.00    +0.094 C 
ATOM     14  C   UNL     1      31.529  -6.381 -24.226  0.00  0.00    +0.094 C 
ATOM     15  C   UNL     1      33.256  -5.033 -25.165  0.00  0.00    +0.023 C 
ATOM     16  C   UNL     1      31.792  -4.975 -24.748  0.00  0.00    +0.023 C 
ENDBRANCH   5  12
BRANCH   9  17
ATOM     17  C   UNL     1      32.938 -12.426 -22.878  0.00  0.00    +0.107 C 
BRANCH  17  18
ATOM     18  C   UNL     1      34.011 -13.026 -23.763  0.00  0.00    +0.111 C 
BRANCH  18  21
ATOM     19  O   UNL     1      34.888 -14.120 -21.132  0.00  0.00    -0.269 OA
ATOM     20  O   UNL     1      33.938 -15.482 -25.457  0.00  0.00    -0.269 OA
ATOM     21  N   UNL     1      34.315 -14.385 -23.403  0.00  0.00    -0.222 N 
ATOM     22  C   UNL     1      34.715 -14.783 -22.138  0.00  0.00    +0.255 C 
ATOM     23  C   UNL     1      34.244 -15.456 -24.279  0.00  0.00    +0.255 C 
ATOM     24  C   UNL     1      34.905 -16.230 -22.210  0.00  0.00    +0.058 C 
ATOM     25  C   UNL     1      34.620 -16.638 -23.506  0.00  0.00    +0.058 C 
ATOM     26  C   UNL     1      35.296 -17.124 -21.234  0.00  0.00    +0.005 C 
ATOM     27  C   UNL     1      34.711 -17.958 -23.892  0.00  0.00    +0.005 C 
ATOM     28  C   UNL     1      35.393 -18.469 -21.603  0.00  0.00    +0.000 C 
ATOM     29  C   UNL     1      35.104 -18.882 -22.919  0.00  0.00    +0.000 C 
ENDBRANCH  18  21
ENDBRANCH  17  18
ENDBRANCH   9  17
TORSDOF 4
ENDMDL
MODEL 9
REMARK VINA RESULT:      -9.6     10.345     14.366
REMARK  Name = 25102845
REMARK  4 active torsions:
REMARK  status: ('A' for Active; 'I' for Inactive)
REMARK    1  A    between atoms: C_5  and  C_12
REMARK    2  A    between atoms: C_9  and  C_17
REMARK    3  A    between atoms: C_17  and  C_18
REMARK    4  A    between atoms: C_18  and  N_21
REMARK                            x       y       z     vdW  Elec       q    Type
REMARK                         _______ _______ _______ _____ _____    ______ ____
ROOT
ATOM      1  F   UNL     1      32.327 -13.191 -19.358  0.00  0.00    -0.202 F 
ATOM      2  F   UNL     1      31.580 -14.135 -21.175  0.00  0.00    -0.202 F 
ATOM      3  O   UNL     1      34.558 -11.318 -24.360  0.00  0.00    -0.275 OA
ATOM      4  N   UNL     1      33.458 -12.121 -22.489  0.00  0.00    -0.267 N 
ATOM      5  C   UNL     1      34.204 -13.368 -22.386  0.00  0.00    +0.158 C 
ATOM      6  C   UNL     1      33.919 -13.875 -20.978  0.00  0.00    +0.098 C 
ATOM      7  C   UNL     1      32.538 -13.316 -20.682  0.00  0.00    +0.284 C 
ATOM      8  C   UNL     1      32.500 -11.979 -21.392  0.00  0.00    +0.160 C 
ATOM      9  C   UNL     1      33.742 -11.163 -23.450  0.00  0.00    +0.228 C 
ENDROOT
BRANCH   5  12
ATOM     10  O   UNL     1      32.794 -13.938 -24.210  0.00  0.00    -0.273 OA
ATOM     11  N   UNL     1      34.228 -15.573 -23.429  0.00  0.00    -0.278 N 
ATOM     12  C   UNL     1      33.672 -14.306 -23.429  0.00  0.00    +0.244 C 
ATOM     13  C   UNL     1      33.816 -16.601 -24.374  0.00  0.00    +0.094 C 
ATOM     14  C   UNL     1      35.270 -16.070 -22.536  0.00  0.00    +0.094 C 
ATOM     15  C   UNL     1      34.876 -17.684 -24.245  0.00  0.00    +0.023 C 
ATOM     16  C   UNL     1      35.299 -17.571 -22.786  0.00  0.00    +0.023 C 
ENDBRANCH   5  12
BRANCH   9  17
ATOM     17  C   UNL     1      32.968  -9.873 -23.331  0.00  0.00    +0.107 C 
BRANCH  17  18
ATOM     18  C   UNL     1      33.921  -8.700 -23.246  0.00  0.00    +0.111 C 
BRANCH  18  21
ATOM     19  O   UNL     1      32.653  -6.998 -25.339  0.00  0.00    -0.269 OA
ATOM     20  O   UNL     1      33.390  -7.125 -20.766  0.00  0.00    -0.269 OA
ATOM     21  N   UNL     1      33.229  -7.447 -23.098  0.00  0.00    -0.222 N 
ATOM     22  C   UNL     1      32.673  -6.739 -24.150  0.00  0.00    +0.255 C 
ATOM     23  C   UNL     1      33.038  -6.803 -21.887  0.00  0.00    +0.255 C 
ATOM     24  C   UNL     1      32.066  -5.547 -23.559  0.00  0.00    +0.058 C 
ATOM     25  C   UNL     1      32.287  -5.586 -22.190  0.00  0.00    +0.058 C 
ATOM     26  C   UNL     1      31.381  -4.510 -24.158  0.00  0.00    +0.005 C 
ATOM     27  C   UNL     1      31.834  -4.591 -21.349  0.00  0.00    +0.005 C 
ATOM     28  C   UNL     1      30.911  -3.491 -23.325  0.00  0.00    +0.000 C 
ATOM     29  C   UNL     1      31.135  -3.530 -21.934  0.00  0.00    +0.000 C 
ENDBRANCH  18  21
ENDBRANCH  17  18
ENDBRANCH   9  17
TORSDOF 4
ENDMDL
