MODEL 1
REMARK VINA RESULT:     -11.7      0.000      0.000
REMARK  Name = 66645351
REMARK  11 active torsions:
REMARK  status: ('A' for Active; 'I' for Inactive)
REMARK    1  A    between atoms: C_2  and  C_4
REMARK    2  A    between atoms: C_2  and  C_18
REMARK    3  A    between atoms: C_3  and  C_5
REMARK    4  A    between atoms: C_6  and  O_11
REMARK    5  A    between atoms: C_8  and  O_13
REMARK    6  A    between atoms: O_13  and  S_14
REMARK    7  A    between atoms: C_18  and  C_20
REMARK    8  A    between atoms: C_20  and  C_22
REMARK    9  A    between atoms: C_21  and  C_23
REMARK   10  A    between atoms: C_25  and  O_29
REMARK   11  A    between atoms: C_27  and  O_31
REMARK                            x       y       z     vdW  Elec       q    Type
REMARK                         _______ _______ _______ _____ _____    ______ ____
ROOT
ATOM      1  O   UNL     1      32.691 -21.700 -19.628  0.00  0.00    -0.291 OA
ATOM      2  C   UNL     1      33.674 -22.135 -19.034  0.00  0.00    +0.181 C 
ENDROOT
BRANCH   2   4
ATOM      3  C   UNL     1      34.633 -22.773 -16.861  0.00  0.00    +0.003 C 
ATOM      4  C   UNL     1      33.565 -22.730 -17.669  0.00  0.00    +0.038 C 
BRANCH   3   5
ATOM      5  C   UNL     1      34.629 -23.330 -15.495  0.00  0.00    +0.003 C 
ATOM      6  C   UNL     1      33.469 -23.782 -13.425  0.00  0.00    +0.175 C 
ATOM      7  C   UNL     1      33.475 -23.256 -14.717  0.00  0.00    +0.040 C 
ATOM      8  C   UNL     1      34.620 -24.382 -12.912  0.00  0.00    +0.209 C 
ATOM      9  C   UNL     1      35.779 -23.929 -14.983  0.00  0.00    +0.003 C 
ATOM     10  C   UNL     1      35.775 -24.455 -13.691  0.00  0.00    +0.043 C 
BRANCH   6  11
ATOM     11  O   UNL     1      32.335 -23.705 -12.674  0.00  0.00    -0.468 OA
ATOM     12  C   UNL     1      31.136 -23.331 -13.348  0.00  0.00    +0.253 C 
ENDBRANCH   6  11
BRANCH   8  13
ATOM     13  O   UNL     1      34.628 -24.899 -11.652  0.00  0.00    -0.319 OA
BRANCH  13  14
ATOM     14  S   UNL     1      35.959 -24.683 -10.713  0.00  0.00    +0.282 S 
ATOM     15  O   UNL     1      35.383 -24.784  -9.188  0.00  0.00    -0.012 OA
ATOM     16  O   UNL     1      36.869 -25.795 -10.919  0.00  0.00    -0.105 OA
ATOM     17  O   UNL     1      36.423 -23.322 -10.911  0.00  0.00    -0.105 OA
ENDBRANCH  13  14
ENDBRANCH   8  13
ENDBRANCH   3   5
ENDBRANCH   2   4
BRANCH   2  18
ATOM     18  C   UNL     1      35.073 -22.065 -19.611  0.00  0.00    +0.138 C 
BRANCH  18  20
ATOM     19  O   UNL     1      36.520 -20.240 -18.990  0.00  0.00    -0.291 OA
ATOM     20  C   UNL     1      35.652 -20.670 -19.745  0.00  0.00    +0.181 C 
BRANCH  20  22
ATOM     21  C   UNL     1      35.768 -18.808 -21.349  0.00  0.00    +0.003 C 
ATOM     22  C   UNL     1      35.068 -19.828 -20.831  0.00  0.00    +0.038 C 
BRANCH  21  23
ATOM     23  C   UNL     1      35.282 -17.915 -22.414  0.00  0.00    +0.003 C 
ATOM     24  C   UNL     1      35.344 -16.531 -22.247  0.00  0.00    +0.040 C 
ATOM     25  C   UNL     1      34.883 -15.684 -23.255  0.00  0.00    +0.172 C 
ATOM     26  C   UNL     1      34.757 -18.451 -23.591  0.00  0.00    +0.003 C 
ATOM     27  C   UNL     1      34.359 -16.222 -24.431  0.00  0.00    +0.168 C 
ATOM     28  C   UNL     1      34.295 -17.605 -24.598  0.00  0.00    +0.040 C 
BRANCH  25  29
ATOM     29  O   UNL     1      34.950 -14.335 -23.080  0.00  0.00    -0.468 OA
ATOM     30  C   UNL     1      33.982 -13.746 -22.214  0.00  0.00    +0.253 C 
ENDBRANCH  25  29
BRANCH  27  31
ATOM     31  O   UNL     1      33.904 -15.406 -25.423  0.00  0.00    -0.503 OA
ATOM     32  H   UNL     1      33.450 -14.615 -25.208  0.00  0.00    +0.292 HD
ENDBRANCH  27  31
ENDBRANCH  21  23
ENDBRANCH  20  22
ENDBRANCH  18  20
ENDBRANCH   2  18
TORSDOF 11
ENDMDL
MODEL 2
REMARK VINA RESULT:     -11.2      1.353      2.707
REMARK  Name = 66645351
REMARK  11 active torsions:
REMARK  status: ('A' for Active; 'I' for Inactive)
REMARK    1  A    between atoms: C_2  and  C_4
REMARK    2  A    between atoms: C_2  and  C_18
REMARK    3  A    between atoms: C_3  and  C_5
REMARK    4  A    between atoms: C_6  and  O_11
REMARK    5  A    between atoms: C_8  and  O_13
REMARK    6  A    between atoms: O_13  and  S_14
REMARK    7  A    between atoms: C_18  and  C_20
REMARK    8  A    between atoms: C_20  and  C_22
REMARK    9  A    between atoms: C_21  and  C_23
REMARK   10  A    between atoms: C_25  and  O_29
REMARK   11  A    between atoms: C_27  and  O_31
REMARK                            x       y       z     vdW  Elec       q    Type
REMARK                         _______ _______ _______ _____ _____    ______ ____
ROOT
ATOM      1  O   UNL     1      37.170 -19.878 -18.778  0.00  0.00    -0.291 OA
ATOM      2  C   UNL     1      36.612 -20.947 -18.543  0.00  0.00    +0.181 C 
ENDROOT
BRANCH   2   4
ATOM      3  C   UNL     1      35.837 -22.414 -16.726  0.00  0.00    +0.003 C 
ATOM      4  C   UNL     1      36.821 -21.673 -17.255  0.00  0.00    +0.038 C 
BRANCH   3   5
ATOM      5  C   UNL     1      35.945 -23.174 -15.467  0.00  0.00    +0.003 C 
ATOM      6  C   UNL     1      37.295 -24.080 -13.680  0.00  0.00    +0.175 C 
ATOM      7  C   UNL     1      37.191 -23.360 -14.871  0.00  0.00    +0.040 C 
ATOM      8  C   UNL     1      36.150 -24.613 -13.086  0.00  0.00    +0.209 C 
ATOM      9  C   UNL     1      34.800 -23.706 -14.874  0.00  0.00    +0.003 C 
ATOM     10  C   UNL     1      34.903 -24.426 -13.683  0.00  0.00    +0.043 C 
BRANCH   6  11
ATOM     11  O   UNL     1      38.517 -24.255 -13.106  0.00  0.00    -0.468 OA
ATOM     12  C   UNL     1      39.271 -25.392 -13.521  0.00  0.00    +0.253 C 
ENDBRANCH   6  11
BRANCH   8  13
ATOM     13  O   UNL     1      36.237 -25.318 -11.924  0.00  0.00    -0.319 OA
BRANCH  13  14
ATOM     14  S   UNL     1      35.883 -24.562 -10.508  0.00  0.00    +0.282 S 
ATOM     15  O   UNL     1      34.711 -23.499 -10.914  0.00  0.00    -0.012 OA
ATOM     16  O   UNL     1      35.309 -25.527  -9.588  0.00  0.00    -0.105 OA
ATOM     17  O   UNL     1      37.049 -23.792 -10.116  0.00  0.00    -0.105 OA
ENDBRANCH  13  14
ENDBRANCH   8  13
ENDBRANCH   3   5
ENDBRANCH   2   4
BRANCH   2  18
ATOM     18  C   UNL     1      35.711 -21.635 -19.547  0.00  0.00    +0.138 C 
BRANCH  18  20
ATOM     19  O   UNL     1      33.376 -21.602 -18.950  0.00  0.00    -0.291 OA
ATOM     20  C   UNL     1      34.289 -21.113 -19.610  0.00  0.00    +0.181 C 
BRANCH  20  22
ATOM     21  C   UNL     1      34.900 -19.774 -21.581  0.00  0.00    +0.003 C 
ATOM     22  C   UNL     1      34.053 -19.989 -20.564  0.00  0.00    +0.038 C 
BRANCH  21  23
ATOM     23  C   UNL     1      34.762 -18.691 -22.570  0.00  0.00    +0.003 C 
ATOM     24  C   UNL     1      35.168 -17.396 -22.248  0.00  0.00    +0.040 C 
ATOM     25  C   UNL     1      35.038 -16.370 -23.184  0.00  0.00    +0.172 C 
ATOM     26  C   UNL     1      34.224 -18.960 -23.829  0.00  0.00    +0.003 C 
ATOM     27  C   UNL     1      34.500 -16.640 -24.443  0.00  0.00    +0.168 C 
ATOM     28  C   UNL     1      34.092 -17.934 -24.765  0.00  0.00    +0.040 C 
BRANCH  25  29
ATOM     29  O   UNL     1      35.438 -15.109 -22.858  0.00  0.00    -0.468 OA
ATOM     30  C   UNL     1      34.416 -14.171 -22.528  0.00  0.00    +0.253 C 
ENDBRANCH  25  29
BRANCH  27  31
ATOM     31  O   UNL     1      34.366 -15.647 -25.366  0.00  0.00    -0.503 OA
ATOM     32  H   UNL     1      33.845 -15.786 -26.133  0.00  0.00    +0.292 HD
ENDBRANCH  27  31
ENDBRANCH  21  23
ENDBRANCH  20  22
ENDBRANCH  18  20
ENDBRANCH   2  18
TORSDOF 11
ENDMDL
MODEL 3
REMARK VINA RESULT:     -10.9      4.211      6.670
REMARK  Name = 66645351
REMARK  11 active torsions:
REMARK  status: ('A' for Active; 'I' for Inactive)
REMARK    1  A    between atoms: C_2  and  C_4
REMARK    2  A    between atoms: C_2  and  C_18
REMARK    3  A    between atoms: C_3  and  C_5
REMARK    4  A    between atoms: C_6  and  O_11
REMARK    5  A    between atoms: C_8  and  O_13
REMARK    6  A    between atoms: O_13  and  S_14
REMARK    7  A    between atoms: C_18  and  C_20
REMARK    8  A    between atoms: C_20  and  C_22
REMARK    9  A    between atoms: C_21  and  C_23
REMARK   10  A    between atoms: C_25  and  O_29
REMARK   11  A    between atoms: C_27  and  O_31
REMARK                            x       y       z     vdW  Elec       q    Type
REMARK                         _______ _______ _______ _____ _____    ______ ____
ROOT
ATOM      1  O   UNL     1      30.759 -23.810 -12.398  0.00  0.00    -0.291 OA
ATOM      2  C   UNL     1      31.142 -24.388 -13.412  0.00  0.00    +0.181 C 
ENDROOT
BRANCH   2   4
ATOM      3  C   UNL     1      33.599 -24.289 -13.471  0.00  0.00    +0.003 C 
ATOM      4  C   UNL     1      32.486 -25.034 -13.487  0.00  0.00    +0.038 C 
BRANCH   3   5
ATOM      5  C   UNL     1      34.970 -24.829 -13.532  0.00  0.00    +0.003 C 
ATOM      6  C   UNL     1      37.130 -25.172 -12.506  0.00  0.00    +0.175 C 
ATOM      7  C   UNL     1      35.833 -24.662 -12.449  0.00  0.00    +0.040 C 
ATOM      8  C   UNL     1      37.564 -25.849 -13.646  0.00  0.00    +0.209 C 
ATOM      9  C   UNL     1      35.403 -25.505 -14.672  0.00  0.00    +0.003 C 
ATOM     10  C   UNL     1      36.700 -26.016 -14.729  0.00  0.00    +0.043 C 
BRANCH   6  11
ATOM     11  O   UNL     1      37.964 -25.004 -11.442  0.00  0.00    -0.468 OA
ATOM     12  C   UNL     1      38.410 -23.677 -11.171  0.00  0.00    +0.253 C 
ENDBRANCH   6  11
BRANCH   8  13
ATOM     13  O   UNL     1      38.828 -26.351 -13.714  0.00  0.00    -0.319 OA
BRANCH  13  14
ATOM     14  S   UNL     1      40.015 -25.429 -14.379  0.00  0.00    +0.282 S 
ATOM     15  O   UNL     1      39.228 -24.098 -14.904  0.00  0.00    -0.012 OA
ATOM     16  O   UNL     1      40.936 -25.019 -13.334  0.00  0.00    -0.105 OA
ATOM     17  O   UNL     1      40.513 -26.127 -15.549  0.00  0.00    -0.105 OA
ENDBRANCH  13  14
ENDBRANCH   8  13
ENDBRANCH   3   5
ENDBRANCH   2   4
BRANCH   2  18
ATOM     18  C   UNL     1      30.309 -24.454 -14.677  0.00  0.00    +0.138 C 
BRANCH  18  20
ATOM     19  O   UNL     1      28.854 -22.609 -15.208  0.00  0.00    -0.291 OA
ATOM     20  C   UNL     1      29.968 -23.116 -15.302  0.00  0.00    +0.181 C 
BRANCH  20  22
ATOM     21  C   UNL     1      32.060 -23.203 -16.593  0.00  0.00    +0.003 C 
ATOM     22  C   UNL     1      31.063 -22.467 -16.082  0.00  0.00    +0.038 C 
BRANCH  21  23
ATOM     23  C   UNL     1      33.188 -22.661 -17.369  0.00  0.00    +0.003 C 
ATOM     24  C   UNL     1      34.492 -22.792 -16.890  0.00  0.00    +0.040 C 
ATOM     25  C   UNL     1      35.561 -22.279 -17.624  0.00  0.00    +0.172 C 
ATOM     26  C   UNL     1      32.954 -22.014 -18.583  0.00  0.00    +0.003 C 
ATOM     27  C   UNL     1      35.326 -21.633 -18.838  0.00  0.00    +0.168 C 
ATOM     28  C   UNL     1      34.023 -21.500 -19.317  0.00  0.00    +0.040 C 
BRANCH  25  29
ATOM     29  O   UNL     1      36.830 -22.414 -17.146  0.00  0.00    -0.468 OA
ATOM     30  C   UNL     1      37.217 -21.543 -16.085  0.00  0.00    +0.253 C 
ENDBRANCH  25  29
BRANCH  27  31
ATOM     31  O   UNL     1      36.362 -21.126 -19.565  0.00  0.00    -0.503 OA
ATOM     32  H   UNL     1      37.242 -21.229 -19.260  0.00  0.00    +0.292 HD
ENDBRANCH  27  31
ENDBRANCH  21  23
ENDBRANCH  20  22
ENDBRANCH  18  20
ENDBRANCH   2  18
TORSDOF 11
ENDMDL
MODEL 4
REMARK VINA RESULT:     -10.7      5.092     12.526
REMARK  Name = 66645351
REMARK  11 active torsions:
REMARK  status: ('A' for Active; 'I' for Inactive)
REMARK    1  A    between atoms: C_2  and  C_4
REMARK    2  A    between atoms: C_2  and  C_18
REMARK    3  A    between atoms: C_3  and  C_5
REMARK    4  A    between atoms: C_6  and  O_11
REMARK    5  A    between atoms: C_8  and  O_13
REMARK    6  A    between atoms: O_13  and  S_14
REMARK    7  A    between atoms: C_18  and  C_20
REMARK    8  A    between atoms: C_20  and  C_22
REMARK    9  A    between atoms: C_21  and  C_23
REMARK   10  A    between atoms: C_25  and  O_29
REMARK   11  A    between atoms: C_27  and  O_31
REMARK                            x       y       z     vdW  Elec       q    Type
REMARK                         _______ _______ _______ _____ _____    ______ ____
ROOT
ATOM      1  O   UNL     1      35.298 -16.681 -20.488  0.00  0.00    -0.291 OA
ATOM      2  C   UNL     1      35.206 -16.466 -21.694  0.00  0.00    +0.181 C 
ENDROOT
BRANCH   2   4
ATOM      3  C   UNL     1      33.925 -14.387 -21.397  0.00  0.00    +0.003 C 
ATOM      4  C   UNL     1      34.561 -15.228 -22.224  0.00  0.00    +0.038 C 
BRANCH   3   5
ATOM      5  C   UNL     1      33.264 -13.138 -21.818  0.00  0.00    +0.003 C 
ATOM      6  C   UNL     1      31.586 -11.437 -21.461  0.00  0.00    +0.175 C 
ATOM      7  C   UNL     1      32.213 -12.619 -21.064  0.00  0.00    +0.040 C 
ATOM      8  C   UNL     1      32.013 -10.775 -22.614  0.00  0.00    +0.209 C 
ATOM      9  C   UNL     1      33.691 -12.477 -22.969  0.00  0.00    +0.003 C 
ATOM     10  C   UNL     1      33.065 -11.296 -23.367  0.00  0.00    +0.043 C 
BRANCH   6  11
ATOM     11  O   UNL     1      30.560 -10.938 -20.717  0.00  0.00    -0.468 OA
ATOM     12  C   UNL     1      30.904 -10.280 -19.499  0.00  0.00    +0.253 C 
ENDBRANCH   6  11
BRANCH   8  13
ATOM     13  O   UNL     1      31.410  -9.621 -23.012  0.00  0.00    -0.319 OA
BRANCH  13  14
ATOM     14  S   UNL     1      32.193  -8.194 -22.781  0.00  0.00    +0.282 S 
ATOM     15  O   UNL     1      30.986  -7.122 -22.537  0.00  0.00    -0.012 OA
ATOM     16  O   UNL     1      32.971  -8.275 -21.559  0.00  0.00    -0.105 OA
ATOM     17  O   UNL     1      32.841  -7.840 -24.030  0.00  0.00    -0.105 OA
ENDBRANCH  13  14
ENDBRANCH   8  13
ENDBRANCH   3   5
ENDBRANCH   2   4
BRANCH   2  18
ATOM     18  C   UNL     1      35.694 -17.451 -22.737  0.00  0.00    +0.138 C 
BRANCH  18  20
ATOM     19  O   UNL     1      34.085 -18.925 -23.761  0.00  0.00    -0.291 OA
ATOM     20  C   UNL     1      34.887 -18.730 -22.852  0.00  0.00    +0.181 C 
BRANCH  20  22
ATOM     21  C   UNL     1      34.162 -19.902 -20.814  0.00  0.00    +0.003 C 
ATOM     22  C   UNL     1      35.095 -19.727 -21.761  0.00  0.00    +0.038 C 
BRANCH  21  23
ATOM     23  C   UNL     1      34.273 -20.852 -19.694  0.00  0.00    +0.003 C 
ATOM     24  C   UNL     1      35.517 -21.108 -19.117  0.00  0.00    +0.040 C 
ATOM     25  C   UNL     1      35.623 -22.007 -18.056  0.00  0.00    +0.172 C 
ATOM     26  C   UNL     1      33.134 -21.498 -19.211  0.00  0.00    +0.003 C 
ATOM     27  C   UNL     1      34.484 -22.653 -17.573  0.00  0.00    +0.168 C 
ATOM     28  C   UNL     1      33.240 -22.399 -18.151  0.00  0.00    +0.040 C 
BRANCH  25  29
ATOM     29  O   UNL     1      36.843 -22.248 -17.500  0.00  0.00    -0.468 OA
ATOM     30  C   UNL     1      37.262 -21.374 -16.455  0.00  0.00    +0.253 C 
ENDBRANCH  25  29
BRANCH  27  31
ATOM     31  O   UNL     1      34.574 -23.534 -16.538  0.00  0.00    -0.503 OA
ATOM     32  H   UNL     1      35.413 -23.842 -16.257  0.00  0.00    +0.292 HD
ENDBRANCH  27  31
ENDBRANCH  21  23
ENDBRANCH  20  22
ENDBRANCH  18  20
ENDBRANCH   2  18
TORSDOF 11
ENDMDL
MODEL 5
REMARK VINA RESULT:     -10.6      4.702     11.950
REMARK  Name = 66645351
REMARK  11 active torsions:
REMARK  status: ('A' for Active; 'I' for Inactive)
REMARK    1  A    between atoms: C_2  and  C_4
REMARK    2  A    between atoms: C_2  and  C_18
REMARK    3  A    between atoms: C_3  and  C_5
REMARK    4  A    between atoms: C_6  and  O_11
REMARK    5  A    between atoms: C_8  and  O_13
REMARK    6  A    between atoms: O_13  and  S_14
REMARK    7  A    between atoms: C_18  and  C_20
REMARK    8  A    between atoms: C_20  and  C_22
REMARK    9  A    between atoms: C_21  and  C_23
REMARK   10  A    between atoms: C_25  and  O_29
REMARK   11  A    between atoms: C_27  and  O_31
REMARK                            x       y       z     vdW  Elec       q    Type
REMARK                         _______ _______ _______ _____ _____    ______ ____
ROOT
ATOM      1  O   UNL     1      35.007 -16.351 -25.180  0.00  0.00    -0.291 OA
ATOM      2  C   UNL     1      34.645 -16.246 -24.011  0.00  0.00    +0.181 C 
ENDROOT
BRANCH   2   4
ATOM      3  C   UNL     1      33.959 -14.652 -22.267  0.00  0.00    +0.003 C 
ATOM      4  C   UNL     1      33.857 -15.070 -23.536  0.00  0.00    +0.038 C 
BRANCH   3   5
ATOM      5  C   UNL     1      33.232 -13.500 -21.704  0.00  0.00    +0.003 C 
ATOM      6  C   UNL     1      32.160 -11.355 -22.000  0.00  0.00    +0.175 C 
ATOM      7  C   UNL     1      32.847 -12.447 -22.532  0.00  0.00    +0.040 C 
ATOM      8  C   UNL     1      31.858 -11.318 -20.638  0.00  0.00    +0.209 C 
ATOM      9  C   UNL     1      32.931 -13.463 -20.343  0.00  0.00    +0.003 C 
ATOM     10  C   UNL     1      32.244 -12.372 -19.810  0.00  0.00    +0.043 C 
BRANCH   6  11
ATOM     11  O   UNL     1      31.788 -10.332 -22.820  0.00  0.00    -0.468 OA
ATOM     12  C   UNL     1      32.703  -9.960 -23.848  0.00  0.00    +0.253 C 
ENDBRANCH   6  11
BRANCH   8  13
ATOM     13  O   UNL     1      31.188 -10.258 -20.106  0.00  0.00    -0.319 OA
BRANCH  13  14
ATOM     14  S   UNL     1      32.046  -9.060 -19.378  0.00  0.00    +0.282 S 
ATOM     15  O   UNL     1      30.897  -8.074 -18.766  0.00  0.00    -0.012 OA
ATOM     16  O   UNL     1      32.790  -9.621 -18.265  0.00  0.00    -0.105 OA
ATOM     17  O   UNL     1      32.742  -8.323 -20.416  0.00  0.00    -0.105 OA
ENDBRANCH  13  14
ENDBRANCH   8  13
ENDBRANCH   3   5
ENDBRANCH   2   4
BRANCH   2  18
ATOM     18  C   UNL     1      35.004 -17.268 -22.952  0.00  0.00    +0.138 C 
BRANCH  18  20
ATOM     19  O   UNL     1      34.089 -19.019 -24.332  0.00  0.00    -0.291 OA
ATOM     20  C   UNL     1      34.639 -18.703 -23.281  0.00  0.00    +0.181 C 
BRANCH  20  22
ATOM     21  C   UNL     1      34.313 -19.673 -21.043  0.00  0.00    +0.003 C 
ATOM     22  C   UNL     1      34.950 -19.709 -22.223  0.00  0.00    +0.038 C 
BRANCH  21  23
ATOM     23  C   UNL     1      34.552 -20.612 -19.934  0.00  0.00    +0.003 C 
ATOM     24  C   UNL     1      33.502 -21.382 -19.434  0.00  0.00    +0.040 C 
ATOM     25  C   UNL     1      33.726 -22.272 -18.384  0.00  0.00    +0.172 C 
ATOM     26  C   UNL     1      35.827 -20.731 -19.381  0.00  0.00    +0.003 C 
ATOM     27  C   UNL     1      35.002 -22.390 -17.832  0.00  0.00    +0.168 C 
ATOM     28  C   UNL     1      36.052 -21.619 -18.330  0.00  0.00    +0.040 C 
BRANCH  25  29
ATOM     29  O   UNL     1      32.693 -23.019 -17.904  0.00  0.00    -0.468 OA
ATOM     30  C   UNL     1      32.004 -22.514 -16.762  0.00  0.00    +0.253 C 
ENDBRANCH  25  29
BRANCH  27  31
ATOM     31  O   UNL     1      35.235 -23.254 -16.804  0.00  0.00    -0.503 OA
ATOM     32  H   UNL     1      35.764 -24.016 -16.943  0.00  0.00    +0.292 HD
ENDBRANCH  27  31
ENDBRANCH  21  23
ENDBRANCH  20  22
ENDBRANCH  18  20
ENDBRANCH   2  18
TORSDOF 11
ENDMDL
MODEL 6
REMARK VINA RESULT:     -10.6      1.615      2.078
REMARK  Name = 66645351
REMARK  11 active torsions:
REMARK  status: ('A' for Active; 'I' for Inactive)
REMARK    1  A    between atoms: C_2  and  C_4
REMARK    2  A    between atoms: C_2  and  C_18
REMARK    3  A    between atoms: C_3  and  C_5
REMARK    4  A    between atoms: C_6  and  O_11
REMARK    5  A    between atoms: C_8  and  O_13
REMARK    6  A    between atoms: O_13  and  S_14
REMARK    7  A    between atoms: C_18  and  C_20
REMARK    8  A    between atoms: C_20  and  C_22
REMARK    9  A    between atoms: C_21  and  C_23
REMARK   10  A    between atoms: C_25  and  O_29
REMARK   11  A    between atoms: C_27  and  O_31
REMARK                            x       y       z     vdW  Elec       q    Type
REMARK                         _______ _______ _______ _____ _____    ______ ____
ROOT
ATOM      1  O   UNL     1      33.308 -20.705 -20.028  0.00  0.00    -0.291 OA
ATOM      2  C   UNL     1      34.408 -21.095 -19.646  0.00  0.00    +0.181 C 
ENDROOT
BRANCH   2   4
ATOM      3  C   UNL     1      35.775 -21.855 -17.747  0.00  0.00    +0.003 C 
ATOM      4  C   UNL     1      34.578 -21.813 -18.348  0.00  0.00    +0.038 C 
BRANCH   3   5
ATOM      5  C   UNL     1      36.045 -22.529 -16.463  0.00  0.00    +0.003 C 
ATOM      6  C   UNL     1      35.262 -23.794 -14.560  0.00  0.00    +0.175 C 
ATOM      7  C   UNL     1      35.008 -23.157 -15.775  0.00  0.00    +0.040 C 
ATOM      8  C   UNL     1      36.555 -23.803 -14.034  0.00  0.00    +0.209 C 
ATOM      9  C   UNL     1      37.337 -22.537 -15.938  0.00  0.00    +0.003 C 
ATOM     10  C   UNL     1      37.592 -23.174 -14.724  0.00  0.00    +0.043 C 
BRANCH   6  11
ATOM     11  O   UNL     1      34.241 -24.405 -13.897  0.00  0.00    -0.468 OA
ATOM     12  C   UNL     1      32.938 -23.849 -14.059  0.00  0.00    +0.253 C 
ENDBRANCH   6  11
BRANCH   8  13
ATOM     13  O   UNL     1      36.816 -24.421 -12.849  0.00  0.00    -0.319 OA
BRANCH  13  14
ATOM     14  S   UNL     1      37.561 -25.886 -12.865  0.00  0.00    +0.282 S 
ATOM     15  O   UNL     1      37.160 -26.544 -11.425  0.00  0.00    -0.012 OA
ATOM     16  O   UNL     1      36.972 -26.705 -13.908  0.00  0.00    -0.105 OA
ATOM     17  O   UNL     1      38.994 -25.652 -12.849  0.00  0.00    -0.105 OA
ENDBRANCH  13  14
ENDBRANCH   8  13
ENDBRANCH   3   5
ENDBRANCH   2   4
BRANCH   2  18
ATOM     18  C   UNL     1      35.681 -20.842 -20.429  0.00  0.00    +0.138 C 
BRANCH  18  20
ATOM     19  O   UNL     1      37.224 -19.099 -19.806  0.00  0.00    -0.291 OA
ATOM     20  C   UNL     1      36.194 -19.416 -20.394  0.00  0.00    +0.181 C 
BRANCH  20  22
ATOM     21  C   UNL     1      35.842 -17.671 -22.092  0.00  0.00    +0.003 C 
ATOM     22  C   UNL     1      35.342 -18.404 -21.087  0.00  0.00    +0.038 C 
BRANCH  21  23
ATOM     23  C   UNL     1      35.090 -16.644 -22.834  0.00  0.00    +0.003 C 
ATOM     24  C   UNL     1      34.769 -15.434 -22.219  0.00  0.00    +0.040 C 
ATOM     25  C   UNL     1      34.057 -14.461 -22.921  0.00  0.00    +0.172 C 
ATOM     26  C   UNL     1      34.696 -16.883 -24.151  0.00  0.00    +0.003 C 
ATOM     27  C   UNL     1      33.664 -14.700 -24.238  0.00  0.00    +0.168 C 
ATOM     28  C   UNL     1      33.982 -15.911 -24.852  0.00  0.00    +0.040 C 
BRANCH  25  29
ATOM     29  O   UNL     1      33.751 -13.282 -22.310  0.00  0.00    -0.468 OA
ATOM     30  C   UNL     1      32.547 -13.243 -21.546  0.00  0.00    +0.253 C 
ENDBRANCH  25  29
BRANCH  27  31
ATOM     31  O   UNL     1      32.966 -13.759 -24.934  0.00  0.00    -0.503 OA
ATOM     32  H   UNL     1      32.098 -13.945 -25.233  0.00  0.00    +0.292 HD
ENDBRANCH  27  31
ENDBRANCH  21  23
ENDBRANCH  20  22
ENDBRANCH  18  20
ENDBRANCH   2  18
TORSDOF 11
ENDMDL
MODEL 7
REMARK VINA RESULT:     -10.5      4.997     12.502
REMARK  Name = 66645351
REMARK  11 active torsions:
REMARK  status: ('A' for Active; 'I' for Inactive)
REMARK    1  A    between atoms: C_2  and  C_4
REMARK    2  A    between atoms: C_2  and  C_18
REMARK    3  A    between atoms: C_3  and  C_5
REMARK    4  A    between atoms: C_6  and  O_11
REMARK    5  A    between atoms: C_8  and  O_13
REMARK    6  A    between atoms: O_13  and  S_14
REMARK    7  A    between atoms: C_18  and  C_20
REMARK    8  A    between atoms: C_20  and  C_22
REMARK    9  A    between atoms: C_21  and  C_23
REMARK   10  A    between atoms: C_25  and  O_29
REMARK   11  A    between atoms: C_27  and  O_31
REMARK                            x       y       z     vdW  Elec       q    Type
REMARK                         _______ _______ _______ _____ _____    ______ ____
ROOT
ATOM      1  O   UNL     1      34.675 -16.141 -24.991  0.00  0.00    -0.291 OA
ATOM      2  C   UNL     1      34.681 -16.015 -23.769  0.00  0.00    +0.181 C 
ENDROOT
BRANCH   2   4
ATOM      3  C   UNL     1      33.702 -13.759 -23.837  0.00  0.00    +0.003 C 
ATOM      4  C   UNL     1      34.150 -14.787 -23.105  0.00  0.00    +0.038 C 
BRANCH   3   5
ATOM      5  C   UNL     1      33.152 -12.510 -23.280  0.00  0.00    +0.003 C 
ATOM      6  C   UNL     1      31.950 -11.349 -21.534  0.00  0.00    +0.175 C 
ATOM      7  C   UNL     1      32.472 -12.531 -22.063  0.00  0.00    +0.040 C 
ATOM      8  C   UNL     1      32.110 -10.147 -22.224  0.00  0.00    +0.209 C 
ATOM      9  C   UNL     1      33.312 -11.308 -23.970  0.00  0.00    +0.003 C 
ATOM     10  C   UNL     1      32.791 -10.127 -23.442  0.00  0.00    +0.043 C 
BRANCH   6  11
ATOM     11  O   UNL     1      31.288 -11.381 -20.344  0.00  0.00    -0.468 OA
ATOM     12  C   UNL     1      32.067 -11.634 -19.177  0.00  0.00    +0.253 C 
ENDBRANCH   6  11
BRANCH   8  13
ATOM     13  O   UNL     1      31.606  -8.987 -21.719  0.00  0.00    -0.319 OA
BRANCH  13  14
ATOM     14  S   UNL     1      32.613  -7.964 -20.919  0.00  0.00    +0.282 S 
ATOM     15  O   UNL     1      31.733  -6.599 -20.752  0.00  0.00    -0.012 OA
ATOM     16  O   UNL     1      32.868  -8.495 -19.592  0.00  0.00    -0.105 OA
ATOM     17  O   UNL     1      33.724  -7.658 -21.801  0.00  0.00    -0.105 OA
ENDBRANCH  13  14
ENDBRANCH   8  13
ENDBRANCH   3   5
ENDBRANCH   2   4
BRANCH   2  18
ATOM     18  C   UNL     1      35.265 -17.063 -22.843  0.00  0.00    +0.138 C 
BRANCH  18  20
ATOM     19  O   UNL     1      34.265 -18.821 -24.154  0.00  0.00    -0.291 OA
ATOM     20  C   UNL     1      34.821 -18.488 -23.111  0.00  0.00    +0.181 C 
BRANCH  20  22
ATOM     21  C   UNL     1      34.097 -19.731 -21.116  0.00  0.00    +0.003 C 
ATOM     22  C   UNL     1      35.063 -19.461 -22.005  0.00  0.00    +0.038 C 
BRANCH  21  23
ATOM     23  C   UNL     1      34.236 -20.667 -19.987  0.00  0.00    +0.003 C 
ATOM     24  C   UNL     1      35.495 -20.921 -19.442  0.00  0.00    +0.040 C 
ATOM     25  C   UNL     1      35.628 -21.807 -18.373  0.00  0.00    +0.172 C 
ATOM     26  C   UNL     1      33.109 -21.301 -19.462  0.00  0.00    +0.003 C 
ATOM     27  C   UNL     1      34.500 -22.440 -17.849  0.00  0.00    +0.168 C 
ATOM     28  C   UNL     1      33.241 -22.188 -18.394  0.00  0.00    +0.040 C 
BRANCH  25  29
ATOM     29  O   UNL     1      36.862 -22.046 -17.849  0.00  0.00    -0.468 OA
ATOM     30  C   UNL     1      37.214 -21.328 -16.668  0.00  0.00    +0.253 C 
ENDBRANCH  25  29
BRANCH  27  31
ATOM     31  O   UNL     1      34.616 -23.308 -16.805  0.00  0.00    -0.503 OA
ATOM     32  H   UNL     1      35.022 -23.030 -16.008  0.00  0.00    +0.292 HD
ENDBRANCH  27  31
ENDBRANCH  21  23
ENDBRANCH  20  22
ENDBRANCH  18  20
ENDBRANCH   2  18
TORSDOF 11
ENDMDL
MODEL 8
REMARK VINA RESULT:     -10.5      5.088     12.687
REMARK  Name = 66645351
REMARK  11 active torsions:
REMARK  status: ('A' for Active; 'I' for Inactive)
REMARK    1  A    between atoms: C_2  and  C_4
REMARK    2  A    between atoms: C_2  and  C_18
REMARK    3  A    between atoms: C_3  and  C_5
REMARK    4  A    between atoms: C_6  and  O_11
REMARK    5  A    between atoms: C_8  and  O_13
REMARK    6  A    between atoms: O_13  and  S_14
REMARK    7  A    between atoms: C_18  and  C_20
REMARK    8  A    between atoms: C_20  and  C_22
REMARK    9  A    between atoms: C_21  and  C_23
REMARK   10  A    between atoms: C_25  and  O_29
REMARK   11  A    between atoms: C_27  and  O_31
REMARK                            x       y       z     vdW  Elec       q    Type
REMARK                         _______ _______ _______ _____ _____    ______ ____
ROOT
ATOM      1  O   UNL     1      34.129 -15.949 -25.191  0.00  0.00    -0.291 OA
ATOM      2  C   UNL     1      34.321 -15.739 -23.996  0.00  0.00    +0.181 C 
ENDROOT
BRANCH   2   4
ATOM      3  C   UNL     1      33.724 -13.354 -23.914  0.00  0.00    +0.003 C 
ATOM      4  C   UNL     1      33.742 -14.548 -23.306  0.00  0.00    +0.038 C 
BRANCH   3   5
ATOM      5  C   UNL     1      33.169 -12.122 -23.323  0.00  0.00    +0.003 C 
ATOM      6  C   UNL     1      31.984 -11.008 -21.537  0.00  0.00    +0.175 C 
ATOM      7  C   UNL     1      32.510 -12.173 -22.096  0.00  0.00    +0.040 C 
ATOM      8  C   UNL     1      32.119  -9.791 -22.206  0.00  0.00    +0.209 C 
ATOM      9  C   UNL     1      33.304 -10.906 -23.993  0.00  0.00    +0.003 C 
ATOM     10  C   UNL     1      32.779  -9.741 -23.435  0.00  0.00    +0.043 C 
BRANCH   6  11
ATOM     11  O   UNL     1      31.342 -11.070 -20.337  0.00  0.00    -0.468 OA
ATOM     12  C   UNL     1      32.075 -11.610 -19.238  0.00  0.00    +0.253 C 
ENDBRANCH   6  11
BRANCH   8  13
ATOM     13  O   UNL     1      31.610  -8.647 -21.671  0.00  0.00    -0.319 OA
BRANCH  13  14
ATOM     14  S   UNL     1      32.607  -7.657 -20.819  0.00  0.00    +0.282 S 
ATOM     15  O   UNL     1      31.740  -6.283 -20.647  0.00  0.00    -0.012 OA
ATOM     16  O   UNL     1      32.815  -8.220 -19.497  0.00  0.00    -0.105 OA
ATOM     17  O   UNL     1      33.747  -7.347 -21.662  0.00  0.00    -0.105 OA
ENDBRANCH  13  14
ENDBRANCH   8  13
ENDBRANCH   3   5
ENDBRANCH   2   4
BRANCH   2  18
ATOM     18  C   UNL     1      35.189 -16.638 -23.139  0.00  0.00    +0.138 C 
BRANCH  18  20
ATOM     19  O   UNL     1      34.157 -18.612 -24.059  0.00  0.00    -0.291 OA
ATOM     20  C   UNL     1      34.822 -18.109 -23.158  0.00  0.00    +0.181 C 
BRANCH  20  22
ATOM     21  C   UNL     1      34.445 -19.749 -21.364  0.00  0.00    +0.003 C 
ATOM     22  C   UNL     1      35.284 -18.906 -21.983  0.00  0.00    +0.038 C 
BRANCH  21  23
ATOM     23  C   UNL     1      34.799 -20.574 -20.196  0.00  0.00    +0.003 C 
ATOM     24  C   UNL     1      33.851 -21.427 -19.631  0.00  0.00    +0.040 C 
ATOM     25  C   UNL     1      34.184 -22.208 -18.525  0.00  0.00    +0.172 C 
ATOM     26  C   UNL     1      36.082 -20.502 -19.652  0.00  0.00    +0.003 C 
ATOM     27  C   UNL     1      35.467 -22.135 -17.982  0.00  0.00    +0.168 C 
ATOM     28  C   UNL     1      36.416 -21.282 -18.545  0.00  0.00    +0.040 C 
BRANCH  25  29
ATOM     29  O   UNL     1      33.250 -23.038 -17.982  0.00  0.00    -0.468 OA
ATOM     30  C   UNL     1      32.268 -22.442 -17.136  0.00  0.00    +0.253 C 
ENDBRANCH  25  29
BRANCH  27  31
ATOM     31  O   UNL     1      35.806 -22.892 -16.901  0.00  0.00    -0.503 OA
ATOM     32  H   UNL     1      36.496 -23.523 -16.969  0.00  0.00    +0.292 HD
ENDBRANCH  27  31
ENDBRANCH  21  23
ENDBRANCH  20  22
ENDBRANCH  18  20
ENDBRANCH   2  18
TORSDOF 11
ENDMDL
MODEL 9
REMARK VINA RESULT:     -10.4      4.813     12.186
REMARK  Name = 66645351
REMARK  11 active torsions:
REMARK  status: ('A' for Active; 'I' for Inactive)
REMARK    1  A    between atoms: C_2  and  C_4
REMARK    2  A    between atoms: C_2  and  C_18
REMARK    3  A    between atoms: C_3  and  C_5
REMARK    4  A    between atoms: C_6  and  O_11
REMARK    5  A    between atoms: C_8  and  O_13
REMARK    6  A    between atoms: O_13  and  S_14
REMARK    7  A    between atoms: C_18  and  C_20
REMARK    8  A    between atoms: C_20  and  C_22
REMARK    9  A    between atoms: C_21  and  C_23
REMARK   10  A    between atoms: C_25  and  O_29
REMARK   11  A    between atoms: C_27  and  O_31
REMARK                            x       y       z     vdW  Elec       q    Type
REMARK                         _______ _______ _______ _____ _____    ______ ____
ROOT
ATOM      1  O   UNL     1      34.859 -15.975 -25.123  0.00  0.00    -0.291 OA
ATOM      2  C   UNL     1      34.740 -16.069 -23.904  0.00  0.00    +0.181 C 
ENDROOT
BRANCH   2   4
ATOM      3  C   UNL     1      33.448 -13.993 -23.628  0.00  0.00    +0.003 C 
ATOM      4  C   UNL     1      34.221 -14.939 -23.077  0.00  0.00    +0.038 C 
BRANCH   3   5
ATOM      5  C   UNL     1      32.881 -12.845 -22.898  0.00  0.00    +0.003 C 
ATOM      6  C   UNL     1      32.581 -10.459 -22.661  0.00  0.00    +0.175 C 
ATOM      7  C   UNL     1      33.116 -11.547 -23.351  0.00  0.00    +0.040 C 
ATOM      8  C   UNL     1      31.809 -10.670 -21.517  0.00  0.00    +0.209 C 
ATOM      9  C   UNL     1      32.110 -13.056 -21.755  0.00  0.00    +0.003 C 
ATOM     10  C   UNL     1      31.574 -11.969 -21.065  0.00  0.00    +0.043 C 
BRANCH   6  11
ATOM     11  O   UNL     1      32.816  -9.196 -23.113  0.00  0.00    -0.468 OA
ATOM     12  C   UNL     1      34.179  -8.791 -23.224  0.00  0.00    +0.253 C 
ENDBRANCH   6  11
BRANCH   8  13
ATOM     13  O   UNL     1      31.281  -9.617 -20.834  0.00  0.00    -0.319 OA
BRANCH  13  14
ATOM     14  S   UNL     1      31.591  -9.477 -19.226  0.00  0.00    +0.282 S 
ATOM     15  O   UNL     1      32.824 -10.516 -18.974  0.00  0.00    -0.012 OA
ATOM     16  O   UNL     1      32.075  -8.136 -18.954  0.00  0.00    -0.105 OA
ATOM     17  O   UNL     1      30.438  -9.990 -18.509  0.00  0.00    -0.105 OA
ENDBRANCH  13  14
ENDBRANCH   8  13
ENDBRANCH   3   5
ENDBRANCH   2   4
BRANCH   2  18
ATOM     18  C   UNL     1      35.147 -17.312 -23.138  0.00  0.00    +0.138 C 
BRANCH  18  20
ATOM     19  O   UNL     1      34.079 -18.764 -24.737  0.00  0.00    -0.291 OA
ATOM     20  C   UNL     1      34.491 -18.601 -23.592  0.00  0.00    +0.181 C 
BRANCH  20  22
ATOM     21  C   UNL     1      34.790 -19.443 -21.300  0.00  0.00    +0.003 C 
ATOM     22  C   UNL     1      34.335 -19.652 -22.544  0.00  0.00    +0.038 C 
BRANCH  21  23
ATOM     23  C   UNL     1      34.692 -20.415 -20.198  0.00  0.00    +0.003 C 
ATOM     24  C   UNL     1      35.842 -20.819 -19.520  0.00  0.00    +0.040 C 
ATOM     25  C   UNL     1      35.751 -21.740 -18.476  0.00  0.00    +0.172 C 
ATOM     26  C   UNL     1      33.450 -20.935 -19.833  0.00  0.00    +0.003 C 
ATOM     27  C   UNL     1      34.508 -22.259 -18.112  0.00  0.00    +0.168 C 
ATOM     28  C   UNL     1      33.358 -21.857 -18.791  0.00  0.00    +0.040 C 
BRANCH  25  29
ATOM     29  O   UNL     1      36.881 -22.126 -17.821  0.00  0.00    -0.468 OA
ATOM     30  C   UNL     1      37.144 -21.505 -16.564  0.00  0.00    +0.253 C 
ENDBRANCH  25  29
BRANCH  27  31
ATOM     31  O   UNL     1      34.405 -23.160 -17.095  0.00  0.00    -0.503 OA
ATOM     32  H   UNL     1      34.679 -22.924 -16.230  0.00  0.00    +0.292 HD
ENDBRANCH  27  31
ENDBRANCH  21  23
ENDBRANCH  20  22
ENDBRANCH  18  20
ENDBRANCH   2  18
TORSDOF 11
ENDMDL
