MODEL 1
REMARK VINA RESULT:     -10.1      0.000      0.000
REMARK  Name = 25116064
REMARK  6 active torsions:
REMARK  status: ('A' for Active; 'I' for Inactive)
REMARK    1  A    between atoms: N_2  and  C_27
REMARK    2  A    between atoms: C_11  and  C_17
REMARK    3  A    between atoms: C_27  and  C_28
REMARK    4  A    between atoms: C_28  and  O_29
REMARK    5  A    between atoms: C_28  and  C_31
REMARK    6  A    between atoms: C_31  and  N_33
REMARK                            x       y       z     vdW  Elec       q    Type
REMARK                         _______ _______ _______ _____ _____    ______ ____
ROOT
ATOM      1  O   UNL     1      30.519  -9.881 -22.474  0.00  0.00    -0.270 OA
ATOM      2  N   UNL     1      32.208  -8.279 -22.452  0.00  0.00    -0.274 N 
ATOM      3  N   UNL     1      34.567 -11.738 -23.220  0.00  0.00    -0.357 N 
ATOM      4  C   UNL     1      33.602  -7.964 -22.123  0.00  0.00    +0.094 C 
ATOM      5  C   UNL     1      34.569  -8.116 -23.299  0.00  0.00    +0.028 C 
ATOM      6  C   UNL     1      34.419  -9.396 -24.122  0.00  0.00    +0.045 C 
ATOM      7  C   UNL     1      33.902 -10.543 -23.326  0.00  0.00    +0.038 A 
ATOM      8  C   UNL     1      32.713 -10.651 -22.623  0.00  0.00    +0.062 A 
ATOM      9  C   UNL     1      31.714  -9.596 -22.506  0.00  0.00    +0.250 C 
ATOM     10  C   UNL     1      32.648 -11.982 -22.128  0.00  0.00    -0.001 A 
ATOM     11  C   UNL     1      33.810 -12.623 -22.498  0.00  0.00    +0.053 A 
ATOM     12  C   UNL     1      31.563 -12.605 -21.341  0.00  0.00    +0.033 C 
ATOM     13  H   UNL     1      35.453 -11.930 -23.604  0.00  0.00    +0.166 HD
ENDROOT
BRANCH  11  17
ATOM     14  F   UNL     1      36.543 -18.904 -21.093  0.00  0.00    -0.204 F 
ATOM     15  O   UNL     1      32.957 -14.026 -24.953  0.00  0.00    -0.270 OA
ATOM     16  N   UNL     1      33.673 -16.278 -24.948  0.00  0.00    -0.280 N 
ATOM     17  C   UNL     1      34.327 -13.913 -22.294  0.00  0.00    +0.021 C 
ATOM     18  C   UNL     1      34.234 -15.009 -23.127  0.00  0.00    +0.056 C 
ATOM     19  C   UNL     1      34.766 -16.352 -22.927  0.00  0.00    +0.020 C 
ATOM     20  C   UNL     1      33.525 -14.979 -24.451  0.00  0.00    +0.250 C 
ATOM     21  C   UNL     1      34.398 -17.081 -24.061  0.00  0.00    +0.051 C 
ATOM     22  C   UNL     1      35.491 -16.946 -21.911  0.00  0.00    +0.031 C 
ATOM     23  C   UNL     1      34.732 -18.411 -24.226  0.00  0.00    +0.017 C 
ATOM     24  C   UNL     1      35.840 -18.293 -22.057  0.00  0.00    +0.140 C 
ATOM     25  C   UNL     1      35.463 -19.019 -23.204  0.00  0.00    +0.031 C 
ATOM     26  H   UNL     1      33.315 -16.586 -25.812  0.00  0.00    +0.155 HD
ENDBRANCH  11  17
BRANCH   2  27
ATOM     27  C   UNL     1      31.292  -7.154 -22.572  0.00  0.00    +0.121 C 
BRANCH  27  28
ATOM     28  C   UNL     1      31.449  -6.392 -23.890  0.00  0.00    +0.110 C 
BRANCH  28  29
ATOM     29  O   UNL     1      31.768  -7.334 -24.916  0.00  0.00    -0.385 OA
ATOM     30  H   UNL     1      31.806  -8.226 -24.536  0.00  0.00    +0.210 HD
ENDBRANCH  28  29
BRANCH  28  31
ATOM     31  C   UNL     1      32.518  -5.294 -23.879  0.00  0.00    -0.045 C 
BRANCH  31  33
ATOM     32  O   UNL     1      29.839  -2.157 -23.104  0.00  0.00    -0.358 OA
ATOM     33  N   UNL     1      31.932  -3.958 -23.799  0.00  0.00    +0.392 N 
ATOM     34  C   UNL     1      31.671  -3.584 -22.402  0.00  0.00    -0.045 C 
ATOM     35  C   UNL     1      30.688  -3.886 -24.579  0.00  0.00    -0.045 C 
ATOM     36  C   UNL     1      31.048  -2.193 -22.344  0.00  0.00    +0.119 C 
ATOM     37  C   UNL     1      30.089  -2.487 -24.470  0.00  0.00    +0.119 C 
ATOM     38  H   UNL     1      32.602  -3.298 -24.193  0.00  0.00    -0.079 HD
ENDBRANCH  31  33
ENDBRANCH  28  31
ENDBRANCH  27  28
ENDBRANCH   2  27
TORSDOF 6
ENDMDL
MODEL 2
REMARK VINA RESULT:     -10.1      1.336      1.820
REMARK  Name = 25116064
REMARK  6 active torsions:
REMARK  status: ('A' for Active; 'I' for Inactive)
REMARK    1  A    between atoms: N_2  and  C_27
REMARK    2  A    between atoms: C_11  and  C_17
REMARK    3  A    between atoms: C_27  and  C_28
REMARK    4  A    between atoms: C_28  and  O_29
REMARK    5  A    between atoms: C_28  and  C_31
REMARK    6  A    between atoms: C_31  and  N_33
REMARK                            x       y       z     vdW  Elec       q    Type
REMARK                         _______ _______ _______ _____ _____    ______ ____
ROOT
ATOM      1  O   UNL     1      30.476  -9.976 -22.525  0.00  0.00    -0.270 OA
ATOM      2  N   UNL     1      32.148  -8.358 -22.601  0.00  0.00    -0.274 N 
ATOM      3  N   UNL     1      34.544 -11.833 -23.155  0.00  0.00    -0.357 N 
ATOM      4  C   UNL     1      33.539  -8.009 -22.291  0.00  0.00    +0.094 C 
ATOM      5  C   UNL     1      34.508  -8.223 -23.456  0.00  0.00    +0.028 C 
ATOM      6  C   UNL     1      34.372  -9.553 -24.199  0.00  0.00    +0.045 C 
ATOM      7  C   UNL     1      33.866 -10.654 -23.334  0.00  0.00    +0.038 A 
ATOM      8  C   UNL     1      32.678 -10.731 -22.626  0.00  0.00    +0.062 A 
ATOM      9  C   UNL     1      31.669  -9.681 -22.574  0.00  0.00    +0.250 C 
ATOM     10  C   UNL     1      32.627 -12.029 -22.049  0.00  0.00    -0.001 A 
ATOM     11  C   UNL     1      33.796 -12.679 -22.380  0.00  0.00    +0.053 A 
ATOM     12  C   UNL     1      31.548 -12.614 -21.226  0.00  0.00    +0.033 C 
ATOM     13  H   UNL     1      35.432 -12.039 -23.526  0.00  0.00    +0.166 HD
ENDROOT
BRANCH  11  17
ATOM     14  F   UNL     1      36.558 -18.845 -20.575  0.00  0.00    -0.204 F 
ATOM     15  O   UNL     1      33.190 -14.169 -24.857  0.00  0.00    -0.270 OA
ATOM     16  N   UNL     1      33.960 -16.399 -24.730  0.00  0.00    -0.280 N 
ATOM     17  C   UNL     1      34.327 -13.949 -22.097  0.00  0.00    +0.021 C 
ATOM     18  C   UNL     1      34.332 -15.068 -22.904  0.00  0.00    +0.056 C 
ATOM     19  C   UNL     1      34.879 -16.391 -22.622  0.00  0.00    +0.020 C 
ATOM     20  C   UNL     1      33.737 -15.092 -24.282  0.00  0.00    +0.250 C 
ATOM     21  C   UNL     1      34.627 -17.159 -23.762  0.00  0.00    +0.051 C 
ATOM     22  C   UNL     1      35.530 -16.938 -21.532  0.00  0.00    +0.031 C 
ATOM     23  C   UNL     1      35.007 -18.483 -23.861  0.00  0.00    +0.017 C 
ATOM     24  C   UNL     1      35.924 -18.278 -21.611  0.00  0.00    +0.140 C 
ATOM     25  C   UNL     1      35.665 -19.043 -22.764  0.00  0.00    +0.031 C 
ATOM     26  H   UNL     1      33.684 -16.739 -25.611  0.00  0.00    +0.155 HD
ENDBRANCH  11  17
BRANCH   2  27
ATOM     27  C   UNL     1      31.221  -7.252 -22.790  0.00  0.00    +0.121 C 
BRANCH  27  28
ATOM     28  C   UNL     1      31.824  -5.895 -22.421  0.00  0.00    +0.110 C 
BRANCH  28  29
ATOM     29  O   UNL     1      31.439  -5.583 -21.081  0.00  0.00    -0.385 OA
ATOM     30  H   UNL     1      31.805  -6.248 -20.477  0.00  0.00    +0.210 HD
ENDBRANCH  28  29
BRANCH  28  31
ATOM     31  C   UNL     1      31.413  -4.735 -23.335  0.00  0.00    -0.045 C 
BRANCH  31  33
ATOM     32  O   UNL     1      33.487  -4.046 -26.919  0.00  0.00    -0.358 OA
ATOM     33  N   UNL     1      31.928  -4.896 -24.693  0.00  0.00    +0.392 N 
ATOM     34  C   UNL     1      33.394  -4.994 -24.687  0.00  0.00    -0.045 C 
ATOM     35  C   UNL     1      31.501  -3.780 -25.549  0.00  0.00    -0.045 C 
ATOM     36  C   UNL     1      33.910  -5.149 -26.114  0.00  0.00    +0.119 C 
ATOM     37  C   UNL     1      32.062  -3.964 -26.956  0.00  0.00    +0.119 C 
ATOM     38  H   UNL     1      31.546  -5.762 -25.072  0.00  0.00    -0.079 HD
ENDBRANCH  31  33
ENDBRANCH  28  31
ENDBRANCH  27  28
ENDBRANCH   2  27
TORSDOF 6
ENDMDL
MODEL 3
REMARK VINA RESULT:      -9.8      4.217     11.528
REMARK  Name = 25116064
REMARK  6 active torsions:
REMARK  status: ('A' for Active; 'I' for Inactive)
REMARK    1  A    between atoms: N_2  and  C_27
REMARK    2  A    between atoms: C_11  and  C_17
REMARK    3  A    between atoms: C_27  and  C_28
REMARK    4  A    between atoms: C_28  and  O_29
REMARK    5  A    between atoms: C_28  and  C_31
REMARK    6  A    between atoms: C_31  and  N_33
REMARK                            x       y       z     vdW  Elec       q    Type
REMARK                         _______ _______ _______ _____ _____    ______ ____
ROOT
ATOM      1  O   UNL     1      34.449 -14.971 -24.222  0.00  0.00    -0.270 OA
ATOM      2  N   UNL     1      34.706 -15.431 -21.954  0.00  0.00    -0.274 N 
ATOM      3  N   UNL     1      32.084 -12.089 -21.673  0.00  0.00    -0.357 N 
ATOM      4  C   UNL     1      34.791 -14.896 -20.591  0.00  0.00    +0.094 C 
ATOM      5  C   UNL     1      33.459 -14.894 -19.839  0.00  0.00    +0.028 C 
ATOM      6  C   UNL     1      32.255 -14.365 -20.619  0.00  0.00    +0.045 C 
ATOM      7  C   UNL     1      32.625 -13.349 -21.643  0.00  0.00    +0.038 A 
ATOM      8  C   UNL     1      33.488 -13.471 -22.720  0.00  0.00    +0.062 A 
ATOM      9  C   UNL     1      34.250 -14.669 -23.046  0.00  0.00    +0.250 C 
ATOM     10  C   UNL     1      33.411 -12.252 -23.447  0.00  0.00    -0.001 A 
ATOM     11  C   UNL     1      32.551 -11.415 -22.771  0.00  0.00    +0.053 A 
ATOM     12  C   UNL     1      34.117 -11.895 -24.695  0.00  0.00    +0.033 C 
ATOM     13  H   UNL     1      31.457 -11.724 -21.008  0.00  0.00    +0.166 HD
ENDROOT
BRANCH  11  17
ATOM     14  F   UNL     1      30.220  -4.984 -24.224  0.00  0.00    -0.204 F 
ATOM     15  O   UNL     1      32.730 -10.265 -20.057  0.00  0.00    -0.270 OA
ATOM     16  N   UNL     1      32.021  -8.011 -20.030  0.00  0.00    -0.280 N 
ATOM     17  C   UNL     1      32.094 -10.102 -22.977  0.00  0.00    +0.021 C 
ATOM     18  C   UNL     1      31.960  -9.092 -22.047  0.00  0.00    +0.056 C 
ATOM     19  C   UNL     1      31.487  -7.727 -22.248  0.00  0.00    +0.020 C 
ATOM     20  C   UNL     1      32.304  -9.259 -20.595  0.00  0.00    +0.250 C 
ATOM     21  C   UNL     1      31.544  -7.115 -20.993  0.00  0.00    +0.051 C 
ATOM     22  C   UNL     1      31.043  -7.028 -23.355  0.00  0.00    +0.031 C 
ATOM     23  C   UNL     1      31.168  -5.801 -20.793  0.00  0.00    +0.017 C 
ATOM     24  C   UNL     1      30.656  -5.695 -23.175  0.00  0.00    +0.140 C 
ATOM     25  C   UNL     1      30.717  -5.088 -21.906  0.00  0.00    +0.031 C 
ATOM     26  H   UNL     1      32.143  -7.792 -19.078  0.00  0.00    +0.155 HD
ENDBRANCH  11  17
BRANCH   2  27
ATOM     27  C   UNL     1      35.266 -16.756 -22.175  0.00  0.00    +0.121 C 
BRANCH  27  28
ATOM     28  C   UNL     1      35.108 -17.682 -20.967  0.00  0.00    +0.110 C 
BRANCH  28  29
ATOM     29  O   UNL     1      36.388 -17.836 -20.351  0.00  0.00    -0.385 OA
ATOM     30  H   UNL     1      36.590 -17.045 -19.826  0.00  0.00    +0.210 HD
ENDBRANCH  28  29
BRANCH  28  31
ATOM     31  C   UNL     1      34.545 -19.071 -21.287  0.00  0.00    -0.045 C 
BRANCH  31  33
ATOM     32  O   UNL     1      34.174 -22.443 -18.816  0.00  0.00    -0.358 OA
ATOM     33  N   UNL     1      34.468 -19.919 -20.099  0.00  0.00    +0.392 N 
ATOM     34  C   UNL     1      35.553 -20.911 -20.096  0.00  0.00    -0.045 C 
ATOM     35  C   UNL     1      33.166 -20.597 -20.026  0.00  0.00    -0.045 C 
ATOM     36  C   UNL     1      35.446 -21.793 -18.855  0.00  0.00    +0.119 C 
ATOM     37  C   UNL     1      33.115 -21.486 -18.786  0.00  0.00    +0.119 C 
ATOM     38  H   UNL     1      34.571 -19.321 -19.281  0.00  0.00    -0.079 HD
ENDBRANCH  31  33
ENDBRANCH  28  31
ENDBRANCH  27  28
ENDBRANCH   2  27
TORSDOF 6
ENDMDL
MODEL 4
REMARK VINA RESULT:      -9.4      2.025      2.824
REMARK  Name = 25116064
REMARK  6 active torsions:
REMARK  status: ('A' for Active; 'I' for Inactive)
REMARK    1  A    between atoms: N_2  and  C_27
REMARK    2  A    between atoms: C_11  and  C_17
REMARK    3  A    between atoms: C_27  and  C_28
REMARK    4  A    between atoms: C_28  and  O_29
REMARK    5  A    between atoms: C_28  and  C_31
REMARK    6  A    between atoms: C_31  and  N_33
REMARK                            x       y       z     vdW  Elec       q    Type
REMARK                         _______ _______ _______ _____ _____    ______ ____
ROOT
ATOM      1  O   UNL     1      30.773  -8.657 -22.244  0.00  0.00    -0.270 OA
ATOM      2  N   UNL     1      32.711  -7.445 -21.807  0.00  0.00    -0.274 N 
ATOM      3  N   UNL     1      34.448 -10.834 -23.711  0.00  0.00    -0.357 N 
ATOM      4  C   UNL     1      34.137  -7.483 -21.462  0.00  0.00    +0.094 C 
ATOM      5  C   UNL     1      35.072  -7.420 -22.671  0.00  0.00    +0.028 C 
ATOM      6  C   UNL     1      34.711  -8.337 -23.840  0.00  0.00    +0.045 C 
ATOM      7  C   UNL     1      33.998  -9.572 -23.413  0.00  0.00    +0.038 A 
ATOM      8  C   UNL     1      32.803  -9.695 -22.724  0.00  0.00    +0.062 A 
ATOM      9  C   UNL     1      32.000  -8.579 -22.241  0.00  0.00    +0.250 C 
ATOM     10  C   UNL     1      32.507 -11.084 -22.659  0.00  0.00    -0.001 A 
ATOM     11  C   UNL     1      33.544 -11.760 -23.262  0.00  0.00    +0.053 A 
ATOM     12  C   UNL     1      31.325 -11.732 -22.054  0.00  0.00    +0.033 C 
ATOM     13  H   UNL     1      35.290 -11.041 -24.175  0.00  0.00    +0.166 HD
ENDROOT
BRANCH  11  17
ATOM     14  F   UNL     1      34.878 -18.446 -24.821  0.00  0.00    -0.204 F 
ATOM     15  O   UNL     1      34.264 -12.702 -20.557  0.00  0.00    -0.270 OA
ATOM     16  N   UNL     1      34.817 -14.999 -20.565  0.00  0.00    -0.280 N 
ATOM     17  C   UNL     1      33.831 -13.118 -23.489  0.00  0.00    +0.021 C 
ATOM     18  C   UNL     1      34.227 -14.069 -22.572  0.00  0.00    +0.056 C 
ATOM     19  C   UNL     1      34.528 -15.478 -22.795  0.00  0.00    +0.020 C 
ATOM     20  C   UNL     1      34.421 -13.774 -21.112  0.00  0.00    +0.250 C 
ATOM     21  C   UNL     1      34.880 -15.996 -21.546  0.00  0.00    +0.051 C 
ATOM     22  C   UNL     1      34.520 -16.287 -23.917  0.00  0.00    +0.031 C 
ATOM     23  C   UNL     1      35.233 -17.319 -21.365  0.00  0.00    +0.017 C 
ATOM     24  C   UNL     1      34.875 -17.630 -23.757  0.00  0.00    +0.140 C 
ATOM     25  C   UNL     1      35.228 -18.142 -22.493  0.00  0.00    +0.031 C 
ATOM     26  H   UNL     1      35.024 -15.141 -19.614  0.00  0.00    +0.155 HD
ENDBRANCH  11  17
BRANCH   2  27
ATOM     27  C   UNL     1      32.004  -6.203 -21.533  0.00  0.00    +0.121 C 
BRANCH  27  28
ATOM     28  C   UNL     1      32.228  -5.136 -22.607  0.00  0.00    +0.110 C 
BRANCH  28  29
ATOM     29  O   UNL     1      31.643  -3.914 -22.152  0.00  0.00    -0.385 OA
ATOM     30  H   UNL     1      30.803  -4.105 -21.704  0.00  0.00    +0.210 HD
ENDBRANCH  28  29
BRANCH  28  31
ATOM     31  C   UNL     1      31.651  -5.476 -23.986  0.00  0.00    -0.045 C 
BRANCH  31  33
ATOM     32  O   UNL     1      33.101  -4.606 -27.827  0.00  0.00    -0.358 OA
ATOM     33  N   UNL     1      32.498  -4.985 -25.071  0.00  0.00    +0.392 N 
ATOM     34  C   UNL     1      31.781  -3.994 -25.886  0.00  0.00    -0.045 C 
ATOM     35  C   UNL     1      32.957  -6.096 -25.917  0.00  0.00    -0.045 C 
ATOM     36  C   UNL     1      32.679  -3.507 -27.019  0.00  0.00    +0.119 C 
ATOM     37  C   UNL     1      33.827  -5.558 -27.049  0.00  0.00    +0.119 C 
ATOM     38  H   UNL     1      33.312  -4.536 -24.654  0.00  0.00    -0.079 HD
ENDBRANCH  31  33
ENDBRANCH  28  31
ENDBRANCH  27  28
ENDBRANCH   2  27
TORSDOF 6
ENDMDL
MODEL 5
REMARK VINA RESULT:      -9.3      3.887     11.415
REMARK  Name = 25116064
REMARK  6 active torsions:
REMARK  status: ('A' for Active; 'I' for Inactive)
REMARK    1  A    between atoms: N_2  and  C_27
REMARK    2  A    between atoms: C_11  and  C_17
REMARK    3  A    between atoms: C_27  and  C_28
REMARK    4  A    between atoms: C_28  and  O_29
REMARK    5  A    between atoms: C_28  and  C_31
REMARK    6  A    between atoms: C_31  and  N_33
REMARK                            x       y       z     vdW  Elec       q    Type
REMARK                         _______ _______ _______ _____ _____    ______ ____
ROOT
ATOM      1  O   UNL     1      33.033 -16.315 -25.207  0.00  0.00    -0.270 OA
ATOM      2  N   UNL     1      34.570 -17.048 -23.620  0.00  0.00    -0.274 N 
ATOM      3  N   UNL     1      34.095 -13.030 -22.295  0.00  0.00    -0.357 N 
ATOM      4  C   UNL     1      35.713 -16.710 -22.764  0.00  0.00    +0.094 C 
ATOM      5  C   UNL     1      35.326 -16.301 -21.342  0.00  0.00    +0.028 C 
ATOM      6  C   UNL     1      34.172 -15.304 -21.227  0.00  0.00    +0.045 C 
ATOM      7  C   UNL     1      34.066 -14.397 -22.403  0.00  0.00    +0.038 A 
ATOM      8  C   UNL     1      33.883 -14.718 -23.738  0.00  0.00    +0.062 A 
ATOM      9  C   UNL     1      33.784 -16.074 -24.263  0.00  0.00    +0.250 C 
ATOM     10  C   UNL     1      33.743 -13.490 -24.440  0.00  0.00    -0.001 A 
ATOM     11  C   UNL     1      33.892 -12.468 -23.529  0.00  0.00    +0.053 A 
ATOM     12  C   UNL     1      33.497 -13.295 -25.884  0.00  0.00    +0.033 C 
ATOM     13  H   UNL     1      34.239 -12.529 -21.461  0.00  0.00    +0.166 HD
ENDROOT
BRANCH  11  17
ATOM     14  F   UNL     1      34.202  -5.512 -24.173  0.00  0.00    -0.204 F 
ATOM     15  O   UNL     1      31.354 -11.794 -22.178  0.00  0.00    -0.270 OA
ATOM     16  N   UNL     1      30.995  -9.459 -22.139  0.00  0.00    -0.280 N 
ATOM     17  C   UNL     1      33.877 -11.066 -23.615  0.00  0.00    +0.021 C 
ATOM     18  C   UNL     1      32.915 -10.195 -23.145  0.00  0.00    +0.056 C 
ATOM     19  C   UNL     1      32.888  -8.739 -23.229  0.00  0.00    +0.020 C 
ATOM     20  C   UNL     1      31.674 -10.646 -22.431  0.00  0.00    +0.250 C 
ATOM     21  C   UNL     1      31.702  -8.344 -22.603  0.00  0.00    +0.051 C 
ATOM     22  C   UNL     1      33.748  -7.801 -23.767  0.00  0.00    +0.031 C 
ATOM     23  C   UNL     1      31.332  -7.018 -22.490  0.00  0.00    +0.017 C 
ATOM     24  C   UNL     1      33.393  -6.452 -23.663  0.00  0.00    +0.140 C 
ATOM     25  C   UNL     1      32.196  -6.064 -23.031  0.00  0.00    +0.031 C 
ATOM     26  H   UNL     1      30.133  -9.414 -21.667  0.00  0.00    +0.155 HD
ENDBRANCH  11  17
BRANCH   2  27
ATOM     27  C   UNL     1      34.365 -18.458 -23.913  0.00  0.00    +0.121 C 
BRANCH  27  28
ATOM     28  C   UNL     1      34.979 -19.384 -22.862  0.00  0.00    +0.110 C 
BRANCH  28  29
ATOM     29  O   UNL     1      35.248 -20.645 -23.478  0.00  0.00    -0.385 OA
ATOM     30  H   UNL     1      35.126 -21.355 -22.827  0.00  0.00    +0.210 HD
ENDBRANCH  28  29
BRANCH  28  31
ATOM     31  C   UNL     1      34.112 -19.617 -21.619  0.00  0.00    -0.045 C 
BRANCH  31  33
ATOM     32  O   UNL     1      35.469 -21.678 -18.224  0.00  0.00    -0.358 OA
ATOM     33  N   UNL     1      34.657 -20.664 -20.757  0.00  0.00    +0.392 N 
ATOM     34  C   UNL     1      33.675 -21.064 -19.739  0.00  0.00    -0.045 C 
ATOM     35  C   UNL     1      35.898 -20.214 -20.111  0.00  0.00    -0.045 C 
ATOM     36  C   UNL     1      34.270 -22.147 -18.843  0.00  0.00    +0.119 C 
ATOM     37  C   UNL     1      36.439 -21.318 -19.207  0.00  0.00    +0.119 C 
ATOM     38  H   UNL     1      34.867 -21.472 -21.342  0.00  0.00    -0.079 HD
ENDBRANCH  31  33
ENDBRANCH  28  31
ENDBRANCH  27  28
ENDBRANCH   2  27
TORSDOF 6
ENDMDL
MODEL 6
REMARK VINA RESULT:      -9.1      3.815     10.879
REMARK  Name = 25116064
REMARK  6 active torsions:
REMARK  status: ('A' for Active; 'I' for Inactive)
REMARK    1  A    between atoms: N_2  and  C_27
REMARK    2  A    between atoms: C_11  and  C_17
REMARK    3  A    between atoms: C_27  and  C_28
REMARK    4  A    between atoms: C_28  and  O_29
REMARK    5  A    between atoms: C_28  and  C_31
REMARK    6  A    between atoms: C_31  and  N_33
REMARK                            x       y       z     vdW  Elec       q    Type
REMARK                         _______ _______ _______ _____ _____    ______ ____
ROOT
ATOM      1  O   UNL     1      32.394 -12.229 -19.941  0.00  0.00    -0.270 OA
ATOM      2  N   UNL     1      32.717 -13.594 -21.799  0.00  0.00    -0.274 N 
ATOM      3  N   UNL     1      32.891  -9.795 -23.712  0.00  0.00    -0.357 N 
ATOM      4  C   UNL     1      32.490 -13.794 -23.235  0.00  0.00    +0.094 C 
ATOM      5  C   UNL     1      33.643 -13.315 -24.119  0.00  0.00    +0.028 C 
ATOM      6  C   UNL     1      34.209 -11.934 -23.785  0.00  0.00    +0.045 C 
ATOM      7  C   UNL     1      33.199 -11.022 -23.182  0.00  0.00    +0.038 A 
ATOM      8  C   UNL     1      32.456 -11.187 -22.024  0.00  0.00    +0.062 A 
ATOM      9  C   UNL     1      32.510 -12.358 -21.158  0.00  0.00    +0.250 C 
ATOM     10  C   UNL     1      31.719  -9.986 -21.834  0.00  0.00    -0.001 A 
ATOM     11  C   UNL     1      31.996  -9.154 -22.896  0.00  0.00    +0.053 A 
ATOM     12  C   UNL     1      30.801  -9.652 -20.726  0.00  0.00    +0.033 C 
ATOM     13  H   UNL     1      33.256  -9.431 -24.551  0.00  0.00    +0.166 HD
ENDROOT
BRANCH  11  17
ATOM     14  F   UNL     1      29.667  -2.948 -25.124  0.00  0.00    -0.204 F 
ATOM     15  O   UNL     1      33.155  -7.466 -20.769  0.00  0.00    -0.270 OA
ATOM     16  N   UNL     1      32.624  -5.187 -21.094  0.00  0.00    -0.280 N 
ATOM     17  C   UNL     1      31.569  -7.870 -23.274  0.00  0.00    +0.021 C 
ATOM     18  C   UNL     1      31.817  -6.670 -22.640  0.00  0.00    +0.056 C 
ATOM     19  C   UNL     1      31.380  -5.332 -23.022  0.00  0.00    +0.020 C 
ATOM     20  C   UNL     1      32.627  -6.556 -21.381  0.00  0.00    +0.250 C 
ATOM     21  C   UNL     1      31.897  -4.470 -22.051  0.00  0.00    +0.051 C 
ATOM     22  C   UNL     1      30.623  -4.841 -24.070  0.00  0.00    +0.031 C 
ATOM     23  C   UNL     1      31.684  -3.106 -22.083  0.00  0.00    +0.017 C 
ATOM     24  C   UNL     1      30.395  -3.462 -24.122  0.00  0.00    +0.140 C 
ATOM     25  C   UNL     1      30.921  -2.602 -23.138  0.00  0.00    +0.031 C 
ATOM     26  H   UNL     1      33.076  -4.781 -20.320  0.00  0.00    +0.155 HD
ENDBRANCH  11  17
BRANCH   2  27
ATOM     27  C   UNL     1      33.019 -14.780 -21.012  0.00  0.00    +0.121 C 
BRANCH  27  28
ATOM     28  C   UNL     1      34.521 -15.011 -20.830  0.00  0.00    +0.110 C 
BRANCH  28  29
ATOM     29  O   UNL     1      35.138 -13.752 -20.557  0.00  0.00    -0.385 OA
ATOM     30  H   UNL     1      34.452 -13.085 -20.396  0.00  0.00    +0.210 HD
ENDBRANCH  28  29
BRANCH  28  31
ATOM     31  C   UNL     1      35.225 -15.656 -22.029  0.00  0.00    -0.045 C 
BRANCH  31  33
ATOM     32  O   UNL     1      35.004 -19.651 -23.295  0.00  0.00    -0.358 OA
ATOM     33  N   UNL     1      34.714 -16.995 -22.312  0.00  0.00    +0.392 N 
ATOM     34  C   UNL     1      35.475 -18.011 -21.570  0.00  0.00    -0.045 C 
ATOM     35  C   UNL     1      34.766 -17.280 -23.753  0.00  0.00    -0.045 C 
ATOM     36  C   UNL     1      34.933 -19.401 -21.890  0.00  0.00    +0.119 C 
ATOM     37  C   UNL     1      34.240 -18.688 -24.020  0.00  0.00    +0.119 C 
ATOM     38  H   UNL     1      33.742 -17.030 -22.007  0.00  0.00    -0.079 HD
ENDBRANCH  31  33
ENDBRANCH  28  31
ENDBRANCH  27  28
ENDBRANCH   2  27
TORSDOF 6
ENDMDL
MODEL 7
REMARK VINA RESULT:      -8.9      2.420      3.450
REMARK  Name = 25116064
REMARK  6 active torsions:
REMARK  status: ('A' for Active; 'I' for Inactive)
REMARK    1  A    between atoms: N_2  and  C_27
REMARK    2  A    between atoms: C_11  and  C_17
REMARK    3  A    between atoms: C_27  and  C_28
REMARK    4  A    between atoms: C_28  and  O_29
REMARK    5  A    between atoms: C_28  and  C_31
REMARK    6  A    between atoms: C_31  and  N_33
REMARK                            x       y       z     vdW  Elec       q    Type
REMARK                         _______ _______ _______ _____ _____    ______ ____
ROOT
ATOM      1  O   UNL     1      33.732  -9.546 -23.535  0.00  0.00    -0.270 OA
ATOM      2  N   UNL     1      31.647  -9.440 -22.506  0.00  0.00    -0.274 N 
ATOM      3  N   UNL     1      32.614 -13.498 -21.656  0.00  0.00    -0.357 N 
ATOM      4  C   UNL     1      30.407 -10.143 -22.160  0.00  0.00    +0.094 C 
ATOM      5  C   UNL     1      30.412 -10.763 -20.762  0.00  0.00    +0.028 C 
ATOM      6  C   UNL     1      31.672 -11.544 -20.385  0.00  0.00    +0.045 C 
ATOM      7  C   UNL     1      32.352 -12.155 -21.560  0.00  0.00    +0.038 A 
ATOM      8  C   UNL     1      32.865 -11.537 -22.689  0.00  0.00    +0.062 A 
ATOM      9  C   UNL     1      32.802 -10.106 -22.958  0.00  0.00    +0.250 C 
ATOM     10  C   UNL     1      33.503 -12.549 -23.457  0.00  0.00    -0.001 A 
ATOM     11  C   UNL     1      33.320 -13.747 -22.803  0.00  0.00    +0.053 A 
ATOM     12  C   UNL     1      34.229 -12.394 -24.735  0.00  0.00    +0.033 C 
ATOM     13  H   UNL     1      32.337 -14.178 -21.001  0.00  0.00    +0.166 HD
ENDROOT
BRANCH  11  17
ATOM     14  F   UNL     1      34.976 -20.321 -24.517  0.00  0.00    -0.204 F 
ATOM     15  O   UNL     1      34.728 -14.502 -20.320  0.00  0.00    -0.270 OA
ATOM     16  N   UNL     1      35.508 -16.730 -20.416  0.00  0.00    -0.280 N 
ATOM     17  C   UNL     1      33.691 -15.076 -23.068  0.00  0.00    +0.021 C 
ATOM     18  C   UNL     1      34.384 -15.945 -22.250  0.00  0.00    +0.056 C 
ATOM     19  C   UNL     1      34.776 -17.325 -22.513  0.00  0.00    +0.020 C 
ATOM     20  C   UNL     1      34.870 -15.574 -20.879  0.00  0.00    +0.250 C 
ATOM     21  C   UNL     1      35.454 -17.754 -21.369  0.00  0.00    +0.051 C 
ATOM     22  C   UNL     1      34.602 -18.175 -23.590  0.00  0.00    +0.031 C 
ATOM     23  C   UNL     1      35.978 -19.026 -21.253  0.00  0.00    +0.017 C 
ATOM     24  C   UNL     1      35.126 -19.468 -23.493  0.00  0.00    +0.140 C 
ATOM     25  C   UNL     1      35.808 -19.890 -22.336  0.00  0.00    +0.031 C 
ATOM     26  H   UNL     1      35.938 -16.812 -19.535  0.00  0.00    +0.155 HD
ENDBRANCH  11  17
BRANCH   2  27
ATOM     27  C   UNL     1      31.596  -7.986 -22.515  0.00  0.00    +0.121 C 
BRANCH  27  28
ATOM     28  C   UNL     1      32.423  -7.350 -21.395  0.00  0.00    +0.110 C 
BRANCH  28  29
ATOM     29  O   UNL     1      31.578  -6.458 -20.666  0.00  0.00    -0.385 OA
ATOM     30  H   UNL     1      30.698  -6.440 -21.075  0.00  0.00    +0.210 HD
ENDBRANCH  28  29
BRANCH  28  31
ATOM     31  C   UNL     1      33.663  -6.581 -21.865  0.00  0.00    -0.045 C 
BRANCH  31  33
ATOM     32  O   UNL     1      34.330  -4.885 -25.645  0.00  0.00    -0.358 OA
ATOM     33  N   UNL     1      33.666  -6.373 -23.311  0.00  0.00    +0.392 N 
ATOM     34  C   UNL     1      35.040  -6.329 -23.829  0.00  0.00    -0.045 C 
ATOM     35  C   UNL     1      32.956  -5.135 -23.661  0.00  0.00    -0.045 C 
ATOM     36  C   UNL     1      35.019  -6.098 -25.337  0.00  0.00    +0.119 C 
ATOM     37  C   UNL     1      32.984  -4.933 -25.174  0.00  0.00    +0.119 C 
ATOM     38  H   UNL     1      33.181  -7.160 -23.741  0.00  0.00    -0.079 HD
ENDBRANCH  31  33
ENDBRANCH  28  31
ENDBRANCH  27  28
ENDBRANCH   2  27
TORSDOF 6
ENDMDL
MODEL 8
REMARK VINA RESULT:      -8.8      4.153     10.560
REMARK  Name = 25116064
REMARK  6 active torsions:
REMARK  status: ('A' for Active; 'I' for Inactive)
REMARK    1  A    between atoms: N_2  and  C_27
REMARK    2  A    between atoms: C_11  and  C_17
REMARK    3  A    between atoms: C_27  and  C_28
REMARK    4  A    between atoms: C_28  and  O_29
REMARK    5  A    between atoms: C_28  and  C_31
REMARK    6  A    between atoms: C_31  and  N_33
REMARK                            x       y       z     vdW  Elec       q    Type
REMARK                         _______ _______ _______ _____ _____    ______ ____
ROOT
ATOM      1  O   UNL     1      32.333  -9.363 -19.763  0.00  0.00    -0.270 OA
ATOM      2  N   UNL     1      31.985 -11.301 -21.005  0.00  0.00    -0.274 N 
ATOM      3  N   UNL     1      32.708  -8.575 -24.194  0.00  0.00    -0.357 N 
ATOM      4  C   UNL     1      31.464 -11.894 -22.241  0.00  0.00    +0.094 C 
ATOM      5  C   UNL     1      32.520 -12.089 -23.331  0.00  0.00    +0.028 C 
ATOM      6  C   UNL     1      33.447 -10.898 -23.579  0.00  0.00    +0.045 C 
ATOM      7  C   UNL     1      32.807  -9.588 -23.275  0.00  0.00    +0.038 A 
ATOM      8  C   UNL     1      32.266  -9.139 -22.081  0.00  0.00    +0.062 A 
ATOM      9  C   UNL     1      32.196  -9.918 -20.852  0.00  0.00    +0.250 C 
ATOM     10  C   UNL     1      31.881  -7.786 -22.289  0.00  0.00    -0.001 A 
ATOM     11  C   UNL     1      32.151  -7.472 -23.602  0.00  0.00    +0.053 A 
ATOM     12  C   UNL     1      31.282  -6.854 -21.311  0.00  0.00    +0.033 C 
ATOM     13  H   UNL     1      32.992  -8.632 -25.135  0.00  0.00    +0.166 HD
ENDROOT
BRANCH  11  17
ATOM     14  F   UNL     1      30.863  -1.786 -27.465  0.00  0.00    -0.204 F 
ATOM     15  O   UNL     1      34.936  -6.786 -24.309  0.00  0.00    -0.270 OA
ATOM     16  N   UNL     1      35.028  -4.854 -25.665  0.00  0.00    -0.280 N 
ATOM     17  C   UNL     1      31.980  -6.321 -24.391  0.00  0.00    +0.021 C 
ATOM     18  C   UNL     1      32.952  -5.558 -25.004  0.00  0.00    +0.056 C 
ATOM     19  C   UNL     1      32.787  -4.363 -25.825  0.00  0.00    +0.020 C 
ATOM     20  C   UNL     1      34.419  -5.863 -24.911  0.00  0.00    +0.250 C 
ATOM     21  C   UNL     1      34.077  -3.977 -26.200  0.00  0.00    +0.051 C 
ATOM     22  C   UNL     1      31.685  -3.639 -26.240  0.00  0.00    +0.031 C 
ATOM     23  C   UNL     1      34.318  -2.871 -26.991  0.00  0.00    +0.017 C 
ATOM     24  C   UNL     1      31.906  -2.514 -27.042  0.00  0.00    +0.140 C 
ATOM     25  C   UNL     1      33.210  -2.134 -27.414  0.00  0.00    +0.031 C 
ATOM     26  H   UNL     1      35.999  -4.772 -25.803  0.00  0.00    +0.155 HD
ENDBRANCH  11  17
BRANCH   2  27
ATOM     27  C   UNL     1      32.134 -12.190 -19.863  0.00  0.00    +0.121 C 
BRANCH  27  28
ATOM     28  C   UNL     1      32.483 -13.626 -20.263  0.00  0.00    +0.110 C 
BRANCH  28  29
ATOM     29  O   UNL     1      32.179 -14.483 -19.161  0.00  0.00    -0.385 OA
ATOM     30  H   UNL     1      33.005 -14.781 -18.747  0.00  0.00    +0.210 HD
ENDBRANCH  28  29
BRANCH  28  31
ATOM     31  C   UNL     1      33.943 -13.847 -20.672  0.00  0.00    -0.045 C 
BRANCH  31  33
ATOM     32  O   UNL     1      35.748 -17.067 -22.669  0.00  0.00    -0.358 OA
ATOM     33  N   UNL     1      34.129 -15.109 -21.384  0.00  0.00    +0.392 N 
ATOM     34  C   UNL     1      34.991 -16.019 -20.616  0.00  0.00    -0.045 C 
ATOM     35  C   UNL     1      34.703 -14.877 -22.716  0.00  0.00    -0.045 C 
ATOM     36  C   UNL     1      35.182 -17.324 -21.383  0.00  0.00    +0.119 C 
ATOM     37  C   UNL     1      34.900 -16.209 -23.434  0.00  0.00    +0.119 C 
ATOM     38  H   UNL     1      33.214 -15.544 -21.494  0.00  0.00    -0.079 HD
ENDBRANCH  31  33
ENDBRANCH  28  31
ENDBRANCH  27  28
ENDBRANCH   2  27
TORSDOF 6
ENDMDL
MODEL 9
REMARK VINA RESULT:      -8.8      3.741     11.070
REMARK  Name = 25116064
REMARK  6 active torsions:
REMARK  status: ('A' for Active; 'I' for Inactive)
REMARK    1  A    between atoms: N_2  and  C_27
REMARK    2  A    between atoms: C_11  and  C_17
REMARK    3  A    between atoms: C_27  and  C_28
REMARK    4  A    between atoms: C_28  and  O_29
REMARK    5  A    between atoms: C_28  and  C_31
REMARK    6  A    between atoms: C_31  and  N_33
REMARK                            x       y       z     vdW  Elec       q    Type
REMARK                         _______ _______ _______ _____ _____    ______ ____
ROOT
ATOM      1  O   UNL     1      32.682 -12.788 -23.783  0.00  0.00    -0.270 OA
ATOM      2  N   UNL     1      32.842 -12.934 -21.465  0.00  0.00    -0.274 N 
ATOM      3  N   UNL     1      30.818  -9.201 -21.769  0.00  0.00    -0.357 N 
ATOM      4  C   UNL     1      33.007 -12.219 -20.194  0.00  0.00    +0.094 C 
ATOM      5  C   UNL     1      31.689 -11.883 -19.494  0.00  0.00    +0.028 C 
ATOM      6  C   UNL     1      30.596 -11.286 -20.383  0.00  0.00    +0.045 C 
ATOM      7  C   UNL     1      31.140 -10.514 -21.534  0.00  0.00    +0.038 A 
ATOM      8  C   UNL     1      31.976 -10.939 -22.553  0.00  0.00    +0.062 A 
ATOM      9  C   UNL     1      32.529 -12.282 -22.672  0.00  0.00    +0.250 C 
ATOM     10  C   UNL     1      32.111  -9.849 -23.455  0.00  0.00    -0.001 A 
ATOM     11  C   UNL     1      31.399  -8.789 -22.939  0.00  0.00    +0.053 A 
ATOM     12  C   UNL     1      32.875  -9.808 -24.719  0.00  0.00    +0.033 C 
ATOM     13  H   UNL     1      30.257  -8.641 -21.186  0.00  0.00    +0.166 HD
ENDROOT
BRANCH  11  17
ATOM     14  F   UNL     1      30.080  -2.365 -25.368  0.00  0.00    -0.204 F 
ATOM     15  O   UNL     1      32.488  -7.236 -20.675  0.00  0.00    -0.270 OA
ATOM     16  N   UNL     1      32.265  -4.912 -21.040  0.00  0.00    -0.280 N 
ATOM     17  C   UNL     1      31.170  -7.465 -23.353  0.00  0.00    +0.021 C 
ATOM     18  C   UNL     1      31.480  -6.299 -22.684  0.00  0.00    +0.056 C 
ATOM     19  C   UNL     1      31.247  -4.921 -23.102  0.00  0.00    +0.020 C 
ATOM     20  C   UNL     1      32.144  -6.274 -21.337  0.00  0.00    +0.250 C 
ATOM     21  C   UNL     1      31.743  -4.120 -22.069  0.00  0.00    +0.051 C 
ATOM     22  C   UNL     1      30.681  -4.351 -24.227  0.00  0.00    +0.031 C 
ATOM     23  C   UNL     1      31.695  -2.741 -22.114  0.00  0.00    +0.017 C 
ATOM     24  C   UNL     1      30.622  -2.955 -24.293  0.00  0.00    +0.140 C 
ATOM     25  C   UNL     1      31.124  -2.157 -23.247  0.00  0.00    +0.031 C 
ATOM     26  H   UNL     1      32.667  -4.558 -20.215  0.00  0.00    +0.155 HD
ENDBRANCH  11  17
BRANCH   2  27
ATOM     27  C   UNL     1      33.173 -14.351 -21.468  0.00  0.00    +0.121 C 
BRANCH  27  28
ATOM     28  C   UNL     1      34.591 -14.634 -21.969  0.00  0.00    +0.110 C 
BRANCH  28  29
ATOM     29  O   UNL     1      35.213 -13.387 -22.282  0.00  0.00    -0.385 OA
ATOM     30  H   UNL     1      34.569 -12.669 -22.173  0.00  0.00    +0.210 HD
ENDBRANCH  28  29
BRANCH  28  31
ATOM     31  C   UNL     1      34.671 -15.548 -23.197  0.00  0.00    -0.045 C 
BRANCH  31  33
ATOM     32  O   UNL     1      35.295 -19.423 -21.712  0.00  0.00    -0.358 OA
ATOM     33  N   UNL     1      35.299 -16.830 -22.888  0.00  0.00    +0.392 N 
ATOM     34  C   UNL     1      34.535 -17.940 -23.475  0.00  0.00    -0.045 C 
ATOM     35  C   UNL     1      35.418 -17.016 -21.435  0.00  0.00    -0.045 C 
ATOM     36  C   UNL     1      35.200 -19.269 -23.129  0.00  0.00    +0.119 C 
ATOM     37  C   UNL     1      36.063 -18.366 -21.137  0.00  0.00    +0.119 C 
ATOM     38  H   UNL     1      36.234 -16.827 -23.294  0.00  0.00    -0.079 HD
ENDBRANCH  31  33
ENDBRANCH  28  31
ENDBRANCH  27  28
ENDBRANCH   2  27
TORSDOF 6
ENDMDL
