MODEL 1
REMARK VINA RESULT:     -12.1      0.000      0.000
REMARK  Name = 54713659
REMARK  4 active torsions:
REMARK  status: ('A' for Active; 'I' for Inactive)
REMARK    1  A    between atoms: C_14  and  O_30
REMARK    2  A    between atoms: C_15  and  C_19
REMARK    3  A    between atoms: N_18  and  C_21
REMARK    4  A    between atoms: C_21  and  C_24
REMARK                            x       y       z     vdW  Elec       q    Type
REMARK                         _______ _______ _______ _____ _____    ______ ____
ROOT
ATOM      1  O   UNL     1      32.163 -12.246 -19.505  0.00  0.00    -0.334 OA
ATOM      2  O   UNL     1      33.067 -12.095 -24.003  0.00  0.00    -0.268 OA
ATOM      3  O   UNL     1      34.777 -16.824 -24.979  0.00  0.00    -0.283 OA
ATOM      4  N   UNL     1      32.532 -12.323 -21.777  0.00  0.00    -0.251 N 
ATOM      5  N   UNL     1      33.984 -14.673 -21.631  0.00  0.00    -0.275 N 
ATOM      6  C   UNL     1      32.433 -13.138 -20.594  0.00  0.00    +0.215 C 
ATOM      7  C   UNL     1      32.053 -10.991 -21.503  0.00  0.00    +0.107 C 
ATOM      8  C   UNL     1      33.723 -13.908 -20.406  0.00  0.00    +0.147 C 
ATOM      9  C   UNL     1      32.296 -10.901 -20.007  0.00  0.00    +0.164 C 
ATOM     10  C   UNL     1      33.055 -12.767 -22.973  0.00  0.00    +0.268 C 
ATOM     11  C   UNL     1      33.673 -14.147 -22.899  0.00  0.00    +0.143 C 
ATOM     12  C   UNL     1      30.578 -10.850 -21.866  0.00  0.00    +0.024 C 
ATOM     13  C   UNL     1      34.599 -15.915 -21.560  0.00  0.00    +0.074 C 
ATOM     14  C   UNL     1      33.916 -14.815 -24.047  0.00  0.00    +0.191 C 
ATOM     15  C   UNL     1      34.898 -16.682 -22.615  0.00  0.00    +0.110 C 
ATOM     16  C   UNL     1      34.550 -16.169 -23.966  0.00  0.00    +0.236 C 
ENDROOT
BRANCH  15  19
ATOM     17  O   UNL     1      35.819 -18.728 -23.313  0.00  0.00    -0.270 OA
ATOM     18  N   UNL     1      35.788 -18.221 -21.038  0.00  0.00    -0.297 N 
ATOM     19  C   UNL     1      35.544 -17.974 -22.379  0.00  0.00    +0.251 C 
ATOM     20  H   UNL     1      35.521 -17.538 -20.382  0.00  0.00    +0.150 HD
BRANCH  18  21
ATOM     21  C   UNL     1      36.414 -19.430 -20.551  0.00  0.00    +0.119 C 
BRANCH  21  24
ATOM     22  F   UNL     1      37.189 -21.521 -18.811  0.00  0.00    -0.204 F 
ATOM     23  F   UNL     1      32.713 -22.857 -18.049  0.00  0.00    -0.204 F 
ATOM     24  C   UNL     1      35.429 -20.344 -19.883  0.00  0.00    +0.025 C 
ATOM     25  C   UNL     1      35.878 -21.357 -19.036  0.00  0.00    +0.140 C 
ATOM     26  C   UNL     1      34.061 -20.180 -20.111  0.00  0.00    +0.002 C 
ATOM     27  C   UNL     1      34.961 -22.206 -18.416  0.00  0.00    +0.059 C 
ATOM     28  C   UNL     1      33.145 -21.030 -19.492  0.00  0.00    +0.030 C 
ATOM     29  C   UNL     1      33.594 -22.042 -18.644  0.00  0.00    +0.142 C 
ENDBRANCH  21  24
ENDBRANCH  18  21
ENDBRANCH  15  19
BRANCH  14  30
ATOM     30  O   UNL     1      33.607 -14.332 -25.298  0.00  0.00    -0.502 OA
ATOM     31  H   UNL     1      33.670 -14.893 -26.046  0.00  0.00    +0.292 HD
ENDBRANCH  14  30
TORSDOF 4
ENDMDL
MODEL 2
REMARK VINA RESULT:     -11.8      4.594      9.582
REMARK  Name = 54713659
REMARK  4 active torsions:
REMARK  status: ('A' for Active; 'I' for Inactive)
REMARK    1  A    between atoms: C_14  and  O_30
REMARK    2  A    between atoms: C_15  and  C_19
REMARK    3  A    between atoms: N_18  and  C_21
REMARK    4  A    between atoms: C_21  and  C_24
REMARK                            x       y       z     vdW  Elec       q    Type
REMARK                         _______ _______ _______ _____ _____    ______ ____
ROOT
ATOM      1  O   UNL     1      37.947 -23.235 -14.489  0.00  0.00    -0.334 OA
ATOM      2  O   UNL     1      33.646 -23.321 -16.091  0.00  0.00    -0.268 OA
ATOM      3  O   UNL     1      34.067 -20.942 -20.608  0.00  0.00    -0.283 OA
ATOM      4  N   UNL     1      35.854 -23.332 -15.446  0.00  0.00    -0.251 N 
ATOM      5  N   UNL     1      36.464 -21.443 -17.373  0.00  0.00    -0.275 N 
ATOM      6  C   UNL     1      37.234 -23.022 -15.715  0.00  0.00    +0.215 C 
ATOM      7  C   UNL     1      35.734 -24.000 -14.174  0.00  0.00    +0.107 C 
ATOM      8  C   UNL     1      37.342 -21.594 -16.206  0.00  0.00    +0.147 C 
ATOM      9  C   UNL     1      36.968 -23.478 -13.459  0.00  0.00    +0.164 C 
ATOM     10  C   UNL     1      34.814 -22.989 -16.283  0.00  0.00    +0.268 C 
ATOM     11  C   UNL     1      35.224 -22.106 -17.443  0.00  0.00    +0.143 C 
ATOM     12  C   UNL     1      35.753 -25.516 -14.344  0.00  0.00    +0.024 C 
ATOM     13  C   UNL     1      36.822 -20.592 -18.409  0.00  0.00    +0.074 C 
ATOM     14  C   UNL     1      34.384 -21.976 -18.492  0.00  0.00    +0.191 C 
ATOM     15  C   UNL     1      36.086 -20.369 -19.505  0.00  0.00    +0.110 C 
ATOM     16  C   UNL     1      34.787 -21.082 -19.624  0.00  0.00    +0.236 C 
ENDROOT
BRANCH  15  19
ATOM     17  O   UNL     1      37.806 -19.208 -20.606  0.00  0.00    -0.270 OA
ATOM     18  N   UNL     1      35.605 -18.901 -21.310  0.00  0.00    -0.297 N 
ATOM     19  C   UNL     1      36.601 -19.445 -20.516  0.00  0.00    +0.251 C 
ATOM     20  H   UNL     1      34.673 -19.170 -21.139  0.00  0.00    +0.150 HD
BRANCH  18  21
ATOM     21  C   UNL     1      35.861 -17.960 -22.378  0.00  0.00    +0.119 C 
BRANCH  21  24
ATOM     22  F   UNL     1      35.171 -16.140 -24.431  0.00  0.00    -0.204 F 
ATOM     23  F   UNL     1      33.531 -12.936 -21.358  0.00  0.00    -0.204 F 
ATOM     24  C   UNL     1      35.240 -16.621 -22.107  0.00  0.00    +0.025 C 
ATOM     25  C   UNL     1      34.924 -15.770 -23.166  0.00  0.00    +0.140 C 
ATOM     26  C   UNL     1      34.978 -16.226 -20.794  0.00  0.00    +0.002 C 
ATOM     27  C   UNL     1      34.347 -14.526 -22.914  0.00  0.00    +0.059 C 
ATOM     28  C   UNL     1      34.402 -14.982 -20.542  0.00  0.00    +0.030 C 
ATOM     29  C   UNL     1      34.085 -14.131 -21.601  0.00  0.00    +0.142 C 
ENDBRANCH  21  24
ENDBRANCH  18  21
ENDBRANCH  15  19
BRANCH  14  30
ATOM     30  O   UNL     1      33.175 -22.625 -18.594  0.00  0.00    -0.502 OA
ATOM     31  H   UNL     1      32.648 -22.517 -19.361  0.00  0.00    +0.292 HD
ENDBRANCH  14  30
TORSDOF 4
ENDMDL
MODEL 3
REMARK VINA RESULT:     -11.7      2.770      4.901
REMARK  Name = 54713659
REMARK  4 active torsions:
REMARK  status: ('A' for Active; 'I' for Inactive)
REMARK    1  A    between atoms: C_14  and  O_30
REMARK    2  A    between atoms: C_15  and  C_19
REMARK    3  A    between atoms: N_18  and  C_21
REMARK    4  A    between atoms: C_21  and  C_24
REMARK                            x       y       z     vdW  Elec       q    Type
REMARK                         _______ _______ _______ _____ _____    ______ ____
ROOT
ATOM      1  O   UNL     1      32.863  -7.048 -23.612  0.00  0.00    -0.334 OA
ATOM      2  O   UNL     1      31.199  -9.551 -20.142  0.00  0.00    -0.268 OA
ATOM      3  O   UNL     1      32.731 -14.294 -21.324  0.00  0.00    -0.283 OA
ATOM      4  N   UNL     1      32.185  -8.381 -21.860  0.00  0.00    -0.251 N 
ATOM      5  N   UNL     1      32.622 -10.729 -23.257  0.00  0.00    -0.275 N 
ATOM      6  C   UNL     1      33.011  -8.354 -23.039  0.00  0.00    +0.215 C 
ATOM      7  C   UNL     1      31.752  -7.047 -21.527  0.00  0.00    +0.107 C 
ATOM      8  C   UNL     1      32.574  -9.454 -23.983  0.00  0.00    +0.147 C 
ATOM      9  C   UNL     1      31.810  -6.378 -22.890  0.00  0.00    +0.164 C 
ATOM     10  C   UNL     1      31.839  -9.536 -21.191  0.00  0.00    +0.268 C 
ATOM     11  C   UNL     1      32.269 -10.806 -21.897  0.00  0.00    +0.143 C 
ATOM     12  C   UNL     1      32.692  -6.398 -20.516  0.00  0.00    +0.024 C 
ATOM     13  C   UNL     1      32.965 -11.897 -23.922  0.00  0.00    +0.074 C 
ATOM     14  C   UNL     1      32.283 -11.964 -21.203  0.00  0.00    +0.191 C 
ATOM     15  C   UNL     1      33.020 -13.110 -23.358  0.00  0.00    +0.110 C 
ATOM     16  C   UNL     1      32.685 -13.218 -21.914  0.00  0.00    +0.236 C 
ENDROOT
BRANCH  15  19
ATOM     17  O   UNL     1      32.932 -14.403 -25.318  0.00  0.00    -0.270 OA
ATOM     18  N   UNL     1      34.318 -15.089 -23.573  0.00  0.00    -0.297 N 
ATOM     19  C   UNL     1      33.404 -14.250 -24.190  0.00  0.00    +0.251 C 
ATOM     20  H   UNL     1      34.622 -14.859 -22.665  0.00  0.00    +0.150 HD
BRANCH  18  21
ATOM     21  C   UNL     1      34.848 -16.283 -24.191  0.00  0.00    +0.119 C 
BRANCH  21  24
ATOM     22  F   UNL     1      33.916 -18.917 -24.634  0.00  0.00    -0.204 F 
ATOM     23  F   UNL     1      35.551 -20.446 -20.464  0.00  0.00    -0.204 F 
ATOM     24  C   UNL     1      35.035 -17.394 -23.198  0.00  0.00    +0.025 C 
ATOM     25  C   UNL     1      34.550 -18.671 -23.478  0.00  0.00    +0.140 C 
ATOM     26  C   UNL     1      35.694 -17.147 -21.993  0.00  0.00    +0.002 C 
ATOM     27  C   UNL     1      34.724 -19.702 -22.556  0.00  0.00    +0.059 C 
ATOM     28  C   UNL     1      35.867 -18.178 -21.070  0.00  0.00    +0.030 C 
ATOM     29  C   UNL     1      35.384 -19.456 -21.351  0.00  0.00    +0.142 C 
ENDBRANCH  21  24
ENDBRANCH  18  21
ENDBRANCH  15  19
BRANCH  14  30
ATOM     30  O   UNL     1      31.960 -12.065 -19.869  0.00  0.00    -0.502 OA
ATOM     31  H   UNL     1      31.361 -12.725 -19.580  0.00  0.00    +0.292 HD
ENDBRANCH  14  30
TORSDOF 4
ENDMDL
MODEL 4
REMARK VINA RESULT:     -11.6      1.872      3.321
REMARK  Name = 54713659
REMARK  4 active torsions:
REMARK  status: ('A' for Active; 'I' for Inactive)
REMARK    1  A    between atoms: C_14  and  O_30
REMARK    2  A    between atoms: C_15  and  C_19
REMARK    3  A    between atoms: N_18  and  C_21
REMARK    4  A    between atoms: C_21  and  C_24
REMARK                            x       y       z     vdW  Elec       q    Type
REMARK                         _______ _______ _______ _____ _____    ______ ____
ROOT
ATOM      1  O   UNL     1      32.858  -8.841 -24.048  0.00  0.00    -0.334 OA
ATOM      2  O   UNL     1      31.171 -10.972 -20.348  0.00  0.00    -0.268 OA
ATOM      3  O   UNL     1      33.748 -15.398 -20.311  0.00  0.00    -0.283 OA
ATOM      4  N   UNL     1      32.176  -9.947 -22.146  0.00  0.00    -0.251 N 
ATOM      5  N   UNL     1      33.270 -12.357 -22.954  0.00  0.00    -0.275 N 
ATOM      6  C   UNL     1      33.159  -9.956 -23.198  0.00  0.00    +0.215 C 
ATOM      7  C   UNL     1      31.449  -8.703 -22.156  0.00  0.00    +0.107 C 
ATOM      8  C   UNL     1      33.096 -11.278 -23.933  0.00  0.00    +0.147 C 
ATOM      9  C   UNL     1      31.595  -8.298 -23.613  0.00  0.00    +0.164 C 
ATOM     10  C   UNL     1      31.955 -11.008 -21.294  0.00  0.00    +0.268 C 
ATOM     11  C   UNL     1      32.726 -12.260 -21.659  0.00  0.00    +0.143 C 
ATOM     12  C   UNL     1      32.074  -7.691 -21.202  0.00  0.00    +0.024 C 
ATOM     13  C   UNL     1      33.931 -13.523 -23.311  0.00  0.00    +0.074 C 
ATOM     14  C   UNL     1      32.850 -13.240 -20.739  0.00  0.00    +0.191 C 
ATOM     15  C   UNL     1      34.126 -14.571 -22.501  0.00  0.00    +0.110 C 
ATOM     16  C   UNL     1      33.593 -14.485 -21.116  0.00  0.00    +0.236 C 
ENDROOT
BRANCH  15  19
ATOM     17  O   UNL     1      35.051 -15.865 -24.229  0.00  0.00    -0.270 OA
ATOM     18  N   UNL     1      35.250 -16.611 -22.029  0.00  0.00    -0.297 N 
ATOM     19  C   UNL     1      34.849 -15.732 -23.021  0.00  0.00    +0.251 C 
ATOM     20  H   UNL     1      35.027 -16.393 -21.095  0.00  0.00    +0.150 HD
BRANCH  18  21
ATOM     21  C   UNL     1      35.978 -17.832 -22.292  0.00  0.00    +0.119 C 
BRANCH  21  24
ATOM     22  F   UNL     1      37.866 -19.098 -20.608  0.00  0.00    -0.204 F 
ATOM     23  F   UNL     1      34.596 -21.926 -18.681  0.00  0.00    -0.204 F 
ATOM     24  C   UNL     1      35.611 -18.923 -21.329  0.00  0.00    +0.025 C 
ATOM     25  C   UNL     1      36.592 -19.507 -20.527  0.00  0.00    +0.140 C 
ATOM     26  C   UNL     1      34.287 -19.355 -21.236  0.00  0.00    +0.002 C 
ATOM     27  C   UNL     1      36.250 -20.520 -19.632  0.00  0.00    +0.059 C 
ATOM     28  C   UNL     1      33.945 -20.369 -20.342  0.00  0.00    +0.030 C 
ATOM     29  C   UNL     1      34.926 -20.952 -19.539  0.00  0.00    +0.142 C 
ENDBRANCH  21  24
ENDBRANCH  18  21
ENDBRANCH  15  19
BRANCH  14  30
ATOM     30  O   UNL     1      32.344 -13.165 -19.461  0.00  0.00    -0.502 OA
ATOM     31  H   UNL     1      31.458 -12.893 -19.323  0.00  0.00    +0.292 HD
ENDBRANCH  14  30
TORSDOF 4
ENDMDL
MODEL 5
REMARK VINA RESULT:     -11.5      6.731     11.752
REMARK  Name = 54713659
REMARK  4 active torsions:
REMARK  status: ('A' for Active; 'I' for Inactive)
REMARK    1  A    between atoms: C_14  and  O_30
REMARK    2  A    between atoms: C_15  and  C_19
REMARK    3  A    between atoms: N_18  and  C_21
REMARK    4  A    between atoms: C_21  and  C_24
REMARK                            x       y       z     vdW  Elec       q    Type
REMARK                         _______ _______ _______ _____ _____    ______ ____
ROOT
ATOM      1  O   UNL     1      38.627 -24.354 -13.415  0.00  0.00    -0.334 OA
ATOM      2  O   UNL     1      34.571 -24.954 -11.350  0.00  0.00    -0.268 OA
ATOM      3  O   UNL     1      31.229 -24.042 -15.123  0.00  0.00    -0.283 OA
ATOM      4  N   UNL     1      36.544 -24.752 -12.517  0.00  0.00    -0.251 N 
ATOM      5  N   UNL     1      35.221 -23.526 -14.614  0.00  0.00    -0.275 N 
ATOM      6  C   UNL     1      37.245 -24.526 -13.753  0.00  0.00    +0.215 C 
ATOM      7  C   UNL     1      37.484 -25.007 -11.453  0.00  0.00    +0.107 C 
ATOM      8  C   UNL     1      36.663 -23.311 -14.446  0.00  0.00    +0.147 C 
ATOM      9  C   UNL     1      38.712 -24.284 -11.977  0.00  0.00    +0.164 C 
ATOM     10  C   UNL     1      35.173 -24.685 -12.388  0.00  0.00    +0.268 C 
ATOM     11  C   UNL     1      34.463 -24.189 -13.631  0.00  0.00    +0.143 C 
ATOM     12  C   UNL     1      37.718 -26.503 -11.272  0.00  0.00    +0.024 C 
ATOM     13  C   UNL     1      34.567 -23.023 -15.730  0.00  0.00    +0.074 C 
ATOM     14  C   UNL     1      33.132 -24.388 -13.744  0.00  0.00    +0.191 C 
ATOM     15  C   UNL     1      33.255 -23.147 -15.968  0.00  0.00    +0.110 C 
ATOM     16  C   UNL     1      32.434 -23.873 -14.964  0.00  0.00    +0.236 C 
ENDROOT
BRANCH  15  19
ATOM     17  O   UNL     1      31.499 -22.391 -17.333  0.00  0.00    -0.270 OA
ATOM     18  N   UNL     1      33.686 -22.259 -18.130  0.00  0.00    -0.297 N 
ATOM     19  C   UNL     1      32.711 -22.566 -17.196  0.00  0.00    +0.251 C 
ATOM     20  H   UNL     1      34.625 -22.447 -17.902  0.00  0.00    +0.150 HD
BRANCH  18  21
ATOM     21  C   UNL     1      33.399 -21.678 -19.422  0.00  0.00    +0.119 C 
BRANCH  21  24
ATOM     22  F   UNL     1      33.089 -19.764 -21.483  0.00  0.00    -0.204 F 
ATOM     23  F   UNL     1      37.634 -18.461 -21.272  0.00  0.00    -0.204 F 
ATOM     24  C   UNL     1      34.527 -20.820 -19.916  0.00  0.00    +0.025 C 
ATOM     25  C   UNL     1      34.307 -19.895 -20.937  0.00  0.00    +0.140 C 
ATOM     26  C   UNL     1      35.798 -20.947 -19.353  0.00  0.00    +0.002 C 
ATOM     27  C   UNL     1      35.355 -19.098 -21.395  0.00  0.00    +0.059 C 
ATOM     28  C   UNL     1      36.846 -20.151 -19.812  0.00  0.00    +0.030 C 
ATOM     29  C   UNL     1      36.626 -19.226 -20.832  0.00  0.00    +0.142 C 
ENDBRANCH  21  24
ENDBRANCH  18  21
ENDBRANCH  15  19
BRANCH  14  30
ATOM     30  O   UNL     1      32.370 -25.048 -12.807  0.00  0.00    -0.502 OA
ATOM     31  H   UNL     1      32.648 -25.880 -12.478  0.00  0.00    +0.292 HD
ENDBRANCH  14  30
TORSDOF 4
ENDMDL
MODEL 6
REMARK VINA RESULT:     -11.2      4.872      9.739
REMARK  Name = 54713659
REMARK  4 active torsions:
REMARK  status: ('A' for Active; 'I' for Inactive)
REMARK    1  A    between atoms: C_14  and  O_30
REMARK    2  A    between atoms: C_15  and  C_19
REMARK    3  A    between atoms: N_18  and  C_21
REMARK    4  A    between atoms: C_21  and  C_24
REMARK                            x       y       z     vdW  Elec       q    Type
REMARK                         _______ _______ _______ _____ _____    ______ ____
ROOT
ATOM      1  O   UNL     1      31.750 -23.833 -14.449  0.00  0.00    -0.334 OA
ATOM      2  O   UNL     1      36.250 -23.936 -15.351  0.00  0.00    -0.268 OA
ATOM      3  O   UNL     1      36.674 -20.798 -19.378  0.00  0.00    -0.283 OA
ATOM      4  N   UNL     1      34.003 -23.710 -14.913  0.00  0.00    -0.251 N 
ATOM      5  N   UNL     1      33.599 -22.547 -17.391  0.00  0.00    -0.275 N 
ATOM      6  C   UNL     1      32.728 -23.111 -15.209  0.00  0.00    +0.215 C 
ATOM      7  C   UNL     1      33.885 -24.595 -13.781  0.00  0.00    +0.107 C 
ATOM      8  C   UNL     1      32.472 -23.184 -16.699  0.00  0.00    +0.147 C 
ATOM      9  C   UNL     1      32.415 -24.971 -13.864  0.00  0.00    +0.164 C 
ATOM     10  C   UNL     1      35.146 -23.485 -15.650  0.00  0.00    +0.268 C 
ATOM     11  C   UNL     1      34.916 -22.674 -16.908  0.00  0.00    +0.143 C 
ATOM     12  C   UNL     1      34.233 -23.877 -12.481  0.00  0.00    +0.024 C 
ATOM     13  C   UNL     1      33.389 -21.850 -18.572  0.00  0.00    +0.074 C 
ATOM     14  C   UNL     1      35.978 -22.118 -17.528  0.00  0.00    +0.191 C 
ATOM     15  C   UNL     1      34.348 -21.250 -19.287  0.00  0.00    +0.110 C 
ATOM     16  C   UNL     1      35.744 -21.338 -18.785  0.00  0.00    +0.236 C 
ENDROOT
BRANCH  15  19
ATOM     17  O   UNL     1      32.785 -20.345 -20.790  0.00  0.00    -0.270 OA
ATOM     18  N   UNL     1      35.058 -20.161 -21.277  0.00  0.00    -0.297 N 
ATOM     19  C   UNL     1      33.969 -20.546 -20.513  0.00  0.00    +0.251 C 
ATOM     20  H   UNL     1      35.959 -20.381 -20.947  0.00  0.00    +0.150 HD
BRANCH  18  21
ATOM     21  C   UNL     1      34.942 -19.454 -22.532  0.00  0.00    +0.119 C 
BRANCH  21  24
ATOM     22  F   UNL     1      34.664 -17.628 -24.675  0.00  0.00    -0.204 F 
ATOM     23  F   UNL     1      34.869 -13.871 -21.803  0.00  0.00    -0.204 F 
ATOM     24  C   UNL     1      34.922 -17.966 -22.339  0.00  0.00    +0.025 C 
ATOM     25  C   UNL     1      34.783 -17.120 -23.440  0.00  0.00    +0.140 C 
ATOM     26  C   UNL     1      35.045 -17.427 -21.057  0.00  0.00    +0.002 C 
ATOM     27  C   UNL     1      34.764 -15.737 -23.259  0.00  0.00    +0.059 C 
ATOM     28  C   UNL     1      35.027 -16.045 -20.877  0.00  0.00    +0.030 C 
ATOM     29  C   UNL     1      34.886 -15.199 -21.977  0.00  0.00    +0.142 C 
ENDBRANCH  21  24
ENDBRANCH  18  21
ENDBRANCH  15  19
BRANCH  14  30
ATOM     30  O   UNL     1      37.273 -22.212 -17.070  0.00  0.00    -0.502 OA
ATOM     31  H   UNL     1      37.520 -22.916 -16.504  0.00  0.00    +0.292 HD
ENDBRANCH  14  30
TORSDOF 4
ENDMDL
MODEL 7
REMARK VINA RESULT:     -10.8      4.072      8.791
REMARK  Name = 54713659
REMARK  4 active torsions:
REMARK  status: ('A' for Active; 'I' for Inactive)
REMARK    1  A    between atoms: C_14  and  O_30
REMARK    2  A    between atoms: C_15  and  C_19
REMARK    3  A    between atoms: N_18  and  C_21
REMARK    4  A    between atoms: C_21  and  C_24
REMARK                            x       y       z     vdW  Elec       q    Type
REMARK                         _______ _______ _______ _____ _____    ______ ____
ROOT
ATOM      1  O   UNL     1      32.461 -22.863 -17.632  0.00  0.00    -0.334 OA
ATOM      2  O   UNL     1      36.931 -21.821 -17.680  0.00  0.00    -0.268 OA
ATOM      3  O   UNL     1      37.235 -18.287 -21.376  0.00  0.00    -0.283 OA
ATOM      4  N   UNL     1      34.658 -22.171 -17.658  0.00  0.00    -0.251 N 
ATOM      5  N   UNL     1      34.401 -20.895 -20.100  0.00  0.00    -0.275 N 
ATOM      6  C   UNL     1      33.342 -21.861 -18.154  0.00  0.00    +0.215 C 
ATOM      7  C   UNL     1      34.574 -23.167 -16.619  0.00  0.00    +0.107 C 
ATOM      8  C   UNL     1      33.367 -21.843 -19.668  0.00  0.00    +0.147 C 
ATOM      9  C   UNL     1      33.279 -23.866 -16.996  0.00  0.00    +0.164 C 
ATOM     10  C   UNL     1      35.817 -21.613 -18.155  0.00  0.00    +0.268 C 
ATOM     11  C   UNL     1      35.607 -20.758 -19.387  0.00  0.00    +0.143 C 
ATOM     12  C   UNL     1      34.509 -22.520 -15.240  0.00  0.00    +0.024 C 
ATOM     13  C   UNL     1      34.226 -20.153 -21.259  0.00  0.00    +0.074 C 
ATOM     14  C   UNL     1      36.587 -19.910 -19.765  0.00  0.00    +0.191 C 
ATOM     15  C   UNL     1      35.113 -19.278 -21.748  0.00  0.00    +0.110 C 
ATOM     16  C   UNL     1      36.383 -19.086 -20.999  0.00  0.00    +0.236 C 
ENDROOT
BRANCH  15  19
ATOM     17  O   UNL     1      34.207 -19.133 -23.911  0.00  0.00    -0.270 OA
ATOM     18  N   UNL     1      35.184 -17.239 -22.966  0.00  0.00    -0.297 N 
ATOM     19  C   UNL     1      34.783 -18.564 -22.982  0.00  0.00    +0.251 C 
ATOM     20  H   UNL     1      35.638 -16.898 -22.161  0.00  0.00    +0.150 HD
BRANCH  18  21
ATOM     21  C   UNL     1      34.973 -16.328 -24.069  0.00  0.00    +0.119 C 
BRANCH  21  24
ATOM     22  F   UNL     1      33.338 -14.757 -25.761  0.00  0.00    -0.204 F 
ATOM     23  F   UNL     1      32.568 -11.519 -22.396  0.00  0.00    -0.204 F 
ATOM     24  C   UNL     1      34.331 -15.046 -23.624  0.00  0.00    +0.025 C 
ATOM     25  C   UNL     1      33.536 -14.318 -24.510  0.00  0.00    +0.140 C 
ATOM     26  C   UNL     1      34.531 -14.581 -22.323  0.00  0.00    +0.002 C 
ATOM     27  C   UNL     1      32.940 -13.127 -24.096  0.00  0.00    +0.059 C 
ATOM     28  C   UNL     1      33.936 -13.390 -21.910  0.00  0.00    +0.030 C 
ATOM     29  C   UNL     1      33.140 -12.663 -22.795  0.00  0.00    +0.142 C 
ENDBRANCH  21  24
ENDBRANCH  18  21
ENDBRANCH  15  19
BRANCH  14  30
ATOM     30  O   UNL     1      37.769 -19.743 -19.079  0.00  0.00    -0.502 OA
ATOM     31  H   UNL     1      37.852 -19.056 -18.448  0.00  0.00    +0.292 HD
ENDBRANCH  14  30
TORSDOF 4
ENDMDL
MODEL 8
REMARK VINA RESULT:     -10.5      4.945      8.239
REMARK  Name = 54713659
REMARK  4 active torsions:
REMARK  status: ('A' for Active; 'I' for Inactive)
REMARK    1  A    between atoms: C_14  and  O_30
REMARK    2  A    between atoms: C_15  and  C_19
REMARK    3  A    between atoms: N_18  and  C_21
REMARK    4  A    between atoms: C_21  and  C_24
REMARK                            x       y       z     vdW  Elec       q    Type
REMARK                         _______ _______ _______ _____ _____    ______ ____
ROOT
ATOM      1  O   UNL     1      37.939 -18.723 -20.621  0.00  0.00    -0.334 OA
ATOM      2  O   UNL     1      33.682 -20.105 -21.640  0.00  0.00    -0.268 OA
ATOM      3  O   UNL     1      32.327 -22.775 -17.485  0.00  0.00    -0.283 OA
ATOM      4  N   UNL     1      35.755 -19.365 -20.972  0.00  0.00    -0.251 N 
ATOM      5  N   UNL     1      35.787 -21.205 -18.907  0.00  0.00    -0.275 N 
ATOM      6  C   UNL     1      36.789 -19.283 -19.974  0.00  0.00    +0.215 C 
ATOM      7  C   UNL     1      36.136 -18.615 -22.143  0.00  0.00    +0.107 C 
ATOM      8  C   UNL     1      37.055 -20.663 -19.411  0.00  0.00    +0.147 C 
ATOM      9  C   UNL     1      37.650 -18.659 -22.032  0.00  0.00    +0.164 C 
ATOM     10  C   UNL     1      34.598 -20.098 -20.820  0.00  0.00    +0.268 C 
ATOM     11  C   UNL     1      34.571 -20.952 -19.570  0.00  0.00    +0.143 C 
ATOM     12  C   UNL     1      35.587 -17.193 -22.090  0.00  0.00    +0.024 C 
ATOM     13  C   UNL     1      35.777 -22.030 -17.791  0.00  0.00    +0.074 C 
ATOM     14  C   UNL     1      33.390 -21.449 -19.145  0.00  0.00    +0.191 C 
ATOM     15  C   UNL     1      34.681 -22.590 -17.264  0.00  0.00    +0.110 C 
ATOM     16  C   UNL     1      33.377 -22.312 -17.921  0.00  0.00    +0.236 C 
ENDROOT
BRANCH  15  19
ATOM     17  O   UNL     1      34.496 -24.620 -16.097  0.00  0.00    -0.270 OA
ATOM     18  N   UNL     1      35.362 -22.758 -14.994  0.00  0.00    -0.297 N 
ATOM     19  C   UNL     1      34.829 -23.434 -16.079  0.00  0.00    +0.251 C 
ATOM     20  H   UNL     1      35.590 -21.806 -15.104  0.00  0.00    +0.150 HD
BRANCH  18  21
ATOM     21  C   UNL     1      35.603 -23.375 -13.709  0.00  0.00    +0.119 C 
BRANCH  21  24
ATOM     22  F   UNL     1      36.170 -25.382 -11.797  0.00  0.00    -0.204 F 
ATOM     23  F   UNL     1      40.453 -26.233 -13.620  0.00  0.00    -0.204 F 
ATOM     24  C   UNL     1      36.895 -24.137 -13.684  0.00  0.00    +0.025 C 
ATOM     25  C   UNL     1      37.112 -25.115 -12.713  0.00  0.00    +0.140 C 
ATOM     26  C   UNL     1      37.882 -23.868 -14.634  0.00  0.00    +0.002 C 
ATOM     27  C   UNL     1      38.313 -25.823 -12.691  0.00  0.00    +0.059 C 
ATOM     28  C   UNL     1      39.083 -24.575 -14.611  0.00  0.00    +0.030 C 
ATOM     29  C   UNL     1      39.299 -25.554 -13.640  0.00  0.00    +0.142 C 
ENDBRANCH  21  24
ENDBRANCH  18  21
ENDBRANCH  15  19
BRANCH  14  30
ATOM     30  O   UNL     1      32.185 -21.203 -19.763  0.00  0.00    -0.502 OA
ATOM     31  H   UNL     1      32.096 -21.333 -20.686  0.00  0.00    +0.292 HD
ENDBRANCH  14  30
TORSDOF 4
ENDMDL
MODEL 9
REMARK VINA RESULT:     -10.2      1.995      3.018
REMARK  Name = 54713659
REMARK  4 active torsions:
REMARK  status: ('A' for Active; 'I' for Inactive)
REMARK    1  A    between atoms: C_14  and  O_30
REMARK    2  A    between atoms: C_15  and  C_19
REMARK    3  A    between atoms: N_18  and  C_21
REMARK    4  A    between atoms: C_21  and  C_24
REMARK                            x       y       z     vdW  Elec       q    Type
REMARK                         _______ _______ _______ _____ _____    ______ ____
ROOT
ATOM      1  O   UNL     1      33.712 -12.755 -21.804  0.00  0.00    -0.334 OA
ATOM      2  O   UNL     1      34.055 -15.608 -25.384  0.00  0.00    -0.268 OA
ATOM      3  O   UNL     1      35.241 -20.073 -23.170  0.00  0.00    -0.283 OA
ATOM      4  N   UNL     1      33.786 -14.301 -23.511  0.00  0.00    -0.251 N 
ATOM      5  N   UNL     1      35.051 -16.207 -21.954  0.00  0.00    -0.275 N 
ATOM      6  C   UNL     1      33.771 -14.161 -22.078  0.00  0.00    +0.215 C 
ATOM      7  C   UNL     1      33.454 -13.044 -24.135  0.00  0.00    +0.107 C 
ATOM      8  C   UNL     1      35.008 -14.813 -21.496  0.00  0.00    +0.147 C 
ATOM      9  C   UNL     1      33.889 -12.065 -23.058  0.00  0.00    +0.164 C 
ATOM     10  C   UNL     1      34.117 -15.468 -24.165  0.00  0.00    +0.268 C 
ATOM     11  C   UNL     1      34.626 -16.562 -23.249  0.00  0.00    +0.143 C 
ATOM     12  C   UNL     1      31.962 -12.956 -24.438  0.00  0.00    +0.024 C 
ATOM     13  C   UNL     1      35.567 -17.196 -21.130  0.00  0.00    +0.074 C 
ATOM     14  C   UNL     1      34.669 -17.830 -23.709  0.00  0.00    +0.191 C 
ATOM     15  C   UNL     1      35.669 -18.489 -21.457  0.00  0.00    +0.110 C 
ATOM     16  C   UNL     1      35.197 -18.901 -22.806  0.00  0.00    +0.236 C 
ENDROOT
BRANCH  15  19
ATOM     17  O   UNL     1      37.252 -19.134 -19.847  0.00  0.00    -0.270 OA
ATOM     18  N   UNL     1      35.506 -20.590 -20.359  0.00  0.00    -0.297 N 
ATOM     19  C   UNL     1      36.232 -19.417 -20.476  0.00  0.00    +0.251 C 
ATOM     20  H   UNL     1      34.704 -20.700 -20.920  0.00  0.00    +0.150 HD
BRANCH  18  21
ATOM     21  C   UNL     1      35.862 -21.663 -19.458  0.00  0.00    +0.119 C 
BRANCH  21  24
ATOM     22  F   UNL     1      33.153 -21.132 -20.078  0.00  0.00    -0.204 F 
ATOM     23  F   UNL     1      31.612 -23.047 -16.034  0.00  0.00    -0.204 F 
ATOM     24  C   UNL     1      34.728 -22.031 -18.546  0.00  0.00    +0.025 C 
ATOM     25  C   UNL     1      33.414 -21.740 -18.912  0.00  0.00    +0.140 C 
ATOM     26  C   UNL     1      34.989 -22.666 -17.331  0.00  0.00    +0.002 C 
ATOM     27  C   UNL     1      32.361 -22.083 -18.064  0.00  0.00    +0.059 C 
ATOM     28  C   UNL     1      33.936 -23.008 -16.483  0.00  0.00    +0.030 C 
ATOM     29  C   UNL     1      32.622 -22.718 -16.849  0.00  0.00    +0.142 C 
ENDBRANCH  21  24
ENDBRANCH  18  21
ENDBRANCH  15  19
BRANCH  14  30
ATOM     30  O   UNL     1      34.245 -18.208 -24.963  0.00  0.00    -0.502 OA
ATOM     31  H   UNL     1      33.388 -18.567 -25.080  0.00  0.00    +0.292 HD
ENDBRANCH  14  30
TORSDOF 4
ENDMDL
