MODEL 1
REMARK VINA RESULT:     -10.5      0.000      0.000
REMARK  Name = 17749728
REMARK  5 active torsions:
REMARK  status: ('A' for Active; 'I' for Inactive)
REMARK    1  A    between atoms: C_3  and  C_23
REMARK    2  A    between atoms: C_6  and  S_11
REMARK    3  A    between atoms: S_11  and  N_14
REMARK    4  A    between atoms: N_14  and  C_17
REMARK    5  A    between atoms: C_23  and  C_25
REMARK                            x       y       z     vdW  Elec       q    Type
REMARK                         _______ _______ _______ _____ _____    ______ ____
ROOT
ATOM      1  O   UNL     1      33.844 -15.381 -20.127  0.00  0.00    -0.210 OA
ATOM      2  N   UNL     1      32.313 -13.648 -19.839  0.00  0.00    -0.333 NA
ATOM      3  C   UNL     1      33.772 -13.534 -21.653  0.00  0.00    +0.081 C 
ATOM      4  C   UNL     1      33.003 -12.446 -21.698  0.00  0.00    +0.040 C 
ATOM      5  C   UNL     1      32.115 -12.580 -20.538  0.00  0.00    +0.145 C 
ATOM      6  C   UNL     1      31.988 -10.382 -22.313  0.00  0.00    +0.126 C 
ATOM      7  C   UNL     1      32.913 -11.319 -22.577  0.00  0.00    +0.023 C 
ATOM      8  C   UNL     1      33.343 -14.319 -20.464  0.00  0.00    +0.201 C 
ATOM      9  C   UNL     1      31.125 -11.507 -20.311  0.00  0.00    +0.034 C 
ATOM     10  C   UNL     1      31.093 -10.478 -21.173  0.00  0.00    +0.023 C 
ENDROOT
BRANCH   6  11
ATOM     11  S   UNL     1      31.903  -9.036 -23.381  0.00  0.00    +0.077 S 
ATOM     12  O   UNL     1      32.285  -9.483 -24.714  0.00  0.00    -0.150 OA
ATOM     13  O   UNL     1      30.599  -8.405 -23.211  0.00  0.00    -0.150 OA
BRANCH  11  14
ATOM     14  N   UNL     1      33.105  -7.903 -22.819  0.00  0.00    -0.189 N 
ATOM     15  C   UNL     1      34.488  -8.093 -23.337  0.00  0.00    +0.139 C 
BRANCH  14  17
ATOM     16 CL   UNL     1      32.341  -3.316 -25.063  0.00  0.00    -0.082 Cl
ATOM     17  C   UNL     1      32.651  -6.532 -22.705  0.00  0.00    +0.070 C 
ATOM     18  C   UNL     1      32.707  -5.683 -23.811  0.00  0.00    +0.028 C 
ATOM     19  C   UNL     1      32.158  -6.061 -21.488  0.00  0.00    +0.016 C 
ATOM     20  C   UNL     1      32.270  -4.364 -23.700  0.00  0.00    +0.059 C 
ATOM     21  C   UNL     1      31.722  -4.741 -21.377  0.00  0.00    +0.002 C 
ATOM     22  C   UNL     1      31.778  -3.892 -22.483  0.00  0.00    +0.011 C 
ENDBRANCH  14  17
ENDBRANCH  11  14
ENDBRANCH   6  11
BRANCH   3  23
ATOM     23  C   UNL     1      34.865 -13.983 -22.546  0.00  0.00    +0.082 C 
BRANCH  23  25
ATOM     24  N   UNL     1      35.509 -16.376 -22.142  0.00  0.00    -0.360 N 
ATOM     25  C   UNL     1      34.843 -15.452 -22.905  0.00  0.00    +0.034 A 
ATOM     26  C   UNL     1      34.232 -16.122 -23.942  0.00  0.00    -0.013 A 
ATOM     27  C   UNL     1      34.543 -17.498 -23.799  0.00  0.00    -0.013 A 
ATOM     28  C   UNL     1      35.333 -17.626 -22.677  0.00  0.00    +0.029 A 
ATOM     29  C   UNL     1      33.406 -15.516 -25.006  0.00  0.00    +0.032 C 
ATOM     30  C   UNL     1      34.101 -18.593 -24.685  0.00  0.00    +0.032 C 
ATOM     31  C   UNL     1      35.946 -18.814 -22.053  0.00  0.00    +0.049 C 
ATOM     32  H   UNL     1      36.034 -16.173 -21.335  0.00  0.00    +0.165 HD
ENDBRANCH  23  25
ENDBRANCH   3  23
TORSDOF 5
ENDMDL
MODEL 2
REMARK VINA RESULT:     -10.4      2.730      4.550
REMARK  Name = 17749728
REMARK  5 active torsions:
REMARK  status: ('A' for Active; 'I' for Inactive)
REMARK    1  A    between atoms: C_3  and  C_23
REMARK    2  A    between atoms: C_6  and  S_11
REMARK    3  A    between atoms: S_11  and  N_14
REMARK    4  A    between atoms: N_14  and  C_17
REMARK    5  A    between atoms: C_23  and  C_25
REMARK                            x       y       z     vdW  Elec       q    Type
REMARK                         _______ _______ _______ _____ _____    ______ ____
ROOT
ATOM      1  O   UNL     1      31.626 -10.591 -17.868  0.00  0.00    -0.210 OA
ATOM      2  N   UNL     1      32.227  -8.477 -18.643  0.00  0.00    -0.333 NA
ATOM      3  C   UNL     1      31.444 -10.033 -20.192  0.00  0.00    +0.081 C 
ATOM      4  C   UNL     1      31.720  -8.914 -20.864  0.00  0.00    +0.040 C 
ATOM      5  C   UNL     1      32.204  -7.984 -19.837  0.00  0.00    +0.145 C 
ATOM      6  C   UNL     1      32.003  -7.276 -22.567  0.00  0.00    +0.126 C 
ATOM      7  C   UNL     1      31.632  -8.524 -22.238  0.00  0.00    +0.023 C 
ATOM      8  C   UNL     1      31.764  -9.771 -18.763  0.00  0.00    +0.201 C 
ATOM      9  C   UNL     1      32.597  -6.630 -20.277  0.00  0.00    +0.034 C 
ATOM     10  C   UNL     1      32.490  -6.328 -21.581  0.00  0.00    +0.023 C 
ENDROOT
BRANCH   6  11
ATOM     11  S   UNL     1      31.892  -6.832 -24.226  0.00  0.00    +0.077 S 
ATOM     12  O   UNL     1      31.822  -8.050 -25.023  0.00  0.00    -0.150 OA
ATOM     13  O   UNL     1      30.820  -5.853 -24.362  0.00  0.00    -0.150 OA
BRANCH  11  14
ATOM     14  N   UNL     1      33.389  -6.018 -24.604  0.00  0.00    -0.189 N 
ATOM     15  C   UNL     1      34.641  -6.779 -24.344  0.00  0.00    +0.139 C 
BRANCH  14  17
ATOM     16 CL   UNL     1      33.418  -5.857 -29.765  0.00  0.00    -0.082 Cl
ATOM     17  C   UNL     1      33.366  -5.224 -25.816  0.00  0.00    +0.070 C 
ATOM     18  C   UNL     1      33.399  -5.850 -27.061  0.00  0.00    +0.028 C 
ATOM     19  C   UNL     1      33.313  -3.832 -25.735  0.00  0.00    +0.016 C 
ATOM     20  C   UNL     1      33.377  -5.084 -28.227  0.00  0.00    +0.059 C 
ATOM     21  C   UNL     1      33.293  -3.067 -26.901  0.00  0.00    +0.002 C 
ATOM     22  C   UNL     1      33.325  -3.693 -28.147  0.00  0.00    +0.011 C 
ENDBRANCH  14  17
ENDBRANCH  11  14
ENDBRANCH   6  11
BRANCH   3  23
ATOM     23  C   UNL     1      30.922 -11.338 -20.661  0.00  0.00    +0.082 C 
BRANCH  23  25
ATOM     24  N   UNL     1      32.372 -11.973 -22.609  0.00  0.00    -0.360 N 
ATOM     25  C   UNL     1      31.936 -12.234 -21.336  0.00  0.00    +0.034 A 
ATOM     26  C   UNL     1      32.575 -13.371 -20.895  0.00  0.00    -0.013 A 
ATOM     27  C   UNL     1      33.426 -13.811 -21.940  0.00  0.00    -0.013 A 
ATOM     28  C   UNL     1      33.281 -12.927 -22.987  0.00  0.00    +0.029 A 
ATOM     29  C   UNL     1      32.404 -14.012 -19.575  0.00  0.00    +0.032 C 
ATOM     30  C   UNL     1      34.307 -14.996 -21.913  0.00  0.00    +0.032 C 
ATOM     31  C   UNL     1      33.914 -12.889 -24.320  0.00  0.00    +0.049 C 
ATOM     32  H   UNL     1      32.078 -11.217 -23.166  0.00  0.00    +0.165 HD
ENDBRANCH  23  25
ENDBRANCH   3  23
TORSDOF 5
ENDMDL
MODEL 3
REMARK VINA RESULT:     -10.3      2.604      4.284
REMARK  Name = 17749728
REMARK  5 active torsions:
REMARK  status: ('A' for Active; 'I' for Inactive)
REMARK    1  A    between atoms: C_3  and  C_23
REMARK    2  A    between atoms: C_6  and  S_11
REMARK    3  A    between atoms: S_11  and  N_14
REMARK    4  A    between atoms: N_14  and  C_17
REMARK    5  A    between atoms: C_23  and  C_25
REMARK                            x       y       z     vdW  Elec       q    Type
REMARK                         _______ _______ _______ _____ _____    ______ ____
ROOT
ATOM      1  O   UNL     1      31.580 -10.696 -17.787  0.00  0.00    -0.210 OA
ATOM      2  N   UNL     1      32.227  -8.586 -18.534  0.00  0.00    -0.333 NA
ATOM      3  C   UNL     1      31.438 -10.114 -20.107  0.00  0.00    +0.081 C 
ATOM      4  C   UNL     1      31.741  -8.994 -20.765  0.00  0.00    +0.040 C 
ATOM      5  C   UNL     1      32.228  -8.082 -19.724  0.00  0.00    +0.145 C 
ATOM      6  C   UNL     1      32.074  -7.345 -22.450  0.00  0.00    +0.126 C 
ATOM      7  C   UNL     1      31.678  -8.590 -22.137  0.00  0.00    +0.023 C 
ATOM      8  C   UNL     1      31.744  -9.871 -18.672  0.00  0.00    +0.201 C 
ATOM      9  C   UNL     1      32.650  -6.731 -20.146  0.00  0.00    +0.034 C 
ATOM     10  C   UNL     1      32.564  -6.415 -21.448  0.00  0.00    +0.023 C 
ENDROOT
BRANCH   6  11
ATOM     11  S   UNL     1      31.993  -6.885 -24.105  0.00  0.00    +0.077 S 
ATOM     12  O   UNL     1      32.739  -7.860 -24.890  0.00  0.00    -0.150 OA
ATOM     13  O   UNL     1      30.593  -6.652 -24.442  0.00  0.00    -0.150 OA
BRANCH  11  14
ATOM     14  N   UNL     1      32.816  -5.350 -24.216  0.00  0.00    -0.189 N 
ATOM     15  C   UNL     1      34.048  -5.318 -25.049  0.00  0.00    +0.139 C 
BRANCH  14  17
ATOM     16 CL   UNL     1      29.933  -1.786 -21.840  0.00  0.00    -0.082 Cl
ATOM     17  C   UNL     1      31.948  -4.194 -24.317  0.00  0.00    +0.070 C 
ATOM     18  C   UNL     1      31.421  -3.614 -23.164  0.00  0.00    +0.028 C 
ATOM     19  C   UNL     1      31.639  -3.663 -25.570  0.00  0.00    +0.016 C 
ATOM     20  C   UNL     1      30.585  -2.502 -23.263  0.00  0.00    +0.059 C 
ATOM     21  C   UNL     1      30.802  -2.552 -25.669  0.00  0.00    +0.002 C 
ATOM     22  C   UNL     1      30.275  -1.971 -24.515  0.00  0.00    +0.011 C 
ENDBRANCH  14  17
ENDBRANCH  11  14
ENDBRANCH   6  11
BRANCH   3  23
ATOM     23  C   UNL     1      30.899 -11.405 -20.595  0.00  0.00    +0.082 C 
BRANCH  23  25
ATOM     24  N   UNL     1      32.305 -12.004 -22.587  0.00  0.00    -0.360 N 
ATOM     25  C   UNL     1      31.894 -12.291 -21.311  0.00  0.00    +0.034 A 
ATOM     26  C   UNL     1      32.538 -13.440 -20.908  0.00  0.00    -0.013 A 
ATOM     27  C   UNL     1      33.364 -13.860 -21.980  0.00  0.00    -0.013 A 
ATOM     28  C   UNL     1      33.201 -12.954 -23.005  0.00  0.00    +0.029 A 
ATOM     29  C   UNL     1      32.393 -14.108 -19.599  0.00  0.00    +0.032 C 
ATOM     30  C   UNL     1      34.241 -15.049 -21.998  0.00  0.00    +0.032 C 
ATOM     31  C   UNL     1      33.806 -12.889 -24.349  0.00  0.00    +0.049 C 
ATOM     32  H   UNL     1      32.002 -11.235 -23.121  0.00  0.00    +0.165 HD
ENDBRANCH  23  25
ENDBRANCH   3  23
TORSDOF 5
ENDMDL
MODEL 4
REMARK VINA RESULT:     -10.3      3.524      8.995
REMARK  Name = 17749728
REMARK  5 active torsions:
REMARK  status: ('A' for Active; 'I' for Inactive)
REMARK    1  A    between atoms: C_3  and  C_23
REMARK    2  A    between atoms: C_6  and  S_11
REMARK    3  A    between atoms: S_11  and  N_14
REMARK    4  A    between atoms: N_14  and  C_17
REMARK    5  A    between atoms: C_23  and  C_25
REMARK                            x       y       z     vdW  Elec       q    Type
REMARK                         _______ _______ _______ _____ _____    ______ ____
ROOT
ATOM      1  O   UNL     1      31.516  -6.170 -20.947  0.00  0.00    -0.210 OA
ATOM      2  N   UNL     1      31.833  -7.955 -19.482  0.00  0.00    -0.333 NA
ATOM      3  C   UNL     1      31.672  -8.420 -21.761  0.00  0.00    +0.081 C 
ATOM      4  C   UNL     1      31.849  -9.583 -21.134  0.00  0.00    +0.040 C 
ATOM      5  C   UNL     1      31.942  -9.221 -19.715  0.00  0.00    +0.145 C 
ATOM      6  C   UNL     1      32.137 -11.891 -20.625  0.00  0.00    +0.126 C 
ATOM      7  C   UNL     1      31.951 -10.946 -21.561  0.00  0.00    +0.023 C 
ATOM      8  C   UNL     1      31.658  -7.361 -20.715  0.00  0.00    +0.201 C 
ATOM      9  C   UNL     1      32.144 -10.316 -18.744  0.00  0.00    +0.034 C 
ATOM     10  C   UNL     1      32.231 -11.572 -19.212  0.00  0.00    +0.023 C 
ENDROOT
BRANCH   6  11
ATOM     11  S   UNL     1      32.252 -13.521 -21.163  0.00  0.00    +0.077 S 
ATOM     12  O   UNL     1      31.844 -14.395 -20.071  0.00  0.00    -0.150 OA
ATOM     13  O   UNL     1      31.547 -13.629 -22.435  0.00  0.00    -0.150 OA
BRANCH  11  14
ATOM     14  N   UNL     1      33.945 -13.801 -21.483  0.00  0.00    -0.189 N 
ATOM     15  C   UNL     1      34.856 -13.763 -20.307  0.00  0.00    +0.139 C 
BRANCH  14  17
ATOM     16 CL   UNL     1      35.913 -18.448 -22.575  0.00  0.00    -0.082 Cl
ATOM     17  C   UNL     1      34.221 -14.825 -22.470  0.00  0.00    +0.070 C 
ATOM     18  C   UNL     1      34.859 -16.006 -22.091  0.00  0.00    +0.028 C 
ATOM     19  C   UNL     1      33.851 -14.628 -23.800  0.00  0.00    +0.016 C 
ATOM     20  C   UNL     1      35.125 -16.991 -23.042  0.00  0.00    +0.059 C 
ATOM     21  C   UNL     1      34.118 -15.613 -24.751  0.00  0.00    +0.002 C 
ATOM     22  C   UNL     1      34.756 -16.794 -24.372  0.00  0.00    +0.011 C 
ENDBRANCH  14  17
ENDBRANCH  11  14
ENDBRANCH   6  11
BRANCH   3  23
ATOM     23  C   UNL     1      31.509  -8.113 -23.201  0.00  0.00    +0.082 C 
BRANCH  23  25
ATOM     24  N   UNL     1      32.123  -5.906 -24.227  0.00  0.00    -0.360 N 
ATOM     25  C   UNL     1      32.514  -7.137 -23.771  0.00  0.00    +0.034 A 
ATOM     26  C   UNL     1      33.877  -7.239 -23.945  0.00  0.00    -0.013 A 
ATOM     27  C   UNL     1      34.320  -6.025 -24.527  0.00  0.00    -0.013 A 
ATOM     28  C   UNL     1      33.215  -5.219 -24.690  0.00  0.00    +0.029 A 
ATOM     29  C   UNL     1      34.718  -8.400 -23.588  0.00  0.00    +0.032 C 
ATOM     30  C   UNL     1      35.711  -5.685 -24.892  0.00  0.00    +0.032 C 
ATOM     31  C   UNL     1      33.080  -3.858 -25.243  0.00  0.00    +0.049 C 
ATOM     32  H   UNL     1      31.199  -5.566 -24.224  0.00  0.00    +0.165 HD
ENDBRANCH  23  25
ENDBRANCH   3  23
TORSDOF 5
ENDMDL
MODEL 5
REMARK VINA RESULT:     -10.2      2.800      4.859
REMARK  Name = 17749728
REMARK  5 active torsions:
REMARK  status: ('A' for Active; 'I' for Inactive)
REMARK    1  A    between atoms: C_3  and  C_23
REMARK    2  A    between atoms: C_6  and  S_11
REMARK    3  A    between atoms: S_11  and  N_14
REMARK    4  A    between atoms: N_14  and  C_17
REMARK    5  A    between atoms: C_23  and  C_25
REMARK                            x       y       z     vdW  Elec       q    Type
REMARK                         _______ _______ _______ _____ _____    ______ ____
ROOT
ATOM      1  O   UNL     1      35.190 -18.871 -23.794  0.00  0.00    -0.210 OA
ATOM      2  N   UNL     1      34.109 -17.207 -25.016  0.00  0.00    -0.333 NA
ATOM      3  C   UNL     1      34.898 -16.671 -22.889  0.00  0.00    +0.081 C 
ATOM      4  C   UNL     1      34.325 -15.573 -23.384  0.00  0.00    +0.040 C 
ATOM      5  C   UNL     1      33.854 -15.977 -24.713  0.00  0.00    +0.145 C 
ATOM      6  C   UNL     1      33.489 -13.365 -23.692  0.00  0.00    +0.126 C 
ATOM      7  C   UNL     1      34.123 -14.242 -22.896  0.00  0.00    +0.023 C 
ATOM      8  C   UNL     1      34.768 -17.732 -23.924  0.00  0.00    +0.201 C 
ATOM      9  C   UNL     1      33.162 -14.958 -25.529  0.00  0.00    +0.034 C 
ATOM     10  C   UNL     1      33.005 -13.728 -25.012  0.00  0.00    +0.023 C 
ENDROOT
BRANCH   6  11
ATOM     11  S   UNL     1      33.254 -11.774 -23.081  0.00  0.00    +0.077 S 
ATOM     12  O   UNL     1      34.496 -11.335 -22.457  0.00  0.00    -0.150 OA
ATOM     13  O   UNL     1      32.691 -10.957 -24.150  0.00  0.00    -0.150 OA
BRANCH  11  14
ATOM     14  N   UNL     1      32.037 -11.913 -21.838  0.00  0.00    -0.189 N 
ATOM     15  C   UNL     1      31.868 -13.258 -21.224  0.00  0.00    +0.139 C 
BRANCH  14  17
ATOM     16 CL   UNL     1      31.770  -6.797 -21.193  0.00  0.00    -0.082 Cl
ATOM     17  C   UNL     1      31.953 -10.785 -20.934  0.00  0.00    +0.070 C 
ATOM     18  C   UNL     1      31.907  -9.486 -21.440  0.00  0.00    +0.028 C 
ATOM     19  C   UNL     1      31.919 -10.998 -19.555  0.00  0.00    +0.016 C 
ATOM     20  C   UNL     1      31.826  -8.400 -20.568  0.00  0.00    +0.059 C 
ATOM     21  C   UNL     1      31.840  -9.912 -18.684  0.00  0.00    +0.002 C 
ATOM     22  C   UNL     1      31.793  -8.613 -19.190  0.00  0.00    +0.011 C 
ENDBRANCH  14  17
ENDBRANCH  11  14
ENDBRANCH   6  11
BRANCH   3  23
ATOM     23  C   UNL     1      35.563 -16.911 -21.587  0.00  0.00    +0.082 C 
BRANCH  23  25
ATOM     24  N   UNL     1      34.085 -18.770 -20.773  0.00  0.00    -0.360 N 
ATOM     25  C   UNL     1      35.348 -18.287 -20.997  0.00  0.00    +0.034 A 
ATOM     26  C   UNL     1      36.247 -19.252 -20.599  0.00  0.00    -0.013 A 
ATOM     27  C   UNL     1      35.497 -20.354 -20.116  0.00  0.00    -0.013 A 
ATOM     28  C   UNL     1      34.164 -20.029 -20.236  0.00  0.00    +0.029 A 
ATOM     29  C   UNL     1      37.719 -19.154 -20.665  0.00  0.00    +0.032 C 
ATOM     30  C   UNL     1      36.043 -21.620 -19.585  0.00  0.00    +0.032 C 
ATOM     31  C   UNL     1      32.945 -20.788 -19.893  0.00  0.00    +0.049 C 
ATOM     32  H   UNL     1      33.250 -18.287 -20.966  0.00  0.00    +0.165 HD
ENDBRANCH  23  25
ENDBRANCH   3  23
TORSDOF 5
ENDMDL
MODEL 6
REMARK VINA RESULT:     -10.1      2.552      4.142
REMARK  Name = 17749728
REMARK  5 active torsions:
REMARK  status: ('A' for Active; 'I' for Inactive)
REMARK    1  A    between atoms: C_3  and  C_23
REMARK    2  A    between atoms: C_6  and  S_11
REMARK    3  A    between atoms: S_11  and  N_14
REMARK    4  A    between atoms: N_14  and  C_17
REMARK    5  A    between atoms: C_23  and  C_25
REMARK                            x       y       z     vdW  Elec       q    Type
REMARK                         _______ _______ _______ _____ _____    ______ ____
ROOT
ATOM      1  O   UNL     1      31.843 -10.720 -18.040  0.00  0.00    -0.210 OA
ATOM      2  N   UNL     1      32.370  -8.555 -18.725  0.00  0.00    -0.333 NA
ATOM      3  C   UNL     1      31.569 -10.050 -20.325  0.00  0.00    +0.081 C 
ATOM      4  C   UNL     1      31.796  -8.892 -20.947  0.00  0.00    +0.040 C 
ATOM      5  C   UNL     1      32.295  -8.004 -19.891  0.00  0.00    +0.145 C 
ATOM      6  C   UNL     1      31.984  -7.164 -22.573  0.00  0.00    +0.126 C 
ATOM      7  C   UNL     1      31.652  -8.436 -22.296  0.00  0.00    +0.023 C 
ATOM      8  C   UNL     1      31.932  -9.853 -18.895  0.00  0.00    +0.201 C 
ATOM      9  C   UNL     1      32.643  -6.620 -20.274  0.00  0.00    +0.034 C 
ATOM     10  C   UNL     1      32.483  -6.256 -21.556  0.00  0.00    +0.023 C 
ENDROOT
BRANCH   6  11
ATOM     11  S   UNL     1      31.806  -6.640 -24.202  0.00  0.00    +0.077 S 
ATOM     12  O   UNL     1      32.104  -7.765 -25.081  0.00  0.00    -0.150 OA
ATOM     13  O   UNL     1      30.508  -5.988 -24.329  0.00  0.00    -0.150 OA
BRANCH  11  14
ATOM     14  N   UNL     1      33.028  -5.418 -24.448  0.00  0.00    -0.189 N 
ATOM     15  C   UNL     1      34.415  -5.905 -24.678  0.00  0.00    +0.139 C 
BRANCH  14  17
ATOM     16 CL   UNL     1      31.758  -3.528 -29.082  0.00  0.00    -0.082 Cl
ATOM     17  C   UNL     1      32.609  -4.285 -25.248  0.00  0.00    +0.070 C 
ATOM     18  C   UNL     1      32.408  -4.435 -26.619  0.00  0.00    +0.028 C 
ATOM     19  C   UNL     1      32.410  -3.043 -24.645  0.00  0.00    +0.016 C 
ATOM     20  C   UNL     1      32.006  -3.343 -27.388  0.00  0.00    +0.059 C 
ATOM     21  C   UNL     1      32.009  -1.951 -25.414  0.00  0.00    +0.002 C 
ATOM     22  C   UNL     1      31.807  -2.101 -26.786  0.00  0.00    +0.011 C 
ENDBRANCH  14  17
ENDBRANCH  11  14
ENDBRANCH   6  11
BRANCH   3  23
ATOM     23  C   UNL     1      31.059 -11.341 -20.842  0.00  0.00    +0.082 C 
BRANCH  23  25
ATOM     24  N   UNL     1      32.520 -13.284 -20.214  0.00  0.00    -0.360 N 
ATOM     25  C   UNL     1      32.119 -12.374 -21.156  0.00  0.00    +0.034 A 
ATOM     26  C   UNL     1      32.837 -12.613 -22.307  0.00  0.00    -0.013 A 
ATOM     27  C   UNL     1      33.701 -13.706 -22.047  0.00  0.00    -0.013 A 
ATOM     28  C   UNL     1      33.483 -14.102 -20.746  0.00  0.00    +0.029 A 
ATOM     29  C   UNL     1      32.724 -11.867 -23.577  0.00  0.00    +0.032 C 
ATOM     30  C   UNL     1      34.657 -14.312 -22.996  0.00  0.00    +0.032 C 
ATOM     31  C   UNL     1      34.095 -15.178 -19.944  0.00  0.00    +0.049 C 
ATOM     32  H   UNL     1      32.170 -13.342 -19.295  0.00  0.00    +0.165 HD
ENDBRANCH  23  25
ENDBRANCH   3  23
TORSDOF 5
ENDMDL
MODEL 7
REMARK VINA RESULT:     -10.0      4.128      9.629
REMARK  Name = 17749728
REMARK  5 active torsions:
REMARK  status: ('A' for Active; 'I' for Inactive)
REMARK    1  A    between atoms: C_3  and  C_23
REMARK    2  A    between atoms: C_6  and  S_11
REMARK    3  A    between atoms: S_11  and  N_14
REMARK    4  A    between atoms: N_14  and  C_17
REMARK    5  A    between atoms: C_23  and  C_25
REMARK                            x       y       z     vdW  Elec       q    Type
REMARK                         _______ _______ _______ _____ _____    ______ ____
ROOT
ATOM      1  O   UNL     1      31.266 -10.712 -19.962  0.00  0.00    -0.210 OA
ATOM      2  N   UNL     1      32.296 -12.753 -19.509  0.00  0.00    -0.333 NA
ATOM      3  C   UNL     1      32.298 -11.986 -21.710  0.00  0.00    +0.081 C 
ATOM      4  C   UNL     1      32.937 -13.157 -21.701  0.00  0.00    +0.040 C 
ATOM      5  C   UNL     1      32.900 -13.580 -20.297  0.00  0.00    +0.145 C 
ATOM      6  C   UNL     1      34.135 -15.117 -22.323  0.00  0.00    +0.126 C 
ATOM      7  C   UNL     1      33.570 -13.960 -22.703  0.00  0.00    +0.023 C 
ATOM      8  C   UNL     1      31.878 -11.710 -20.310  0.00  0.00    +0.201 C 
ATOM      9  C   UNL     1      33.539 -14.868 -19.957  0.00  0.00    +0.034 C 
ATOM     10  C   UNL     1      34.116 -15.572 -20.944  0.00  0.00    +0.023 C 
ENDROOT
BRANCH   6  11
ATOM     11  S   UNL     1      34.885 -16.067 -23.546  0.00  0.00    +0.077 S 
ATOM     12  O   UNL     1      34.357 -15.650 -24.839  0.00  0.00    -0.150 OA
ATOM     13  O   UNL     1      36.328 -16.015 -23.339  0.00  0.00    -0.150 OA
BRANCH  11  14
ATOM     14  N   UNL     1      34.377 -17.711 -23.254  0.00  0.00    -0.189 N 
ATOM     15  C   UNL     1      33.997 -18.509 -24.451  0.00  0.00    +0.139 C 
BRANCH  14  17
ATOM     16 CL   UNL     1      34.428 -21.170 -19.421  0.00  0.00    -0.082 Cl
ATOM     17  C   UNL     1      35.128 -18.412 -22.233  0.00  0.00    +0.070 C 
ATOM     18  C   UNL     1      34.491 -19.345 -21.415  0.00  0.00    +0.028 C 
ATOM     19  C   UNL     1      36.489 -18.153 -22.067  0.00  0.00    +0.016 C 
ATOM     20  C   UNL     1      35.215 -20.019 -20.431  0.00  0.00    +0.059 C 
ATOM     21  C   UNL     1      37.212 -18.826 -21.083  0.00  0.00    +0.002 C 
ATOM     22  C   UNL     1      36.575 -19.760 -20.265  0.00  0.00    +0.011 C 
ENDBRANCH  14  17
ENDBRANCH  11  14
ENDBRANCH   6  11
BRANCH   3  23
ATOM     23  C   UNL     1      32.003 -11.055 -22.824  0.00  0.00    +0.082 C 
BRANCH  23  25
ATOM     24  N   UNL     1      32.134  -8.633 -22.178  0.00  0.00    -0.360 N 
ATOM     25  C   UNL     1      32.721  -9.725 -22.761  0.00  0.00    +0.034 A 
ATOM     26  C   UNL     1      33.965  -9.346 -23.214  0.00  0.00    -0.013 A 
ATOM     27  C   UNL     1      34.133  -7.976 -22.892  0.00  0.00    -0.013 A 
ATOM     28  C   UNL     1      32.986  -7.561 -22.252  0.00  0.00    +0.029 A 
ATOM     29  C   UNL     1      34.943 -10.210 -23.906  0.00  0.00    +0.032 C 
ATOM     30  C   UNL     1      35.318  -7.145 -23.186  0.00  0.00    +0.032 C 
ATOM     31  C   UNL     1      32.605  -6.247 -21.698  0.00  0.00    +0.049 C 
ATOM     32  H   UNL     1      31.239  -8.619 -21.769  0.00  0.00    +0.165 HD
ENDBRANCH  23  25
ENDBRANCH   3  23
TORSDOF 5
ENDMDL
MODEL 8
REMARK VINA RESULT:      -9.9      3.176      5.663
REMARK  Name = 17749728
REMARK  5 active torsions:
REMARK  status: ('A' for Active; 'I' for Inactive)
REMARK    1  A    between atoms: C_3  and  C_23
REMARK    2  A    between atoms: C_6  and  S_11
REMARK    3  A    between atoms: S_11  and  N_14
REMARK    4  A    between atoms: N_14  and  C_17
REMARK    5  A    between atoms: C_23  and  C_25
REMARK                            x       y       z     vdW  Elec       q    Type
REMARK                         _______ _______ _______ _____ _____    ______ ____
ROOT
ATOM      1  O   UNL     1      35.354 -20.286 -23.857  0.00  0.00    -0.210 OA
ATOM      2  N   UNL     1      34.180 -18.478 -24.742  0.00  0.00    -0.333 NA
ATOM      3  C   UNL     1      35.424 -18.136 -22.800  0.00  0.00    +0.081 C 
ATOM      4  C   UNL     1      34.850 -16.972 -23.110  0.00  0.00    +0.040 C 
ATOM      5  C   UNL     1      34.088 -17.257 -24.332  0.00  0.00    +0.145 C 
ATOM      6  C   UNL     1      34.142 -14.700 -23.126  0.00  0.00    +0.126 C 
ATOM      7  C   UNL     1      34.854 -15.667 -22.524  0.00  0.00    +0.023 C 
ATOM      8  C   UNL     1      35.005 -19.116 -23.838  0.00  0.00    +0.201 C 
ATOM      9  C   UNL     1      33.327 -16.143 -24.933  0.00  0.00    +0.034 C 
ATOM     10  C   UNL     1      33.374 -14.943 -24.334  0.00  0.00    +0.023 C 
ENDROOT
BRANCH   6  11
ATOM     11  S   UNL     1      34.160 -13.140 -22.400  0.00  0.00    +0.077 S 
ATOM     12  O   UNL     1      35.018 -13.191 -21.223  0.00  0.00    -0.150 OA
ATOM     13  O   UNL     1      34.468 -12.161 -23.437  0.00  0.00    -0.150 OA
BRANCH  11  14
ATOM     14  N   UNL     1      32.525 -12.839 -21.871  0.00  0.00    -0.189 N 
ATOM     15  C   UNL     1      31.992 -13.745 -20.818  0.00  0.00    +0.139 C 
BRANCH  14  17
ATOM     16 CL   UNL     1      31.583  -8.784 -18.816  0.00  0.00    -0.082 Cl
ATOM     17  C   UNL     1      32.167 -11.441 -21.750  0.00  0.00    +0.070 C 
ATOM     18  C   UNL     1      32.060 -10.855 -20.488  0.00  0.00    +0.028 C 
ATOM     19  C   UNL     1      31.926 -10.681 -22.895  0.00  0.00    +0.016 C 
ATOM     20  C   UNL     1      31.715  -9.508 -20.373  0.00  0.00    +0.059 C 
ATOM     21  C   UNL     1      31.580  -9.335 -22.779  0.00  0.00    +0.002 C 
ATOM     22  C   UNL     1      31.474  -8.748 -21.517  0.00  0.00    +0.011 C 
ENDBRANCH  14  17
ENDBRANCH  11  14
ENDBRANCH   6  11
BRANCH   3  23
ATOM     23  C   UNL     1      36.318 -18.504 -21.678  0.00  0.00    +0.082 C 
BRANCH  23  25
ATOM     24  N   UNL     1      36.571 -20.196 -19.840  0.00  0.00    -0.360 N 
ATOM     25  C   UNL     1      35.756 -19.524 -20.713  0.00  0.00    +0.034 A 
ATOM     26  C   UNL     1      34.466 -19.962 -20.509  0.00  0.00    -0.013 A 
ATOM     27  C   UNL     1      34.508 -20.933 -19.477  0.00  0.00    -0.013 A 
ATOM     28  C   UNL     1      35.822 -21.057 -19.082  0.00  0.00    +0.029 A 
ATOM     29  C   UNL     1      33.263 -19.503 -21.232  0.00  0.00    +0.032 C 
ATOM     30  C   UNL     1      33.357 -21.675 -18.924  0.00  0.00    +0.032 C 
ATOM     31  C   UNL     1      36.451 -21.911 -18.056  0.00  0.00    +0.049 C 
ATOM     32  H   UNL     1      37.546 -20.078 -19.770  0.00  0.00    +0.165 HD
ENDBRANCH  23  25
ENDBRANCH   3  23
TORSDOF 5
ENDMDL
MODEL 9
REMARK VINA RESULT:      -9.7      7.935     13.330
REMARK  Name = 17749728
REMARK  5 active torsions:
REMARK  status: ('A' for Active; 'I' for Inactive)
REMARK    1  A    between atoms: C_3  and  C_23
REMARK    2  A    between atoms: C_6  and  S_11
REMARK    3  A    between atoms: S_11  and  N_14
REMARK    4  A    between atoms: N_14  and  C_17
REMARK    5  A    between atoms: C_23  and  C_25
REMARK                            x       y       z     vdW  Elec       q    Type
REMARK                         _______ _______ _______ _____ _____    ______ ____
ROOT
ATOM      1  O   UNL     1      37.735 -18.504 -21.154  0.00  0.00    -0.210 OA
ATOM      2  N   UNL     1      37.780 -19.847 -19.250  0.00  0.00    -0.333 NA
ATOM      3  C   UNL     1      35.833 -19.823 -20.531  0.00  0.00    +0.081 C 
ATOM      4  C   UNL     1      35.621 -20.653 -19.509  0.00  0.00    +0.040 C 
ATOM      5  C   UNL     1      36.876 -20.621 -18.749  0.00  0.00    +0.145 C 
ATOM      6  C   UNL     1      34.660 -22.199 -17.974  0.00  0.00    +0.126 C 
ATOM      7  C   UNL     1      34.518 -21.462 -19.088  0.00  0.00    +0.023 C 
ATOM      8  C   UNL     1      37.216 -19.295 -20.381  0.00  0.00    +0.201 C 
ATOM      9  C   UNL     1      36.956 -21.456 -17.532  0.00  0.00    +0.034 C 
ATOM     10  C   UNL     1      35.885 -22.192 -17.194  0.00  0.00    +0.023 C 
ENDROOT
BRANCH   6  11
ATOM     11  S   UNL     1      33.319 -23.159 -17.487  0.00  0.00    +0.077 S 
ATOM     12  O   UNL     1      32.105 -22.371 -17.658  0.00  0.00    -0.150 OA
ATOM     13  O   UNL     1      33.410 -24.445 -18.170  0.00  0.00    -0.150 OA
BRANCH  11  14
ATOM     14  N   UNL     1      33.540 -23.460 -15.782  0.00  0.00    -0.189 N 
ATOM     15  C   UNL     1      34.392 -22.489 -15.043  0.00  0.00    +0.139 C 
BRANCH  14  17
ATOM     16 CL   UNL     1      28.389 -23.687 -15.493  0.00  0.00    -0.082 Cl
ATOM     17  C   UNL     1      32.361 -23.932 -15.085  0.00  0.00    +0.070 C 
ATOM     18  C   UNL     1      31.091 -23.619 -15.569  0.00  0.00    +0.028 C 
ATOM     19  C   UNL     1      32.497 -24.699 -13.927  0.00  0.00    +0.016 C 
ATOM     20  C   UNL     1      29.957 -24.074 -14.897  0.00  0.00    +0.059 C 
ATOM     21  C   UNL     1      31.363 -25.153 -13.255  0.00  0.00    +0.002 C 
ATOM     22  C   UNL     1      30.092 -24.840 -13.739  0.00  0.00    +0.011 C 
ENDBRANCH  14  17
ENDBRANCH  11  14
ENDBRANCH   6  11
BRANCH   3  23
ATOM     23  C   UNL     1      34.950 -19.426 -21.652  0.00  0.00    +0.082 C 
BRANCH  23  25
ATOM     24  N   UNL     1      34.875 -17.051 -20.842  0.00  0.00    -0.360 N 
ATOM     25  C   UNL     1      34.837 -17.936 -21.888  0.00  0.00    +0.034 A 
ATOM     26  C   UNL     1      34.688 -17.212 -23.050  0.00  0.00    -0.013 A 
ATOM     27  C   UNL     1      34.634 -15.842 -22.690  0.00  0.00    -0.013 A 
ATOM     28  C   UNL     1      34.752 -15.772 -21.319  0.00  0.00    +0.029 A 
ATOM     29  C   UNL     1      34.603 -17.763 -24.417  0.00  0.00    +0.032 C 
ATOM     30  C   UNL     1      34.480 -14.699 -23.612  0.00  0.00    +0.032 C 
ATOM     31  C   UNL     1      34.760 -14.615 -20.403  0.00  0.00    +0.049 C 
ATOM     32  H   UNL     1      34.974 -17.296 -19.894  0.00  0.00    +0.165 HD
ENDBRANCH  23  25
ENDBRANCH   3  23
TORSDOF 5
ENDMDL
