MODEL 1
REMARK VINA RESULT:     -12.1      0.000      0.000
REMARK  Name = 24743471
REMARK  3 active torsions:
REMARK  status: ('A' for Active; 'I' for Inactive)
REMARK    1  A    between atoms: C_1  and  N_7
REMARK    2  A    between atoms: C_6  and  C_17
REMARK    3  A    between atoms: C_22  and  N_24
REMARK                            x       y       z     vdW  Elec       q    Type
REMARK                         _______ _______ _______ _____ _____    ______ ____
ROOT
ATOM      1  C   UNL     1      36.097 -23.369 -15.339  0.00  0.00    +0.048 C 
ATOM      2  C   UNL     1      34.894 -23.480 -16.036  0.00  0.00    +0.015 C 
ATOM      3  C   UNL     1      37.091 -22.503 -15.797  0.00  0.00    +0.015 C 
ATOM      4  C   UNL     1      34.684 -22.726 -17.191  0.00  0.00    +0.001 C 
ATOM      5  C   UNL     1      36.880 -21.748 -16.952  0.00  0.00    +0.001 C 
ATOM      6  C   UNL     1      35.676 -21.861 -17.648  0.00  0.00    +0.000 C 
ENDROOT
BRANCH   1   7
ATOM      7  N   UNL     1      36.307 -24.114 -14.196  0.00  0.00    -0.311 N 
ATOM      8  N   UNL     1      38.862 -26.423 -13.621  0.00  0.00    +0.387 N 
ATOM      9  C   UNL     1      36.825 -25.881 -12.691  0.00  0.00    -0.003 C 
ATOM     10  C   UNL     1      36.746 -25.513 -14.182  0.00  0.00    +0.050 C 
ATOM     11  C   UNL     1      36.016 -24.817 -11.970  0.00  0.00    +0.021 C 
ATOM     12  C   UNL     1      38.315 -25.886 -12.376  0.00  0.00    -0.076 C 
ATOM     13  C   UNL     1      38.183 -25.685 -14.690  0.00  0.00    -0.057 C 
ATOM     14  C   UNL     1      36.159 -23.576 -12.845  0.00  0.00    +0.091 C 
ATOM     15  C   UNL     1      40.310 -26.300 -13.691  0.00  0.00    -0.101 C 
ATOM     16  H   UNL     1      38.696 -27.428 -13.698  0.00  0.00    -0.080 HD
ENDBRANCH   1   7
BRANCH   6  17
ATOM     17  C   UNL     1      35.458 -21.078 -18.846  0.00  0.00    +0.000 C 
ATOM     18  C   UNL     1      36.537 -20.459 -19.478  0.00  0.00    +0.001 C 
ATOM     19  C   UNL     1      34.172 -20.943 -19.366  0.00  0.00    +0.001 C 
ATOM     20  C   UNL     1      36.327 -19.704 -20.633  0.00  0.00    +0.017 C 
ATOM     21  C   UNL     1      33.963 -20.188 -20.521  0.00  0.00    +0.017 C 
ATOM     22  C   UNL     1      35.041 -19.569 -21.154  0.00  0.00    +0.077 C 
BRANCH  22  24
ATOM     23  O   UNL     1      35.654 -16.698 -21.643  0.00  0.00    -0.268 OA
ATOM     24  N   UNL     1      34.824 -18.787 -22.349  0.00  0.00    -0.155 N 
ATOM     25  N   UNL     1      34.295 -19.518 -23.387  0.00  0.00    -0.170 NA
ATOM     26  C   UNL     1      35.122 -17.426 -22.481  0.00  0.00    +0.272 C 
ATOM     27  C   UNL     1      34.776 -16.791 -23.777  0.00  0.00    +0.062 C 
ATOM     28  C   UNL     1      34.038 -18.911 -24.494  0.00  0.00    +0.118 C 
ATOM     29  C   UNL     1      34.249 -17.495 -24.772  0.00  0.00    +0.027 C 
ENDBRANCH  22  24
ENDBRANCH   6  17
TORSDOF 3
ENDMDL
MODEL 2
REMARK VINA RESULT:     -10.7      1.111      2.300
REMARK  Name = 24743471
REMARK  3 active torsions:
REMARK  status: ('A' for Active; 'I' for Inactive)
REMARK    1  A    between atoms: C_1  and  N_7
REMARK    2  A    between atoms: C_6  and  C_17
REMARK    3  A    between atoms: C_22  and  N_24
REMARK                            x       y       z     vdW  Elec       q    Type
REMARK                         _______ _______ _______ _____ _____    ______ ____
ROOT
ATOM      1  C   UNL     1      36.592 -23.728 -15.290  0.00  0.00    +0.048 C 
ATOM      2  C   UNL     1      37.599 -22.897 -15.781  0.00  0.00    +0.015 C 
ATOM      3  C   UNL     1      35.332 -23.726 -15.888  0.00  0.00    +0.015 C 
ATOM      4  C   UNL     1      37.346 -22.063 -16.870  0.00  0.00    +0.001 C 
ATOM      5  C   UNL     1      35.079 -22.892 -16.978  0.00  0.00    +0.001 C 
ATOM      6  C   UNL     1      36.087 -22.061 -17.468  0.00  0.00    +0.000 C 
ENDROOT
BRANCH   1   7
ATOM      7  N   UNL     1      36.842 -24.556 -14.212  0.00  0.00    -0.311 N 
ATOM      8  N   UNL     1      37.214 -23.613 -10.871  0.00  0.00    +0.387 N 
ATOM      9  C   UNL     1      37.678 -25.454 -12.176  0.00  0.00    -0.003 C 
ATOM     10  C   UNL     1      37.738 -24.227 -13.101  0.00  0.00    +0.050 C 
ATOM     11  C   UNL     1      37.097 -26.571 -13.026  0.00  0.00    +0.021 C 
ATOM     12  C   UNL     1      36.808 -25.011 -11.007  0.00  0.00    -0.076 C 
ATOM     13  C   UNL     1      37.209 -23.076 -12.236  0.00  0.00    -0.057 C 
ATOM     14  C   UNL     1      36.197 -25.854 -14.027  0.00  0.00    +0.091 C 
ATOM     15  C   UNL     1      36.345 -22.865  -9.976  0.00  0.00    -0.101 C 
ATOM     16  H   UNL     1      38.138 -23.532 -10.443  0.00  0.00    -0.080 HD
ENDBRANCH   1   7
BRANCH   6  17
ATOM     17  C   UNL     1      35.823 -21.196 -18.598  0.00  0.00    +0.000 C 
ATOM     18  C   UNL     1      34.539 -21.127 -19.138  0.00  0.00    +0.001 C 
ATOM     19  C   UNL     1      36.853 -20.432 -19.147  0.00  0.00    +0.001 C 
ATOM     20  C   UNL     1      34.285 -20.293 -20.227  0.00  0.00    +0.017 C 
ATOM     21  C   UNL     1      36.599 -19.598 -20.236  0.00  0.00    +0.017 C 
ATOM     22  C   UNL     1      35.314 -19.529 -20.776  0.00  0.00    +0.077 C 
BRANCH  22  24
ATOM     23  O   UNL     1      35.429 -16.560 -20.919  0.00  0.00    -0.268 OA
ATOM     24  N   UNL     1      35.051 -18.666 -21.904  0.00  0.00    -0.155 N 
ATOM     25  N   UNL     1      34.745 -19.354 -23.055  0.00  0.00    -0.170 NA
ATOM     26  C   UNL     1      35.104 -17.268 -21.871  0.00  0.00    +0.272 C 
ATOM     27  C   UNL     1      34.749 -16.558 -23.126  0.00  0.00    +0.062 C 
ATOM     28  C   UNL     1      34.467 -18.678 -24.116  0.00  0.00    +0.118 C 
ATOM     29  C   UNL     1      34.436 -17.225 -24.231  0.00  0.00    +0.027 C 
ENDBRANCH  22  24
ENDBRANCH   6  17
TORSDOF 3
ENDMDL
MODEL 3
REMARK VINA RESULT:     -10.7      9.454     16.561
REMARK  Name = 24743471
REMARK  3 active torsions:
REMARK  status: ('A' for Active; 'I' for Inactive)
REMARK    1  A    between atoms: C_1  and  N_7
REMARK    2  A    between atoms: C_6  and  C_17
REMARK    3  A    between atoms: C_22  and  N_24
REMARK                            x       y       z     vdW  Elec       q    Type
REMARK                         _______ _______ _______ _____ _____    ______ ____
ROOT
ATOM      1  C   UNL     1      31.749  -6.794 -22.557  0.00  0.00    +0.048 C 
ATOM      2  C   UNL     1      30.827  -7.742 -23.000  0.00  0.00    +0.015 C 
ATOM      3  C   UNL     1      33.059  -7.177 -22.267  0.00  0.00    +0.015 C 
ATOM      4  C   UNL     1      31.215  -9.074 -23.153  0.00  0.00    +0.001 C 
ATOM      5  C   UNL     1      33.446  -8.508 -22.421  0.00  0.00    +0.001 C 
ATOM      6  C   UNL     1      32.523  -9.456 -22.864  0.00  0.00    +0.000 C 
ENDROOT
BRANCH   1   7
ATOM      7  N   UNL     1      31.367  -5.475 -22.406  0.00  0.00    -0.311 N 
ATOM      8  N   UNL     1      31.626  -2.919 -24.770  0.00  0.00    +0.387 N 
ATOM      9  C   UNL     1      31.292  -3.100 -22.497  0.00  0.00    -0.003 C 
ATOM     10  C   UNL     1      32.115  -4.327 -22.926  0.00  0.00    +0.050 C 
ATOM     11  C   UNL     1      30.370  -3.598 -21.399  0.00  0.00    +0.021 C 
ATOM     12  C   UNL     1      30.594  -2.644 -23.772  0.00  0.00    -0.076 C 
ATOM     13  C   UNL     1      32.112  -4.267 -24.459  0.00  0.00    -0.057 C 
ATOM     14  C   UNL     1      30.132  -5.065 -21.740  0.00  0.00    +0.091 C 
ATOM     15  C   UNL     1      31.126  -2.809 -26.132  0.00  0.00    -0.101 C 
ATOM     16  H   UNL     1      32.380  -2.232 -24.727  0.00  0.00    -0.080 HD
ENDBRANCH   1   7
BRANCH   6  17
ATOM     17  C   UNL     1      32.926 -10.837 -23.023  0.00  0.00    +0.000 C 
ATOM     18  C   UNL     1      33.931 -11.169 -23.932  0.00  0.00    +0.001 C 
ATOM     19  C   UNL     1      32.309 -11.835 -22.269  0.00  0.00    +0.001 C 
ATOM     20  C   UNL     1      34.320 -12.500 -24.086  0.00  0.00    +0.017 C 
ATOM     21  C   UNL     1      32.698 -13.166 -22.422  0.00  0.00    +0.017 C 
ATOM     22  C   UNL     1      33.703 -13.498 -23.332  0.00  0.00    +0.077 C 
BRANCH  22  24
ATOM     23  O   UNL     1      33.341 -15.288 -25.681  0.00  0.00    -0.268 OA
ATOM     24  N   UNL     1      34.105 -14.876 -23.491  0.00  0.00    -0.155 N 
ATOM     25  N   UNL     1      34.774 -15.377 -22.398  0.00  0.00    -0.170 NA
ATOM     26  C   UNL     1      33.868 -15.653 -24.630  0.00  0.00    +0.272 C 
ATOM     27  C   UNL     1      34.316 -17.067 -24.578  0.00  0.00    +0.062 C 
ATOM     28  C   UNL     1      35.156 -16.607 -22.425  0.00  0.00    +0.118 C 
ATOM     29  C   UNL     1      34.946 -17.553 -23.514  0.00  0.00    +0.027 C 
ENDBRANCH  22  24
ENDBRANCH   6  17
TORSDOF 3
ENDMDL
MODEL 4
REMARK VINA RESULT:     -10.6      1.407      2.237
REMARK  Name = 24743471
REMARK  3 active torsions:
REMARK  status: ('A' for Active; 'I' for Inactive)
REMARK    1  A    between atoms: C_1  and  N_7
REMARK    2  A    between atoms: C_6  and  C_17
REMARK    3  A    between atoms: C_22  and  N_24
REMARK                            x       y       z     vdW  Elec       q    Type
REMARK                         _______ _______ _______ _____ _____    ______ ____
ROOT
ATOM      1  C   UNL     1      36.565 -23.668 -15.381  0.00  0.00    +0.048 C 
ATOM      2  C   UNL     1      35.307 -23.621 -15.981  0.00  0.00    +0.015 C 
ATOM      3  C   UNL     1      37.593 -22.849 -15.851  0.00  0.00    +0.015 C 
ATOM      4  C   UNL     1      35.076 -22.757 -17.052  0.00  0.00    +0.001 C 
ATOM      5  C   UNL     1      37.361 -21.985 -16.921  0.00  0.00    +0.001 C 
ATOM      6  C   UNL     1      36.103 -21.940 -17.521  0.00  0.00    +0.000 C 
ENDROOT
BRANCH   1   7
ATOM      7  N   UNL     1      36.794 -24.522 -14.320  0.00  0.00    -0.311 N 
ATOM      8  N   UNL     1      37.232 -23.652 -10.967  0.00  0.00    +0.387 N 
ATOM      9  C   UNL     1      37.618 -25.486 -12.308  0.00  0.00    -0.003 C 
ATOM     10  C   UNL     1      37.713 -24.245 -13.212  0.00  0.00    +0.050 C 
ATOM     11  C   UNL     1      36.989 -26.565 -13.171  0.00  0.00    +0.021 C 
ATOM     12  C   UNL     1      36.775 -25.032 -11.123  0.00  0.00    -0.076 C 
ATOM     13  C   UNL     1      37.233 -23.091 -12.322  0.00  0.00    -0.057 C 
ATOM     14  C   UNL     1      36.106 -25.799 -14.151  0.00  0.00    +0.091 C 
ATOM     15  C   UNL     1      36.399 -22.890 -10.050  0.00  0.00    -0.101 C 
ATOM     16  H   UNL     1      38.162 -23.612 -10.547  0.00  0.00    -0.080 HD
ENDBRANCH   1   7
BRANCH   6  17
ATOM     17  C   UNL     1      35.864 -21.043 -18.632  0.00  0.00    +0.000 C 
ATOM     18  C   UNL     1      36.907 -20.265 -19.135  0.00  0.00    +0.001 C 
ATOM     19  C   UNL     1      34.592 -20.956 -19.197  0.00  0.00    +0.001 C 
ATOM     20  C   UNL     1      36.677 -19.400 -20.206  0.00  0.00    +0.017 C 
ATOM     21  C   UNL     1      34.362 -20.091 -20.268  0.00  0.00    +0.017 C 
ATOM     22  C   UNL     1      35.405 -19.313 -20.771  0.00  0.00    +0.077 C 
BRANCH  22  24
ATOM     23  O   UNL     1      34.686 -19.974 -23.582  0.00  0.00    -0.268 OA
ATOM     24  N   UNL     1      35.168 -18.418 -21.880  0.00  0.00    -0.155 N 
ATOM     25  N   UNL     1      35.262 -17.090 -21.536  0.00  0.00    -0.170 NA
ATOM     26  C   UNL     1      34.858 -18.823 -23.183  0.00  0.00    +0.272 C 
ATOM     27  C   UNL     1      34.700 -17.747 -24.195  0.00  0.00    +0.062 C 
ATOM     28  C   UNL     1      35.093 -16.205 -22.457  0.00  0.00    +0.118 C 
ATOM     29  C   UNL     1      34.809 -16.466 -23.863  0.00  0.00    +0.027 C 
ENDBRANCH  22  24
ENDBRANCH   6  17
TORSDOF 3
ENDMDL
MODEL 5
REMARK VINA RESULT:     -10.4      6.596     13.856
REMARK  Name = 24743471
REMARK  3 active torsions:
REMARK  status: ('A' for Active; 'I' for Inactive)
REMARK    1  A    between atoms: C_1  and  N_7
REMARK    2  A    between atoms: C_6  and  C_17
REMARK    3  A    between atoms: C_22  and  N_24
REMARK                            x       y       z     vdW  Elec       q    Type
REMARK                         _______ _______ _______ _____ _____    ______ ____
ROOT
ATOM      1  C   UNL     1      32.501 -10.563 -23.069  0.00  0.00    +0.048 C 
ATOM      2  C   UNL     1      33.663 -11.047 -23.670  0.00  0.00    +0.015 C 
ATOM      3  C   UNL     1      31.837 -11.334 -22.114  0.00  0.00    +0.015 C 
ATOM      4  C   UNL     1      34.160 -12.302 -23.318  0.00  0.00    +0.001 C 
ATOM      5  C   UNL     1      32.335 -12.589 -21.762  0.00  0.00    +0.001 C 
ATOM      6  C   UNL     1      33.497 -13.072 -22.364  0.00  0.00    +0.000 C 
ENDROOT
BRANCH   1   7
ATOM      7  N   UNL     1      32.008  -9.321 -23.416  0.00  0.00    -0.311 N 
ATOM      8  N   UNL     1      31.698  -6.522 -21.353  0.00  0.00    +0.387 N 
ATOM      9  C   UNL     1      30.879  -7.228 -23.387  0.00  0.00    -0.003 C 
ATOM     10  C   UNL     1      31.159  -8.492 -22.556  0.00  0.00    +0.050 C 
ATOM     11  C   UNL     1      31.222  -7.603 -24.818  0.00  0.00    +0.021 C 
ATOM     12  C   UNL     1      31.768  -6.158 -22.767  0.00  0.00    -0.076 C 
ATOM     13  C   UNL     1      31.901  -7.973 -21.318  0.00  0.00    -0.057 C 
ATOM     14  C   UNL     1      32.317  -8.656 -24.681  0.00  0.00    +0.091 C 
ATOM     15  C   UNL     1      32.673  -5.804 -20.545  0.00  0.00    -0.101 C 
ATOM     16  H   UNL     1      30.800  -6.261 -20.944  0.00  0.00    -0.080 HD
ENDBRANCH   1   7
BRANCH   6  17
ATOM     17  C   UNL     1      34.012 -14.374 -21.998  0.00  0.00    +0.000 C 
ATOM     18  C   UNL     1      34.447 -15.255 -22.988  0.00  0.00    +0.001 C 
ATOM     19  C   UNL     1      34.074 -14.747 -20.656  0.00  0.00    +0.001 C 
ATOM     20  C   UNL     1      34.944 -16.510 -22.636  0.00  0.00    +0.017 C 
ATOM     21  C   UNL     1      34.571 -16.002 -20.303  0.00  0.00    +0.017 C 
ATOM     22  C   UNL     1      35.005 -16.883 -21.294  0.00  0.00    +0.077 C 
BRANCH  22  24
ATOM     23  O   UNL     1      33.524 -19.434 -20.905  0.00  0.00    -0.268 OA
ATOM     24  N   UNL     1      35.520 -18.183 -20.929  0.00  0.00    -0.155 N 
ATOM     25  N   UNL     1      36.888 -18.205 -20.788  0.00  0.00    -0.170 NA
ATOM     26  C   UNL     1      34.739 -19.329 -20.741  0.00  0.00    +0.272 C 
ATOM     27  C   UNL     1      35.454 -20.559 -20.317  0.00  0.00    +0.062 C 
ATOM     28  C   UNL     1      37.449 -19.311 -20.438  0.00  0.00    +0.118 C 
ATOM     29  C   UNL     1      36.773 -20.574 -20.164  0.00  0.00    +0.027 C 
ENDBRANCH  22  24
ENDBRANCH   6  17
TORSDOF 3
ENDMDL
MODEL 6
REMARK VINA RESULT:     -10.0      6.505     13.949
REMARK  Name = 24743471
REMARK  3 active torsions:
REMARK  status: ('A' for Active; 'I' for Inactive)
REMARK    1  A    between atoms: C_1  and  N_7
REMARK    2  A    between atoms: C_6  and  C_17
REMARK    3  A    between atoms: C_22  and  N_24
REMARK                            x       y       z     vdW  Elec       q    Type
REMARK                         _______ _______ _______ _____ _____    ______ ____
ROOT
ATOM      1  C   UNL     1      32.792 -10.454 -23.014  0.00  0.00    +0.048 C 
ATOM      2  C   UNL     1      33.756 -11.093 -23.794  0.00  0.00    +0.015 C 
ATOM      3  C   UNL     1      32.268 -11.093 -21.890  0.00  0.00    +0.015 C 
ATOM      4  C   UNL     1      34.196 -12.372 -23.449  0.00  0.00    +0.001 C 
ATOM      5  C   UNL     1      32.709 -12.371 -21.545  0.00  0.00    +0.001 C 
ATOM      6  C   UNL     1      33.673 -13.010 -22.326  0.00  0.00    +0.000 C 
ENDROOT
BRANCH   1   7
ATOM      7  N   UNL     1      32.356  -9.188 -23.353  0.00  0.00    -0.311 N 
ATOM      8  N   UNL     1      34.301  -6.309 -23.697  0.00  0.00    +0.387 N 
ATOM      9  C   UNL     1      32.070  -6.829 -23.460  0.00  0.00    -0.003 C 
ATOM     10  C   UNL     1      32.865  -7.947 -22.762  0.00  0.00    +0.050 C 
ATOM     11  C   UNL     1      30.867  -7.519 -24.081  0.00  0.00    +0.021 C 
ATOM     12  C   UNL     1      33.053  -6.223 -24.452  0.00  0.00    -0.076 C 
ATOM     13  C   UNL     1      34.324  -7.666 -23.142  0.00  0.00    -0.057 C 
ATOM     14  C   UNL     1      31.357  -8.930 -24.388  0.00  0.00    +0.091 C 
ATOM     15  C   UNL     1      35.469  -6.024 -24.518  0.00  0.00    -0.101 C 
ATOM     16  H   UNL     1      34.340  -5.604 -22.959  0.00  0.00    -0.080 HD
ENDBRANCH   1   7
BRANCH   6  17
ATOM     17  C   UNL     1      34.129 -14.336 -21.968  0.00  0.00    +0.000 C 
ATOM     18  C   UNL     1      34.192 -14.712 -20.626  0.00  0.00    +0.001 C 
ATOM     19  C   UNL     1      34.506 -15.236 -22.964  0.00  0.00    +0.001 C 
ATOM     20  C   UNL     1      34.632 -15.990 -20.281  0.00  0.00    +0.017 C 
ATOM     21  C   UNL     1      34.945 -16.514 -22.619  0.00  0.00    +0.017 C 
ATOM     22  C   UNL     1      35.008 -16.891 -21.277  0.00  0.00    +0.077 C 
BRANCH  22  24
ATOM     23  O   UNL     1      33.463 -19.431 -21.177  0.00  0.00    -0.268 OA
ATOM     24  N   UNL     1      35.464 -18.214 -20.919  0.00  0.00    -0.155 N 
ATOM     25  N   UNL     1      36.807 -18.267 -20.628  0.00  0.00    -0.170 NA
ATOM     26  C   UNL     1      34.653 -19.354 -20.874  0.00  0.00    +0.272 C 
ATOM     27  C   UNL     1      35.301 -20.615 -20.432  0.00  0.00    +0.062 C 
ATOM     28  C   UNL     1      37.312 -19.397 -20.271  0.00  0.00    +0.118 C 
ATOM     29  C   UNL     1      36.594 -20.659 -20.134  0.00  0.00    +0.027 C 
ENDBRANCH  22  24
ENDBRANCH   6  17
TORSDOF 3
ENDMDL
MODEL 7
REMARK VINA RESULT:      -9.8      7.943     15.331
REMARK  Name = 24743471
REMARK  3 active torsions:
REMARK  status: ('A' for Active; 'I' for Inactive)
REMARK    1  A    between atoms: C_1  and  N_7
REMARK    2  A    between atoms: C_6  and  C_17
REMARK    3  A    between atoms: C_22  and  N_24
REMARK                            x       y       z     vdW  Elec       q    Type
REMARK                         _______ _______ _______ _____ _____    ______ ____
ROOT
ATOM      1  C   UNL     1      32.472  -8.484 -22.980  0.00  0.00    +0.048 C 
ATOM      2  C   UNL     1      31.565  -9.456 -22.559  0.00  0.00    +0.015 C 
ATOM      3  C   UNL     1      33.739  -8.859 -23.428  0.00  0.00    +0.015 C 
ATOM      4  C   UNL     1      31.925 -10.804 -22.585  0.00  0.00    +0.001 C 
ATOM      5  C   UNL     1      34.098 -10.207 -23.454  0.00  0.00    +0.001 C 
ATOM      6  C   UNL     1      33.191 -11.178 -23.032  0.00  0.00    +0.000 C 
ENDROOT
BRANCH   1   7
ATOM      7  N   UNL     1      32.117  -7.150 -22.955  0.00  0.00    -0.311 N 
ATOM      8  N   UNL     1      32.874  -4.721 -25.347  0.00  0.00    +0.387 N 
ATOM      9  C   UNL     1      32.144  -4.780 -23.163  0.00  0.00    -0.003 C 
ATOM     10  C   UNL     1      32.984  -6.049 -23.386  0.00  0.00    +0.050 C 
ATOM     11  C   UNL     1      31.027  -5.198 -22.222  0.00  0.00    +0.021 C 
ATOM     12  C   UNL     1      31.695  -4.368 -24.558  0.00  0.00    -0.076 C 
ATOM     13  C   UNL     1      33.251  -6.065 -24.897  0.00  0.00    -0.057 C 
ATOM     14  C   UNL     1      30.800  -6.673 -22.536  0.00  0.00    +0.091 C 
ATOM     15  C   UNL     1      32.623  -4.664 -26.779  0.00  0.00    -0.101 C 
ATOM     16  H   UNL     1      33.633  -4.053 -25.203  0.00  0.00    -0.080 HD
ENDBRANCH   1   7
BRANCH   6  17
ATOM     17  C   UNL     1      33.564 -12.577 -23.060  0.00  0.00    +0.000 C 
ATOM     18  C   UNL     1      33.980 -13.210 -21.888  0.00  0.00    +0.001 C 
ATOM     19  C   UNL     1      33.510 -13.290 -24.257  0.00  0.00    +0.001 C 
ATOM     20  C   UNL     1      34.340 -14.557 -21.914  0.00  0.00    +0.017 C 
ATOM     21  C   UNL     1      33.871 -14.637 -24.283  0.00  0.00    +0.017 C 
ATOM     22  C   UNL     1      34.286 -15.270 -23.111  0.00  0.00    +0.077 C 
BRANCH  22  24
ATOM     23  O   UNL     1      33.632 -17.338 -25.148  0.00  0.00    -0.268 OA
ATOM     24  N   UNL     1      34.659 -16.665 -23.138  0.00  0.00    -0.155 N 
ATOM     25  N   UNL     1      35.454 -17.036 -22.078  0.00  0.00    -0.170 NA
ATOM     26  C   UNL     1      34.281 -17.576 -24.130  0.00  0.00    +0.272 C 
ATOM     27  C   UNL     1      34.725 -18.981 -23.950  0.00  0.00    +0.062 C 
ATOM     28  C   UNL     1      35.824 -18.267 -21.991  0.00  0.00    +0.118 C 
ATOM     29  C   UNL     1      35.478 -19.340 -22.916  0.00  0.00    +0.027 C 
ENDBRANCH  22  24
ENDBRANCH   6  17
TORSDOF 3
ENDMDL
MODEL 8
REMARK VINA RESULT:      -9.6      7.762     15.238
REMARK  Name = 24743471
REMARK  3 active torsions:
REMARK  status: ('A' for Active; 'I' for Inactive)
REMARK    1  A    between atoms: C_1  and  N_7
REMARK    2  A    between atoms: C_6  and  C_17
REMARK    3  A    between atoms: C_22  and  N_24
REMARK                            x       y       z     vdW  Elec       q    Type
REMARK                         _______ _______ _______ _____ _____    ______ ____
ROOT
ATOM      1  C   UNL     1      33.356  -8.553 -23.828  0.00  0.00    +0.048 C 
ATOM      2  C   UNL     1      34.656  -9.056 -23.863  0.00  0.00    +0.015 C 
ATOM      3  C   UNL     1      32.280  -9.415 -23.611  0.00  0.00    +0.015 C 
ATOM      4  C   UNL     1      34.881 -10.421 -23.682  0.00  0.00    +0.001 C 
ATOM      5  C   UNL     1      32.506 -10.779 -23.429  0.00  0.00    +0.001 C 
ATOM      6  C   UNL     1      33.807 -11.282 -23.465  0.00  0.00    +0.000 C 
ENDROOT
BRANCH   1   7
ATOM      7  N   UNL     1      33.131  -7.202 -24.006  0.00  0.00    -0.311 N 
ATOM      8  N   UNL     1      30.490  -5.315 -22.721  0.00  0.00    +0.387 N 
ATOM      9  C   UNL     1      32.092  -5.092 -24.361  0.00  0.00    -0.003 C 
ATOM     10  C   UNL     1      31.812  -6.598 -24.213  0.00  0.00    +0.050 C 
ATOM     11  C   UNL     1      33.577  -4.987 -24.660  0.00  0.00    +0.021 C 
ATOM     12  C   UNL     1      31.656  -4.490 -23.032  0.00  0.00    -0.076 C 
ATOM     13  C   UNL     1      30.917  -6.695 -22.971  0.00  0.00    -0.057 C 
ATOM     14  C   UNL     1      34.191  -6.196 -23.962  0.00  0.00    +0.091 C 
ATOM     15  C   UNL     1      30.016  -5.118 -21.359  0.00  0.00    -0.101 C 
ATOM     16  H   UNL     1      29.688  -5.062 -23.300  0.00  0.00    -0.080 HD
ENDBRANCH   1   7
BRANCH   6  17
ATOM     17  C   UNL     1      34.040 -12.698 -23.277  0.00  0.00    +0.000 C 
ATOM     18  C   UNL     1      34.407 -13.182 -22.021  0.00  0.00    +0.001 C 
ATOM     19  C   UNL     1      33.897 -13.577 -24.350  0.00  0.00    +0.001 C 
ATOM     20  C   UNL     1      34.632 -14.547 -21.840  0.00  0.00    +0.017 C 
ATOM     21  C   UNL     1      34.122 -14.941 -24.168  0.00  0.00    +0.017 C 
ATOM     22  C   UNL     1      34.490 -15.426 -22.913  0.00  0.00    +0.077 C 
BRANCH  22  24
ATOM     23  O   UNL     1      34.162 -17.647 -24.865  0.00  0.00    -0.268 OA
ATOM     24  N   UNL     1      34.723 -16.839 -22.725  0.00  0.00    -0.155 N 
ATOM     25  N   UNL     1      35.192 -17.150 -21.470  0.00  0.00    -0.170 NA
ATOM     26  C   UNL     1      34.515 -17.821 -23.699  0.00  0.00    +0.272 C 
ATOM     27  C   UNL     1      34.764 -19.227 -23.292  0.00  0.00    +0.062 C 
ATOM     28  C   UNL     1      35.409 -18.388 -21.187  0.00  0.00    +0.118 C 
ATOM     29  C   UNL     1      35.201 -19.526 -22.074  0.00  0.00    +0.027 C 
ENDBRANCH  22  24
ENDBRANCH   6  17
TORSDOF 3
ENDMDL
MODEL 9
REMARK VINA RESULT:      -9.2      6.873     11.649
REMARK  Name = 24743471
REMARK  3 active torsions:
REMARK  status: ('A' for Active; 'I' for Inactive)
REMARK    1  A    between atoms: C_1  and  N_7
REMARK    2  A    between atoms: C_6  and  C_17
REMARK    3  A    between atoms: C_22  and  N_24
REMARK                            x       y       z     vdW  Elec       q    Type
REMARK                         _______ _______ _______ _____ _____    ______ ____
ROOT
ATOM      1  C   UNL     1      34.237 -15.594 -23.373  0.00  0.00    +0.048 C 
ATOM      2  C   UNL     1      33.541 -14.907 -24.367  0.00  0.00    +0.015 C 
ATOM      3  C   UNL     1      34.602 -14.938 -22.197  0.00  0.00    +0.015 C 
ATOM      4  C   UNL     1      33.211 -13.564 -24.187  0.00  0.00    +0.001 C 
ATOM      5  C   UNL     1      34.270 -13.595 -22.016  0.00  0.00    +0.001 C 
ATOM      6  C   UNL     1      33.575 -12.909 -23.012  0.00  0.00    +0.000 C 
ENDROOT
BRANCH   1   7
ATOM      7  N   UNL     1      34.564 -16.924 -23.550  0.00  0.00    -0.311 N 
ATOM      8  N   UNL     1      34.960 -19.348 -21.067  0.00  0.00    +0.387 N 
ATOM      9  C   UNL     1      35.506 -19.093 -23.291  0.00  0.00    -0.003 C 
ATOM     10  C   UNL     1      35.466 -17.683 -22.678  0.00  0.00    +0.050 C 
ATOM     11  C   UNL     1      34.974 -18.932 -24.705  0.00  0.00    +0.021 C 
ATOM     12  C   UNL     1      34.639 -19.937 -22.366  0.00  0.00    -0.076 C 
ATOM     13  C   UNL     1      34.887 -17.898 -21.274  0.00  0.00    -0.057 C 
ATOM     14  C   UNL     1      34.006 -17.757 -24.613  0.00  0.00    +0.091 C 
ATOM     15  C   UNL     1      34.068 -19.805 -20.012  0.00  0.00    -0.101 C 
ATOM     16  H   UNL     1      35.887 -19.632 -20.747  0.00  0.00    -0.080 HD
ENDBRANCH   1   7
BRANCH   6  17
ATOM     17  C   UNL     1      33.233 -11.515 -22.824  0.00  0.00    +0.000 C 
ATOM     18  C   UNL     1      32.177 -11.165 -21.981  0.00  0.00    +0.001 C 
ATOM     19  C   UNL     1      33.956 -10.524 -23.485  0.00  0.00    +0.001 C 
ATOM     20  C   UNL     1      31.846  -9.822 -21.799  0.00  0.00    +0.017 C 
ATOM     21  C   UNL     1      33.625  -9.180 -23.304  0.00  0.00    +0.017 C 
ATOM     22  C   UNL     1      32.570  -8.830 -22.461  0.00  0.00    +0.077 C 
BRANCH  22  24
ATOM     23  O   UNL     1      33.313  -7.012 -20.226  0.00  0.00    -0.268 OA
ATOM     24  N   UNL     1      32.227  -7.440 -22.273  0.00  0.00    -0.155 N 
ATOM     25  N   UNL     1      31.488  -6.917 -23.308  0.00  0.00    -0.170 NA
ATOM     26  C   UNL     1      32.602  -6.665 -21.169  0.00  0.00    +0.272 C 
ATOM     27  C   UNL     1      32.106  -5.266 -21.137  0.00  0.00    +0.062 C 
ATOM     28  C   UNL     1      31.106  -5.689 -23.229  0.00  0.00    +0.118 C 
ATOM     29  C   UNL     1      31.377  -4.770 -22.130  0.00  0.00    +0.027 C 
ENDBRANCH  22  24
ENDBRANCH   6  17
TORSDOF 3
ENDMDL
