MODEL 1
REMARK VINA RESULT:     -11.3      0.000      0.000
REMARK  Name = 9896504
REMARK  6 active torsions:
REMARK  status: ('A' for Active; 'I' for Inactive)
REMARK    1  A    between atoms: N_4  and  C_22
REMARK    2  A    between atoms: C_11  and  C_13
REMARK    3  A    between atoms: C_13  and  O_14
REMARK    4  A    between atoms: O_14  and  C_15
REMARK    5  A    between atoms: C_15  and  C_16
REMARK    6  A    between atoms: C_22  and  C_23
REMARK                            x       y       z     vdW  Elec       q    Type
REMARK                         _______ _______ _______ _____ _____    ______ ____
ROOT
ATOM      1  S   UNL     1      34.062 -15.298 -20.209  0.00  0.00    -0.064 S 
ATOM      2  O   UNL     1      33.362 -12.424 -24.134  0.00  0.00    -0.251 OA
ATOM      3  O   UNL     1      31.634 -10.855 -20.072  0.00  0.00    -0.269 OA
ATOM      4  N   UNL     1      32.483 -11.578 -22.134  0.00  0.00    -0.206 N 
ATOM      5  N   UNL     1      33.603 -13.649 -22.191  0.00  0.00    -0.214 N 
ATOM      6  C   UNL     1      33.400 -13.813 -20.839  0.00  0.00    +0.094 C 
ATOM      7  C   UNL     1      33.169 -12.544 -22.922  0.00  0.00    +0.321 C 
ATOM      8  C   UNL     1      32.236 -11.685 -20.753  0.00  0.00    +0.258 C 
ATOM      9  C   UNL     1      32.755 -12.912 -20.098  0.00  0.00    +0.080 C 
ATOM     10  C   UNL     1      34.290 -14.726 -22.701  0.00  0.00    +0.087 C 
ATOM     11  C   UNL     1      34.599 -15.661 -21.803  0.00  0.00    +0.122 C 
ENDROOT
BRANCH  11  13
ATOM     12  O   UNL     1      35.649 -17.241 -23.225  0.00  0.00    -0.244 OA
ATOM     13  C   UNL     1      35.319 -16.889 -22.095  0.00  0.00    +0.349 C 
BRANCH  13  14
ATOM     14  O   UNL     1      35.556 -17.556 -20.932  0.00  0.00    -0.440 OA
BRANCH  14  15
ATOM     15  C   UNL     1      36.223 -18.815 -21.061  0.00  0.00    +0.235 C 
BRANCH  15  16
ATOM     16  C   UNL     1      35.425 -19.866 -20.346  0.00  0.00    +0.021 C 
ATOM     17  C   UNL     1      34.041 -19.889 -20.478  0.00  0.00    -0.001 C 
ATOM     18  C   UNL     1      36.076 -20.809 -19.558  0.00  0.00    -0.001 C 
ATOM     19  C   UNL     1      33.299 -20.867 -19.814  0.00  0.00    -0.000 C 
ATOM     20  C   UNL     1      35.335 -21.786 -18.894  0.00  0.00    -0.000 C 
ATOM     21  C   UNL     1      33.947 -21.815 -19.023  0.00  0.00    -0.000 C 
ENDBRANCH  15  16
ENDBRANCH  14  15
ENDBRANCH  13  14
ENDBRANCH  11  13
BRANCH   4  22
ATOM     22  C   UNL     1      31.983 -10.376 -22.791  0.00  0.00    +0.129 C 
BRANCH  22  23
ATOM     23  C   UNL     1      32.966  -9.244 -22.716  0.00  0.00    -0.002 C 
ATOM     24  C   UNL     1      34.117  -9.281 -23.493  0.00  0.00    -0.003 C 
ATOM     25  C   UNL     1      32.714  -8.170 -21.871  0.00  0.00    -0.003 C 
ATOM     26  C   UNL     1      35.032  -8.230 -23.424  0.00  0.00    -0.000 C 
ATOM     27  C   UNL     1      33.627  -7.117 -21.802  0.00  0.00    -0.000 C 
ATOM     28  C   UNL     1      34.786  -7.148 -22.578  0.00  0.00    -0.000 C 
ENDBRANCH  22  23
ENDBRANCH   4  22
TORSDOF 6
ENDMDL
MODEL 2
REMARK VINA RESULT:     -11.3      2.253      9.368
REMARK  Name = 9896504
REMARK  6 active torsions:
REMARK  status: ('A' for Active; 'I' for Inactive)
REMARK    1  A    between atoms: N_4  and  C_22
REMARK    2  A    between atoms: C_11  and  C_13
REMARK    3  A    between atoms: C_13  and  O_14
REMARK    4  A    between atoms: O_14  and  C_15
REMARK    5  A    between atoms: C_15  and  C_16
REMARK    6  A    between atoms: C_22  and  C_23
REMARK                            x       y       z     vdW  Elec       q    Type
REMARK                         _______ _______ _______ _____ _____    ______ ____
ROOT
ATOM      1  S   UNL     1      33.723 -15.216 -24.617  0.00  0.00    -0.064 S 
ATOM      2  O   UNL     1      35.734 -16.696 -20.384  0.00  0.00    -0.251 OA
ATOM      3  O   UNL     1      35.217 -19.967 -23.697  0.00  0.00    -0.269 OA
ATOM      4  N   UNL     1      35.512 -18.377 -22.002  0.00  0.00    -0.206 N 
ATOM      5  N   UNL     1      34.808 -16.172 -22.434  0.00  0.00    -0.214 N 
ATOM      6  C   UNL     1      34.400 -16.534 -23.698  0.00  0.00    +0.094 C 
ATOM      7  C   UNL     1      35.381 -17.047 -21.513  0.00  0.00    +0.321 C 
ATOM      8  C   UNL     1      35.112 -18.815 -23.277  0.00  0.00    +0.258 C 
ATOM      9  C   UNL     1      34.519 -17.779 -24.158  0.00  0.00    +0.080 C 
ATOM     10  C   UNL     1      34.566 -14.834 -22.223  0.00  0.00    +0.087 C 
ATOM     11  C   UNL     1      34.009 -14.203 -23.257  0.00  0.00    +0.122 C 
ENDROOT
BRANCH  11  13
ATOM     12  O   UNL     1      34.219 -11.955 -23.981  0.00  0.00    -0.244 OA
ATOM     13  C   UNL     1      33.658 -12.793 -23.279  0.00  0.00    +0.349 C 
BRANCH  13  14
ATOM     14  O   UNL     1      32.631 -12.574 -22.412  0.00  0.00    -0.440 OA
BRANCH  14  15
ATOM     15  C   UNL     1      31.979 -11.305 -22.526  0.00  0.00    +0.235 C 
BRANCH  15  16
ATOM     16  C   UNL     1      31.926 -10.659 -21.173  0.00  0.00    +0.021 C 
ATOM     17  C   UNL     1      31.931  -9.273 -21.070  0.00  0.00    -0.001 C 
ATOM     18  C   UNL     1      31.872 -11.454 -20.032  0.00  0.00    -0.001 C 
ATOM     19  C   UNL     1      31.881  -8.673 -19.812  0.00  0.00    -0.000 C 
ATOM     20  C   UNL     1      31.822 -10.853 -18.774  0.00  0.00    -0.000 C 
ATOM     21  C   UNL     1      31.826  -9.463 -18.665  0.00  0.00    -0.000 C 
ENDBRANCH  15  16
ENDBRANCH  14  15
ENDBRANCH  13  14
ENDBRANCH  11  13
BRANCH   4  22
ATOM     22  C   UNL     1      36.102 -19.382 -21.124  0.00  0.00    +0.129 C 
BRANCH  22  23
ATOM     23  C   UNL     1      35.056 -20.160 -20.380  0.00  0.00    -0.002 C 
ATOM     24  C   UNL     1      35.436 -21.238 -19.589  0.00  0.00    -0.003 C 
ATOM     25  C   UNL     1      33.720 -19.794 -20.487  0.00  0.00    -0.003 C 
ATOM     26  C   UNL     1      34.465 -21.962 -18.896  0.00  0.00    -0.000 C 
ATOM     27  C   UNL     1      32.749 -20.517 -19.794  0.00  0.00    -0.000 C 
ATOM     28  C   UNL     1      33.121 -21.601 -18.999  0.00  0.00    -0.000 C 
ENDBRANCH  22  23
ENDBRANCH   4  22
TORSDOF 6
ENDMDL
MODEL 3
REMARK VINA RESULT:     -11.1      4.625      7.789
REMARK  Name = 9896504
REMARK  6 active torsions:
REMARK  status: ('A' for Active; 'I' for Inactive)
REMARK    1  A    between atoms: N_4  and  C_22
REMARK    2  A    between atoms: C_11  and  C_13
REMARK    3  A    between atoms: C_13  and  O_14
REMARK    4  A    between atoms: O_14  and  C_15
REMARK    5  A    between atoms: C_15  and  C_16
REMARK    6  A    between atoms: C_22  and  C_23
REMARK                            x       y       z     vdW  Elec       q    Type
REMARK                         _______ _______ _______ _____ _____    ______ ____
ROOT
ATOM      1  S   UNL     1      36.078 -21.879 -18.134  0.00  0.00    -0.064 S 
ATOM      2  O   UNL     1      33.544 -19.652 -21.707  0.00  0.00    -0.251 OA
ATOM      3  O   UNL     1      38.027 -18.379 -21.233  0.00  0.00    -0.269 OA
ATOM      4  N   UNL     1      35.781 -18.978 -21.529  0.00  0.00    -0.206 N 
ATOM      5  N   UNL     1      34.880 -20.600 -20.079  0.00  0.00    -0.214 N 
ATOM      6  C   UNL     1      36.091 -20.718 -19.435  0.00  0.00    +0.094 C 
ATOM      7  C   UNL     1      34.641 -19.740 -21.150  0.00  0.00    +0.321 C 
ATOM      8  C   UNL     1      37.043 -19.044 -20.912  0.00  0.00    +0.258 C 
ATOM      9  C   UNL     1      37.160 -20.004 -19.786  0.00  0.00    +0.080 C 
ATOM     10  C   UNL     1      33.956 -21.448 -19.513  0.00  0.00    +0.087 C 
ATOM     11  C   UNL     1      34.423 -22.175 -18.497  0.00  0.00    +0.122 C 
ENDROOT
BRANCH  11  13
ATOM     12  O   UNL     1      33.635 -24.346 -17.965  0.00  0.00    -0.244 OA
ATOM     13  C   UNL     1      33.644 -23.139 -17.739  0.00  0.00    +0.349 C 
BRANCH  13  14
ATOM     14  O   UNL     1      32.951 -22.487 -16.766  0.00  0.00    -0.440 OA
BRANCH  14  15
ATOM     15  C   UNL     1      32.725 -23.224 -15.560  0.00  0.00    +0.235 C 
BRANCH  15  16
ATOM     16  C   UNL     1      31.258 -23.519 -15.435  0.00  0.00    +0.021 C 
ATOM     17  C   UNL     1      30.837 -24.616 -14.693  0.00  0.00    -0.001 C 
ATOM     18  C   UNL     1      30.334 -22.691 -16.062  0.00  0.00    -0.001 C 
ATOM     19  C   UNL     1      29.474 -24.889 -14.576  0.00  0.00    -0.000 C 
ATOM     20  C   UNL     1      28.971 -22.964 -15.945  0.00  0.00    -0.000 C 
ATOM     21  C   UNL     1      28.542 -24.063 -15.202  0.00  0.00    -0.000 C 
ENDBRANCH  15  16
ENDBRANCH  14  15
ENDBRANCH  13  14
ENDBRANCH  11  13
BRANCH   4  22
ATOM     22  C   UNL     1      35.651 -18.043 -22.641  0.00  0.00    +0.129 C 
BRANCH  22  23
ATOM     23  C   UNL     1      35.202 -16.685 -22.184  0.00  0.00    -0.002 C 
ATOM     24  C   UNL     1      34.986 -16.453 -20.831  0.00  0.00    -0.003 C 
ATOM     25  C   UNL     1      35.009 -15.674 -23.118  0.00  0.00    -0.003 C 
ATOM     26  C   UNL     1      34.569 -15.191 -20.405  0.00  0.00    -0.000 C 
ATOM     27  C   UNL     1      34.593 -14.412 -22.693  0.00  0.00    -0.000 C 
ATOM     28  C   UNL     1      34.373 -14.171 -21.336  0.00  0.00    -0.000 C 
ENDBRANCH  22  23
ENDBRANCH   4  22
TORSDOF 6
ENDMDL
MODEL 4
REMARK VINA RESULT:     -10.9      4.719      7.854
REMARK  Name = 9896504
REMARK  6 active torsions:
REMARK  status: ('A' for Active; 'I' for Inactive)
REMARK    1  A    between atoms: N_4  and  C_22
REMARK    2  A    between atoms: C_11  and  C_13
REMARK    3  A    between atoms: C_13  and  O_14
REMARK    4  A    between atoms: O_14  and  C_15
REMARK    5  A    between atoms: C_15  and  C_16
REMARK    6  A    between atoms: C_22  and  C_23
REMARK                            x       y       z     vdW  Elec       q    Type
REMARK                         _______ _______ _______ _____ _____    ______ ____
ROOT
ATOM      1  S   UNL     1      35.985 -21.883 -17.890  0.00  0.00    -0.064 S 
ATOM      2  O   UNL     1      33.528 -19.721 -21.555  0.00  0.00    -0.251 OA
ATOM      3  O   UNL     1      38.061 -18.613 -21.152  0.00  0.00    -0.269 OA
ATOM      4  N   UNL     1      35.791 -19.132 -21.415  0.00  0.00    -0.206 N 
ATOM      5  N   UNL     1      34.831 -20.647 -19.889  0.00  0.00    -0.214 N 
ATOM      6  C   UNL     1      36.039 -20.785 -19.242  0.00  0.00    +0.094 C 
ATOM      7  C   UNL     1      34.622 -19.828 -20.998  0.00  0.00    +0.321 C 
ATOM      8  C   UNL     1      37.052 -19.222 -20.798  0.00  0.00    +0.258 C 
ATOM      9  C   UNL     1      37.135 -20.132 -19.629  0.00  0.00    +0.080 C 
ATOM     10  C   UNL     1      33.877 -21.430 -19.281  0.00  0.00    +0.087 C 
ATOM     11  C   UNL     1      34.317 -22.128 -18.234  0.00  0.00    +0.122 C 
ENDROOT
BRANCH  11  13
ATOM     12  O   UNL     1      32.276 -23.026 -17.433  0.00  0.00    -0.244 OA
ATOM     13  C   UNL     1      33.504 -23.023 -17.430  0.00  0.00    +0.349 C 
BRANCH  13  14
ATOM     14  O   UNL     1      34.319 -23.831 -16.698  0.00  0.00    -0.440 OA
BRANCH  14  15
ATOM     15  C   UNL     1      34.100 -23.821 -15.284  0.00  0.00    +0.235 C 
BRANCH  15  16
ATOM     16  C   UNL     1      35.387 -24.157 -14.588  0.00  0.00    +0.021 C 
ATOM     17  C   UNL     1      36.048 -23.180 -13.852  0.00  0.00    -0.001 C 
ATOM     18  C   UNL     1      35.906 -25.443 -14.685  0.00  0.00    -0.001 C 
ATOM     19  C   UNL     1      37.243 -23.493 -13.205  0.00  0.00    -0.000 C 
ATOM     20  C   UNL     1      37.102 -25.756 -14.037  0.00  0.00    -0.000 C 
ATOM     21  C   UNL     1      37.769 -24.780 -13.297  0.00  0.00    -0.000 C 
ENDBRANCH  15  16
ENDBRANCH  14  15
ENDBRANCH  13  14
ENDBRANCH  11  13
BRANCH   4  22
ATOM     22  C   UNL     1      35.694 -18.245 -22.568  0.00  0.00    +0.129 C 
BRANCH  22  23
ATOM     23  C   UNL     1      35.252 -16.864 -22.180  0.00  0.00    -0.002 C 
ATOM     24  C   UNL     1      35.029 -15.911 -23.166  0.00  0.00    -0.003 C 
ATOM     25  C   UNL     1      35.067 -16.554 -20.838  0.00  0.00    -0.003 C 
ATOM     26  C   UNL     1      34.618 -14.627 -22.806  0.00  0.00    -0.000 C 
ATOM     27  C   UNL     1      34.655 -15.271 -20.477  0.00  0.00    -0.000 C 
ATOM     28  C   UNL     1      34.431 -14.308 -21.461  0.00  0.00    -0.000 C 
ENDBRANCH  22  23
ENDBRANCH   4  22
TORSDOF 6
ENDMDL
MODEL 5
REMARK VINA RESULT:     -10.6      2.570      4.164
REMARK  Name = 9896504
REMARK  6 active torsions:
REMARK  status: ('A' for Active; 'I' for Inactive)
REMARK    1  A    between atoms: N_4  and  C_22
REMARK    2  A    between atoms: C_11  and  C_13
REMARK    3  A    between atoms: C_13  and  O_14
REMARK    4  A    between atoms: O_14  and  C_15
REMARK    5  A    between atoms: C_15  and  C_16
REMARK    6  A    between atoms: C_22  and  C_23
REMARK                            x       y       z     vdW  Elec       q    Type
REMARK                         _______ _______ _______ _____ _____    ______ ____
ROOT
ATOM      1  S   UNL     1      35.107 -18.867 -23.019  0.00  0.00    -0.064 S 
ATOM      2  O   UNL     1      35.142 -14.111 -21.783  0.00  0.00    -0.251 OA
ATOM      3  O   UNL     1      33.162 -15.178 -25.892  0.00  0.00    -0.269 OA
ATOM      4  N   UNL     1      34.129 -14.578 -23.844  0.00  0.00    -0.206 N 
ATOM      5  N   UNL     1      35.039 -16.298 -22.517  0.00  0.00    -0.214 N 
ATOM      6  C   UNL     1      34.673 -17.237 -23.456  0.00  0.00    +0.094 C 
ATOM      7  C   UNL     1      34.800 -14.930 -22.639  0.00  0.00    +0.321 C 
ATOM      8  C   UNL     1      33.733 -15.483 -24.846  0.00  0.00    +0.258 C 
ATOM      9  C   UNL     1      34.047 -16.910 -24.587  0.00  0.00    +0.080 C 
ATOM     10  C   UNL     1      35.667 -16.909 -21.457  0.00  0.00    +0.087 C 
ATOM     11  C   UNL     1      35.779 -18.233 -21.568  0.00  0.00    +0.122 C 
ENDROOT
BRANCH  11  13
ATOM     12  O   UNL     1      37.601 -19.093 -20.319  0.00  0.00    -0.244 OA
ATOM     13  C   UNL     1      36.401 -19.101 -20.583  0.00  0.00    +0.349 C 
BRANCH  13  14
ATOM     14  O   UNL     1      35.449 -19.896 -20.022  0.00  0.00    -0.440 OA
BRANCH  14  15
ATOM     15  C   UNL     1      35.738 -21.298 -20.007  0.00  0.00    +0.235 C 
BRANCH  15  16
ATOM     16  C   UNL     1      35.560 -21.818 -18.610  0.00  0.00    +0.021 C 
ATOM     17  C   UNL     1      36.611 -21.732 -17.704  0.00  0.00    -0.001 C 
ATOM     18  C   UNL     1      34.346 -22.382 -18.235  0.00  0.00    -0.001 C 
ATOM     19  C   UNL     1      36.445 -22.216 -16.406  0.00  0.00    -0.000 C 
ATOM     20  C   UNL     1      34.180 -22.865 -16.936  0.00  0.00    -0.000 C 
ATOM     21  C   UNL     1      35.230 -22.781 -16.023  0.00  0.00    -0.000 C 
ENDBRANCH  15  16
ENDBRANCH  14  15
ENDBRANCH  13  14
ENDBRANCH  11  13
BRANCH   4  22
ATOM     22  C   UNL     1      33.824 -13.172 -24.080  0.00  0.00    +0.129 C 
BRANCH  22  23
ATOM     23  C   UNL     1      32.974 -12.590 -22.988  0.00  0.00    -0.002 C 
ATOM     24  C   UNL     1      32.791 -11.214 -22.919  0.00  0.00    -0.003 C 
ATOM     25  C   UNL     1      32.378 -13.433 -22.058  0.00  0.00    -0.003 C 
ATOM     26  C   UNL     1      32.001 -10.673 -21.904  0.00  0.00    -0.000 C 
ATOM     27  C   UNL     1      31.587 -12.892 -21.043  0.00  0.00    -0.000 C 
ATOM     28  C   UNL     1      31.400 -11.512 -20.967  0.00  0.00    -0.000 C 
ENDBRANCH  22  23
ENDBRANCH   4  22
TORSDOF 6
ENDMDL
MODEL 6
REMARK VINA RESULT:     -10.5      4.691      7.862
REMARK  Name = 9896504
REMARK  6 active torsions:
REMARK  status: ('A' for Active; 'I' for Inactive)
REMARK    1  A    between atoms: N_4  and  C_22
REMARK    2  A    between atoms: C_11  and  C_13
REMARK    3  A    between atoms: C_13  and  O_14
REMARK    4  A    between atoms: O_14  and  C_15
REMARK    5  A    between atoms: C_15  and  C_16
REMARK    6  A    between atoms: C_22  and  C_23
REMARK                            x       y       z     vdW  Elec       q    Type
REMARK                         _______ _______ _______ _____ _____    ______ ____
ROOT
ATOM      1  S   UNL     1      34.303 -22.263 -18.359  0.00  0.00    -0.064 S 
ATOM      2  O   UNL     1      37.645 -19.044 -19.979  0.00  0.00    -0.251 OA
ATOM      3  O   UNL     1      33.706 -19.396 -22.490  0.00  0.00    -0.269 OA
ATOM      4  N   UNL     1      35.695 -19.165 -21.273  0.00  0.00    -0.206 N 
ATOM      5  N   UNL     1      35.969 -20.508 -19.358  0.00  0.00    -0.214 N 
ATOM      6  C   UNL     1      34.731 -21.074 -19.560  0.00  0.00    +0.094 C 
ATOM      7  C   UNL     1      36.530 -19.533 -20.182  0.00  0.00    +0.321 C 
ATOM      8  C   UNL     1      34.425 -19.707 -21.541  0.00  0.00    +0.258 C 
ATOM      9  C   UNL     1      33.947 -20.734 -20.582  0.00  0.00    +0.080 C 
ATOM     10  C   UNL     1      36.558 -21.043 -18.236  0.00  0.00    +0.087 C 
ATOM     11  C   UNL     1      35.823 -21.963 -17.610  0.00  0.00    +0.122 C 
ENDROOT
BRANCH  11  13
ATOM     12  O   UNL     1      37.334 -22.572 -15.889  0.00  0.00    -0.244 OA
ATOM     13  C   UNL     1      36.226 -22.671 -16.407  0.00  0.00    +0.349 C 
BRANCH  13  14
ATOM     14  O   UNL     1      35.188 -23.438 -15.972  0.00  0.00    -0.440 OA
BRANCH  14  15
ATOM     15  C   UNL     1      34.812 -23.259 -14.603  0.00  0.00    +0.235 C 
BRANCH  15  16
ATOM     16  C   UNL     1      33.389 -23.700 -14.426  0.00  0.00    +0.021 C 
ATOM     17  C   UNL     1      32.391 -23.142 -15.216  0.00  0.00    -0.001 C 
ATOM     18  C   UNL     1      33.080 -24.663 -13.471  0.00  0.00    -0.001 C 
ATOM     19  C   UNL     1      31.068 -23.552 -15.051  0.00  0.00    -0.000 C 
ATOM     20  C   UNL     1      31.757 -25.073 -13.306  0.00  0.00    -0.000 C 
ATOM     21  C   UNL     1      30.752 -24.517 -14.096  0.00  0.00    -0.000 C 
ENDBRANCH  15  16
ENDBRANCH  14  15
ENDBRANCH  13  14
ENDBRANCH  11  13
BRANCH   4  22
ATOM     22  C   UNL     1      36.177 -18.150 -22.203  0.00  0.00    +0.129 C 
BRANCH  22  23
ATOM     23  C   UNL     1      35.466 -16.840 -22.024  0.00  0.00    -0.002 C 
ATOM     24  C   UNL     1      35.167 -16.390 -20.744  0.00  0.00    -0.003 C 
ATOM     25  C   UNL     1      35.116 -16.090 -23.140  0.00  0.00    -0.003 C 
ATOM     26  C   UNL     1      34.505 -15.173 -20.576  0.00  0.00    -0.000 C 
ATOM     27  C   UNL     1      34.456 -14.872 -22.973  0.00  0.00    -0.000 C 
ATOM     28  C   UNL     1      34.151 -14.414 -21.691  0.00  0.00    -0.000 C 
ENDBRANCH  22  23
ENDBRANCH   4  22
TORSDOF 6
ENDMDL
MODEL 7
REMARK VINA RESULT:     -10.4      1.690      9.919
REMARK  Name = 9896504
REMARK  6 active torsions:
REMARK  status: ('A' for Active; 'I' for Inactive)
REMARK    1  A    between atoms: N_4  and  C_22
REMARK    2  A    between atoms: C_11  and  C_13
REMARK    3  A    between atoms: C_13  and  O_14
REMARK    4  A    between atoms: O_14  and  C_15
REMARK    5  A    between atoms: C_15  and  C_16
REMARK    6  A    between atoms: C_22  and  C_23
REMARK                            x       y       z     vdW  Elec       q    Type
REMARK                         _______ _______ _______ _____ _____    ______ ____
ROOT
ATOM      1  S   UNL     1      33.407 -14.350 -24.149  0.00  0.00    -0.064 S 
ATOM      2  O   UNL     1      35.360 -16.278 -20.073  0.00  0.00    -0.251 OA
ATOM      3  O   UNL     1      35.518 -18.948 -23.918  0.00  0.00    -0.269 OA
ATOM      4  N   UNL     1      35.480 -17.659 -21.962  0.00  0.00    -0.206 N 
ATOM      5  N   UNL     1      34.489 -15.526 -22.075  0.00  0.00    -0.214 N 
ATOM      6  C   UNL     1      34.213 -15.708 -23.411  0.00  0.00    +0.094 C 
ATOM      7  C   UNL     1      35.128 -16.467 -21.269  0.00  0.00    +0.321 C 
ATOM      8  C   UNL     1      35.223 -17.913 -23.321  0.00  0.00    +0.258 C 
ATOM      9  C   UNL     1      34.538 -16.825 -24.062  0.00  0.00    +0.080 C 
ATOM     10  C   UNL     1      34.044 -14.291 -21.664  0.00  0.00    +0.087 C 
ATOM     11  C   UNL     1      33.463 -13.565 -22.619  0.00  0.00    +0.122 C 
ENDROOT
BRANCH  11  13
ATOM     12  O   UNL     1      31.984 -11.971 -21.676  0.00  0.00    -0.244 OA
ATOM     13  C   UNL     1      32.914 -12.233 -22.434  0.00  0.00    +0.349 C 
BRANCH  13  14
ATOM     14  O   UNL     1      33.592 -11.356 -23.224  0.00  0.00    -0.440 OA
BRANCH  14  15
ATOM     15  C   UNL     1      32.796 -10.364 -23.880  0.00  0.00    +0.235 C 
BRANCH  15  16
ATOM     16  C   UNL     1      33.399  -9.012 -23.632  0.00  0.00    +0.021 C 
ATOM     17  C   UNL     1      32.573  -7.899 -23.525  0.00  0.00    -0.001 C 
ATOM     18  C   UNL     1      34.778  -8.884 -23.514  0.00  0.00    -0.001 C 
ATOM     19  C   UNL     1      33.134  -6.642 -23.294  0.00  0.00    -0.000 C 
ATOM     20  C   UNL     1      35.339  -7.627 -23.283  0.00  0.00    -0.000 C 
ATOM     21  C   UNL     1      34.516  -6.507 -23.174  0.00  0.00    -0.000 C 
ENDBRANCH  15  16
ENDBRANCH  14  15
ENDBRANCH  13  14
ENDBRANCH  11  13
BRANCH   4  22
ATOM     22  C   UNL     1      36.156 -18.717 -21.220  0.00  0.00    +0.129 C 
BRANCH  22  23
ATOM     23  C   UNL     1      35.184 -19.661 -20.575  0.00  0.00    -0.002 C 
ATOM     24  C   UNL     1      33.819 -19.473 -20.758  0.00  0.00    -0.003 C 
ATOM     25  C   UNL     1      35.658 -20.715 -19.803  0.00  0.00    -0.003 C 
ATOM     26  C   UNL     1      32.914 -20.350 -20.159  0.00  0.00    -0.000 C 
ATOM     27  C   UNL     1      34.753 -21.593 -19.204  0.00  0.00    -0.000 C 
ATOM     28  C   UNL     1      33.382 -21.410 -19.383  0.00  0.00    -0.000 C 
ENDBRANCH  22  23
ENDBRANCH   4  22
TORSDOF 6
ENDMDL
MODEL 8
REMARK VINA RESULT:     -10.4      4.726      8.171
REMARK  Name = 9896504
REMARK  6 active torsions:
REMARK  status: ('A' for Active; 'I' for Inactive)
REMARK    1  A    between atoms: N_4  and  C_22
REMARK    2  A    between atoms: C_11  and  C_13
REMARK    3  A    between atoms: C_13  and  O_14
REMARK    4  A    between atoms: O_14  and  C_15
REMARK    5  A    between atoms: C_15  and  C_16
REMARK    6  A    between atoms: C_22  and  C_23
REMARK                            x       y       z     vdW  Elec       q    Type
REMARK                         _______ _______ _______ _____ _____    ______ ____
ROOT
ATOM      1  S   UNL     1      34.627 -22.185 -18.178  0.00  0.00    -0.064 S 
ATOM      2  O   UNL     1      37.726 -18.969 -20.229  0.00  0.00    -0.251 OA
ATOM      3  O   UNL     1      33.599 -19.537 -22.371  0.00  0.00    -0.269 OA
ATOM      4  N   UNL     1      35.678 -19.199 -21.342  0.00  0.00    -0.206 N 
ATOM      5  N   UNL     1      36.152 -20.440 -19.398  0.00  0.00    -0.214 N 
ATOM      6  C   UNL     1      34.917 -21.046 -19.465  0.00  0.00    +0.094 C 
ATOM      7  C   UNL     1      36.613 -19.493 -20.311  0.00  0.00    +0.321 C 
ATOM      8  C   UNL     1      34.405 -19.784 -21.474  0.00  0.00    +0.258 C 
ATOM      9  C   UNL     1      34.040 -20.775 -20.431  0.00  0.00    +0.080 C 
ATOM     10  C   UNL     1      36.849 -20.906 -18.308  0.00  0.00    +0.087 C 
ATOM     11  C   UNL     1      36.196 -21.811 -17.579  0.00  0.00    +0.122 C 
ENDROOT
BRANCH  11  13
ATOM     12  O   UNL     1      37.745 -22.097 -15.807  0.00  0.00    -0.244 OA
ATOM     13  C   UNL     1      36.720 -22.450 -16.383  0.00  0.00    +0.349 C 
BRANCH  13  14
ATOM     14  O   UNL     1      35.897 -23.475 -16.028  0.00  0.00    -0.440 OA
BRANCH  14  15
ATOM     15  C   UNL     1      35.449 -23.472 -14.669  0.00  0.00    +0.235 C 
BRANCH  15  16
ATOM     16  C   UNL     1      36.347 -24.359 -13.856  0.00  0.00    +0.021 C 
ATOM     17  C   UNL     1      36.944 -23.862 -12.704  0.00  0.00    -0.001 C 
ATOM     18  C   UNL     1      36.573 -25.669 -14.263  0.00  0.00    -0.001 C 
ATOM     19  C   UNL     1      37.779 -24.686 -11.948  0.00  0.00    -0.000 C 
ATOM     20  C   UNL     1      37.407 -26.493 -13.507  0.00  0.00    -0.000 C 
ATOM     21  C   UNL     1      38.009 -26.001 -12.349  0.00  0.00    -0.000 C 
ENDBRANCH  15  16
ENDBRANCH  14  15
ENDBRANCH  13  14
ENDBRANCH  11  13
BRANCH   4  22
ATOM     22  C   UNL     1      36.050 -18.220 -22.357  0.00  0.00    +0.129 C 
BRANCH  22  23
ATOM     23  C   UNL     1      35.414 -16.883 -22.107  0.00  0.00    -0.002 C 
ATOM     24  C   UNL     1      35.176 -16.468 -20.803  0.00  0.00    -0.003 C 
ATOM     25  C   UNL     1      35.073 -16.073 -23.183  0.00  0.00    -0.003 C 
ATOM     26  C   UNL     1      34.585 -15.226 -20.570  0.00  0.00    -0.000 C 
ATOM     27  C   UNL     1      34.483 -14.830 -22.951  0.00  0.00    -0.000 C 
ATOM     28  C   UNL     1      34.239 -14.407 -21.644  0.00  0.00    -0.000 C 
ENDBRANCH  22  23
ENDBRANCH   4  22
TORSDOF 6
ENDMDL
MODEL 9
REMARK VINA RESULT:     -10.3      4.057     10.636
REMARK  Name = 9896504
REMARK  6 active torsions:
REMARK  status: ('A' for Active; 'I' for Inactive)
REMARK    1  A    between atoms: N_4  and  C_22
REMARK    2  A    between atoms: C_11  and  C_13
REMARK    3  A    between atoms: C_13  and  O_14
REMARK    4  A    between atoms: O_14  and  C_15
REMARK    5  A    between atoms: C_15  and  C_16
REMARK    6  A    between atoms: C_22  and  C_23
REMARK                            x       y       z     vdW  Elec       q    Type
REMARK                         _______ _______ _______ _____ _____    ______ ____
ROOT
ATOM      1  S   UNL     1      36.682 -19.283 -20.071  0.00  0.00    -0.064 S 
ATOM      2  O   UNL     1      32.692 -22.125 -19.672  0.00  0.00    -0.251 OA
ATOM      3  O   UNL     1      36.209 -23.050 -16.719  0.00  0.00    -0.269 OA
ATOM      4  N   UNL     1      34.409 -22.632 -18.161  0.00  0.00    -0.206 N 
ATOM      5  N   UNL     1      34.640 -20.885 -19.723  0.00  0.00    -0.214 N 
ATOM      6  C   UNL     1      35.903 -20.607 -19.248  0.00  0.00    +0.094 C 
ATOM      7  C   UNL     1      33.819 -21.896 -19.226  0.00  0.00    +0.321 C 
ATOM      8  C   UNL     1      35.694 -22.407 -17.633  0.00  0.00    +0.258 C 
ATOM      9  C   UNL     1      36.460 -21.297 -18.253  0.00  0.00    +0.080 C 
ATOM     10  C   UNL     1      34.319 -20.025 -20.747  0.00  0.00    +0.087 C 
ATOM     11  C   UNL     1      35.271 -19.139 -21.044  0.00  0.00    +0.122 C 
ENDROOT
BRANCH  11  13
ATOM     12  O   UNL     1      34.986 -18.380 -23.272  0.00  0.00    -0.244 OA
ATOM     13  C   UNL     1      35.170 -18.129 -22.084  0.00  0.00    +0.349 C 
BRANCH  13  14
ATOM     14  O   UNL     1      35.312 -16.896 -21.524  0.00  0.00    -0.440 OA
BRANCH  14  15
ATOM     15  C   UNL     1      35.158 -15.786 -22.414  0.00  0.00    +0.235 C 
BRANCH  15  16
ATOM     16  C   UNL     1      34.125 -14.851 -21.856  0.00  0.00    +0.021 C 
ATOM     17  C   UNL     1      33.908 -14.804 -20.483  0.00  0.00    -0.001 C 
ATOM     18  C   UNL     1      33.393 -14.040 -22.716  0.00  0.00    -0.001 C 
ATOM     19  C   UNL     1      32.949 -13.935 -19.964  0.00  0.00    -0.000 C 
ATOM     20  C   UNL     1      32.433 -13.171 -22.197  0.00  0.00    -0.000 C 
ATOM     21  C   UNL     1      32.212 -13.119 -20.822  0.00  0.00    -0.000 C 
ENDBRANCH  15  16
ENDBRANCH  14  15
ENDBRANCH  13  14
ENDBRANCH  11  13
BRANCH   4  22
ATOM     22  C   UNL     1      33.641 -23.716 -17.559  0.00  0.00    +0.129 C 
BRANCH  22  23
ATOM     23  C   UNL     1      32.889 -23.263 -16.342  0.00  0.00    -0.002 C 
ATOM     24  C   UNL     1      33.532 -23.225 -15.111  0.00  0.00    -0.003 C 
ATOM     25  C   UNL     1      31.557 -22.883 -16.459  0.00  0.00    -0.003 C 
ATOM     26  C   UNL     1      32.834 -22.803 -13.979  0.00  0.00    -0.000 C 
ATOM     27  C   UNL     1      30.858 -22.460 -15.328  0.00  0.00    -0.000 C 
ATOM     28  C   UNL     1      31.497 -22.421 -14.088  0.00  0.00    -0.000 C 
ENDBRANCH  22  23
ENDBRANCH   4  22
TORSDOF 6
ENDMDL
