MODEL 1
REMARK VINA RESULT:     -11.7      0.000      0.000
REMARK  Name = 216210
REMARK  9 active torsions:
REMARK  status: ('A' for Active; 'I' for Inactive)
REMARK    1  A    between atoms: C_4  and  C_26
REMARK    2  A    between atoms: C_6  and  C_13
REMARK    3  A    between atoms: N_12  and  C_20
REMARK    4  A    between atoms: C_20  and  C_21
REMARK    5  A    between atoms: C_21  and  C_23
REMARK    6  A    between atoms: C_23  and  O_24
REMARK    7  A    between atoms: C_26  and  N_27
REMARK    8  A    between atoms: N_27  and  C_29
REMARK    9  A    between atoms: C_34  and  C_37
REMARK                            x       y       z     vdW  Elec       q    Type
REMARK                         _______ _______ _______ _____ _____    ______ ____
ROOT
ATOM      1  N   UNL     1      34.296 -16.731 -24.080  0.00  0.00    -0.261 N 
ATOM      2  N   UNL     1      35.376 -15.782 -22.386  0.00  0.00    -0.388 NA
ATOM      3  C   UNL     1      34.040 -15.379 -24.064  0.00  0.00    +0.079 C 
ATOM      4  C   UNL     1      35.098 -16.938 -23.061  0.00  0.00    +0.184 C 
ATOM      5  C   UNL     1      34.706 -14.761 -23.010  0.00  0.00    +0.146 C 
ATOM      6  C   UNL     1      33.831 -12.632 -23.614  0.00  0.00    +0.039 C 
ATOM      7  C   UNL     1      34.628 -13.392 -22.751  0.00  0.00    +0.034 C 
ATOM      8  C   UNL     1      33.242 -14.601 -24.921  0.00  0.00    -0.004 C 
ATOM      9  C   UNL     1      33.150 -13.224 -24.681  0.00  0.00    +0.058 C 
ATOM     10  C   UNL     1      33.780 -17.691 -25.027  0.00  0.00    +0.120 C 
ENDROOT
BRANCH   6  13
ATOM     11  O   UNL     1      34.745 -10.536 -23.565  0.00  0.00    -0.270 OA
ATOM     12  N   UNL     1      32.451 -10.665 -23.016  0.00  0.00    -0.240 N 
ATOM     13  C   UNL     1      33.711 -11.199 -23.396  0.00  0.00    +0.250 C 
ATOM     14  N   UNL     1      32.982  -8.597 -24.130  0.00  0.00    -0.229 NA
ATOM     15  C   UNL     1      32.093  -9.314 -23.408  0.00  0.00    +0.138 C 
ATOM     16  C   UNL     1      30.852  -8.842 -23.013  0.00  0.00    +0.035 C 
ATOM     17  C   UNL     1      30.500  -7.548 -23.383  0.00  0.00    +0.004 C 
ATOM     18  C   UNL     1      32.606  -7.343 -24.471  0.00  0.00    +0.100 C 
ATOM     19  C   UNL     1      31.389  -6.778 -24.126  0.00  0.00    +0.021 C 
BRANCH  12  20
ATOM     20  C   UNL     1      31.504 -11.472 -22.230  0.00  0.00    +0.112 C 
BRANCH  20  21
ATOM     21  C   UNL     1      31.897 -11.543 -20.760  0.00  0.00    +0.131 C 
BRANCH  21  23
ATOM     22  O   UNL     1      32.413 -13.286 -19.136  0.00  0.00    -0.250 OA
ATOM     23  C   UNL     1      32.039 -12.963 -20.255  0.00  0.00    +0.316 C 
BRANCH  23  24
ATOM     24  O   UNL     1      31.687 -13.865 -21.208  0.00  0.00    -0.480 OA
ATOM     25  H   UNL     1      32.275 -14.557 -21.439  0.00  0.00    +0.295 HD
ENDBRANCH  23  24
ENDBRANCH  21  23
ENDBRANCH  20  21
ENDBRANCH  12  20
ENDBRANCH   6  13
BRANCH   4  26
ATOM     26  C   UNL     1      35.629 -18.271 -22.709  0.00  0.00    +0.164 C 
BRANCH  26  27
ATOM     27  N   UNL     1      35.843 -18.497 -21.285  0.00  0.00    -0.326 N 
ATOM     28  H   UNL     1      36.441 -17.884 -20.798  0.00  0.00    +0.147 HD
BRANCH  27  29
ATOM     29  C   UNL     1      35.250 -19.526 -20.586  0.00  0.00    +0.045 C 
ATOM     30  C   UNL     1      33.862 -19.670 -20.599  0.00  0.00    +0.014 C 
ATOM     31  C   UNL     1      36.037 -20.422 -19.862  0.00  0.00    +0.014 C 
ATOM     32  C   UNL     1      33.263 -20.710 -19.890  0.00  0.00    +0.004 C 
ATOM     33  C   UNL     1      35.437 -21.462 -19.153  0.00  0.00    +0.004 C 
ATOM     34  C   UNL     1      34.050 -21.606 -19.167  0.00  0.00    +0.031 C 
BRANCH  34  37
ATOM     35  N   UNL     1      32.331 -22.463 -17.593  0.00  0.00    -0.343 N 
ATOM     36  N   UNL     1      33.896 -23.920 -18.537  0.00  0.00    -0.285 NA
ATOM     37  C   UNL     1      33.424 -22.691 -18.427  0.00  0.00    +0.117 C 
ATOM     38  H   UNL     1      31.923 -23.213 -17.101  0.00  0.00    +0.144 HD
ATOM     39  H   UNL     1      31.967 -21.554 -17.495  0.00  0.00    +0.144 HD
ATOM     40  H   UNL     1      33.475 -24.656 -18.037  0.00  0.00    +0.188 HD
ENDBRANCH  34  37
ENDBRANCH  27  29
ENDBRANCH  26  27
ENDBRANCH   4  26
TORSDOF 9
ENDMDL
MODEL 2
REMARK VINA RESULT:     -10.7      5.389     12.768
REMARK  Name = 216210
REMARK  9 active torsions:
REMARK  status: ('A' for Active; 'I' for Inactive)
REMARK    1  A    between atoms: C_4  and  C_26
REMARK    2  A    between atoms: C_6  and  C_13
REMARK    3  A    between atoms: N_12  and  C_20
REMARK    4  A    between atoms: C_20  and  C_21
REMARK    5  A    between atoms: C_21  and  C_23
REMARK    6  A    between atoms: C_23  and  O_24
REMARK    7  A    between atoms: C_26  and  N_27
REMARK    8  A    between atoms: N_27  and  C_29
REMARK    9  A    between atoms: C_34  and  C_37
REMARK                            x       y       z     vdW  Elec       q    Type
REMARK                         _______ _______ _______ _____ _____    ______ ____
ROOT
ATOM      1  N   UNL     1      34.061 -20.884 -19.645  0.00  0.00    -0.261 N 
ATOM      2  N   UNL     1      36.189 -20.838 -19.008  0.00  0.00    -0.388 NA
ATOM      3  C   UNL     1      34.236 -21.699 -18.550  0.00  0.00    +0.079 C 
ATOM      4  C   UNL     1      35.251 -20.385 -19.892  0.00  0.00    +0.184 C 
ATOM      5  C   UNL     1      35.564 -21.687 -18.132  0.00  0.00    +0.146 C 
ATOM      6  C   UNL     1      35.090 -23.202 -16.358  0.00  0.00    +0.039 C 
ATOM      7  C   UNL     1      36.031 -22.423 -17.042  0.00  0.00    +0.034 C 
ATOM      8  C   UNL     1      33.305 -22.487 -17.853  0.00  0.00    -0.004 C 
ATOM      9  C   UNL     1      33.751 -23.234 -16.755  0.00  0.00    +0.058 C 
ATOM     10  C   UNL     1      32.823 -20.646 -20.348  0.00  0.00    +0.120 C 
ENDROOT
BRANCH   6  13
ATOM     11  O   UNL     1      36.430 -24.803 -15.424  0.00  0.00    -0.270 OA
ATOM     12  N   UNL     1      34.880 -23.785 -13.961  0.00  0.00    -0.240 N 
ATOM     13  C   UNL     1      35.516 -23.992 -15.213  0.00  0.00    +0.250 C 
ATOM     14  N   UNL     1      36.910 -24.397 -12.818  0.00  0.00    -0.229 NA
ATOM     15  C   UNL     1      35.621 -24.001 -12.732  0.00  0.00    +0.138 C 
ATOM     16  C   UNL     1      34.953 -23.785 -11.538  0.00  0.00    +0.035 C 
ATOM     17  C   UNL     1      35.654 -23.990 -10.354  0.00  0.00    +0.004 C 
ATOM     18  C   UNL     1      37.560 -24.586 -11.648  0.00  0.00    +0.100 C 
ATOM     19  C   UNL     1      36.983 -24.398 -10.402  0.00  0.00    +0.021 C 
BRANCH  12  20
ATOM     20  C   UNL     1      33.474 -23.354 -13.899  0.00  0.00    +0.112 C 
BRANCH  20  21
ATOM     21  C   UNL     1      32.523 -24.528 -13.709  0.00  0.00    +0.131 C 
BRANCH  21  23
ATOM     22  O   UNL     1      30.496 -23.183 -13.864  0.00  0.00    -0.250 OA
ATOM     23  C   UNL     1      31.118 -24.098 -13.343  0.00  0.00    +0.316 C 
BRANCH  23  24
ATOM     24  O   UNL     1      30.608 -24.870 -12.348  0.00  0.00    -0.480 OA
ATOM     25  H   UNL     1      29.680 -24.948 -12.245  0.00  0.00    +0.295 HD
ENDBRANCH  23  24
ENDBRANCH  21  23
ENDBRANCH  20  21
ENDBRANCH  12  20
ENDBRANCH   6  13
BRANCH   4  26
ATOM     26  C   UNL     1      35.517 -19.444 -21.000  0.00  0.00    +0.164 C 
BRANCH  26  27
ATOM     27  N   UNL     1      35.751 -18.063 -20.598  0.00  0.00    -0.326 N 
ATOM     28  H   UNL     1      36.250 -17.896 -19.765  0.00  0.00    +0.147 HD
BRANCH  27  29
ATOM     29  C   UNL     1      35.306 -16.979 -21.324  0.00  0.00    +0.045 C 
ATOM     30  C   UNL     1      34.891 -15.821 -20.666  0.00  0.00    +0.014 C 
ATOM     31  C   UNL     1      35.268 -17.042 -22.717  0.00  0.00    +0.014 C 
ATOM     32  C   UNL     1      34.439 -14.726 -21.401  0.00  0.00    +0.004 C 
ATOM     33  C   UNL     1      34.817 -15.946 -23.452  0.00  0.00    +0.004 C 
ATOM     34  C   UNL     1      34.401 -14.788 -22.794  0.00  0.00    +0.031 C 
BRANCH  34  37
ATOM     35  N   UNL     1      33.127 -13.811 -24.688  0.00  0.00    -0.343 N 
ATOM     36  N   UNL     1      34.267 -12.423 -23.194  0.00  0.00    -0.285 NA
ATOM     37  C   UNL     1      33.930 -13.646 -23.561  0.00  0.00    +0.117 C 
ATOM     38  H   UNL     1      32.819 -13.024 -25.193  0.00  0.00    +0.144 HD
ATOM     39  H   UNL     1      32.868 -14.715 -24.980  0.00  0.00    +0.144 HD
ATOM     40  H   UNL     1      33.949 -11.648 -23.711  0.00  0.00    +0.188 HD
ENDBRANCH  34  37
ENDBRANCH  27  29
ENDBRANCH  26  27
ENDBRANCH   4  26
TORSDOF 9
ENDMDL
MODEL 3
REMARK VINA RESULT:     -10.4      1.708      2.802
REMARK  Name = 216210
REMARK  9 active torsions:
REMARK  status: ('A' for Active; 'I' for Inactive)
REMARK    1  A    between atoms: C_4  and  C_26
REMARK    2  A    between atoms: C_6  and  C_13
REMARK    3  A    between atoms: N_12  and  C_20
REMARK    4  A    between atoms: C_20  and  C_21
REMARK    5  A    between atoms: C_21  and  C_23
REMARK    6  A    between atoms: C_23  and  O_24
REMARK    7  A    between atoms: C_26  and  N_27
REMARK    8  A    between atoms: N_27  and  C_29
REMARK    9  A    between atoms: C_34  and  C_37
REMARK                            x       y       z     vdW  Elec       q    Type
REMARK                         _______ _______ _______ _____ _____    ______ ____
ROOT
ATOM      1  N   UNL     1      34.735 -16.205 -23.036  0.00  0.00    -0.261 N 
ATOM      2  N   UNL     1      34.826 -15.720 -20.870  0.00  0.00    -0.388 NA
ATOM      3  C   UNL     1      34.028 -15.050 -22.788  0.00  0.00    +0.079 C 
ATOM      4  C   UNL     1      35.199 -16.579 -21.865  0.00  0.00    +0.184 C 
ATOM      5  C   UNL     1      34.071 -14.726 -21.436  0.00  0.00    +0.146 C 
ATOM      6  C   UNL     1      32.737 -12.786 -21.790  0.00  0.00    +0.039 C 
ATOM      7  C   UNL     1      33.439 -13.603 -20.897  0.00  0.00    +0.034 C 
ATOM      8  C   UNL     1      33.318 -14.220 -23.671  0.00  0.00    -0.004 C 
ATOM      9  C   UNL     1      32.677 -13.087 -23.153  0.00  0.00    +0.058 C 
ATOM     10  C   UNL     1      34.914 -16.843 -24.318  0.00  0.00    +0.120 C 
ENDROOT
BRANCH   6  13
ATOM     11  O   UNL     1      31.380 -11.759 -20.263  0.00  0.00    -0.270 OA
ATOM     12  N   UNL     1      32.214 -10.374 -21.984  0.00  0.00    -0.240 N 
ATOM     13  C   UNL     1      32.058 -11.602 -21.289  0.00  0.00    +0.250 C 
ATOM     14  N   UNL     1      31.943  -9.160 -19.921  0.00  0.00    -0.229 NA
ATOM     15  C   UNL     1      32.152  -9.120 -21.256  0.00  0.00    +0.138 C 
ATOM     16  C   UNL     1      32.311  -7.951 -21.982  0.00  0.00    +0.035 C 
ATOM     17  C   UNL     1      32.251  -6.744 -21.293  0.00  0.00    +0.004 C 
ATOM     18  C   UNL     1      31.890  -7.968 -19.285  0.00  0.00    +0.100 C 
ATOM     19  C   UNL     1      32.038  -6.745 -19.919  0.00  0.00    +0.021 C 
BRANCH  12  20
ATOM     20  C   UNL     1      32.440 -10.362 -23.438  0.00  0.00    +0.112 C 
BRANCH  20  21
ATOM     21  C   UNL     1      33.410  -9.265 -23.857  0.00  0.00    +0.131 C 
BRANCH  21  23
ATOM     22  O   UNL     1      35.800  -8.938 -23.503  0.00  0.00    -0.250 OA
ATOM     23  C   UNL     1      34.861  -9.684 -23.743  0.00  0.00    +0.316 C 
BRANCH  23  24
ATOM     24  O   UNL     1      35.006 -11.021 -23.933  0.00  0.00    -0.480 OA
ATOM     25  H   UNL     1      34.339 -11.611 -23.642  0.00  0.00    +0.295 HD
ENDBRANCH  23  24
ENDBRANCH  21  23
ENDBRANCH  20  21
ENDBRANCH  12  20
ENDBRANCH   6  13
BRANCH   4  26
ATOM     26  C   UNL     1      36.027 -17.788 -21.673  0.00  0.00    +0.164 C 
BRANCH  26  27
ATOM     27  N   UNL     1      35.346 -19.051 -21.925  0.00  0.00    -0.326 N 
ATOM     28  H   UNL     1      35.171 -19.311 -22.859  0.00  0.00    +0.147 HD
BRANCH  27  29
ATOM     29  C   UNL     1      34.934 -19.900 -20.921  0.00  0.00    +0.045 C 
ATOM     30  C   UNL     1      33.574 -20.040 -20.639  0.00  0.00    +0.014 C 
ATOM     31  C   UNL     1      35.876 -20.618 -20.184  0.00  0.00    +0.014 C 
ATOM     32  C   UNL     1      33.158 -20.897 -19.621  0.00  0.00    +0.004 C 
ATOM     33  C   UNL     1      35.459 -21.476 -19.166  0.00  0.00    +0.004 C 
ATOM     34  C   UNL     1      34.100 -21.615 -18.884  0.00  0.00    +0.031 C 
BRANCH  34  37
ATOM     35  N   UNL     1      32.317 -22.649 -17.500  0.00  0.00    -0.343 N 
ATOM     36  N   UNL     1      34.558 -23.204 -17.141  0.00  0.00    -0.285 NA
ATOM     37  C   UNL     1      33.666 -22.509 -17.823  0.00  0.00    +0.117 C 
ATOM     38  H   UNL     1      32.045 -23.260 -16.777  0.00  0.00    +0.144 HD
ATOM     39  H   UNL     1      31.636 -22.138 -17.994  0.00  0.00    +0.144 HD
ATOM     40  H   UNL     1      34.267 -23.809 -16.422  0.00  0.00    +0.188 HD
ENDBRANCH  34  37
ENDBRANCH  27  29
ENDBRANCH  26  27
ENDBRANCH   4  26
TORSDOF 9
ENDMDL
MODEL 4
REMARK VINA RESULT:      -9.9      3.136     10.416
REMARK  Name = 216210
REMARK  9 active torsions:
REMARK  status: ('A' for Active; 'I' for Inactive)
REMARK    1  A    between atoms: C_4  and  C_26
REMARK    2  A    between atoms: C_6  and  C_13
REMARK    3  A    between atoms: N_12  and  C_20
REMARK    4  A    between atoms: C_20  and  C_21
REMARK    5  A    between atoms: C_21  and  C_23
REMARK    6  A    between atoms: C_23  and  O_24
REMARK    7  A    between atoms: C_26  and  N_27
REMARK    8  A    between atoms: N_27  and  C_29
REMARK    9  A    between atoms: C_34  and  C_37
REMARK                            x       y       z     vdW  Elec       q    Type
REMARK                         _______ _______ _______ _____ _____    ______ ____
ROOT
ATOM      1  N   UNL     1      33.906 -15.509 -23.942  0.00  0.00    -0.261 N 
ATOM      2  N   UNL     1      34.352 -14.848 -21.868  0.00  0.00    -0.388 NA
ATOM      3  C   UNL     1      34.592 -16.499 -23.276  0.00  0.00    +0.079 C 
ATOM      4  C   UNL     1      33.781 -14.535 -23.069  0.00  0.00    +0.184 C 
ATOM      5  C   UNL     1      34.884 -16.108 -21.973  0.00  0.00    +0.146 C 
ATOM      6  C   UNL     1      35.978 -18.173 -21.525  0.00  0.00    +0.039 C 
ATOM      7  C   UNL     1      35.574 -16.915 -21.066  0.00  0.00    +0.034 C 
ATOM      8  C   UNL     1      35.007 -17.766 -23.721  0.00  0.00    -0.004 C 
ATOM      9  C   UNL     1      35.700 -18.593 -22.828  0.00  0.00    +0.058 C 
ATOM     10  C   UNL     1      33.437 -15.559 -25.306  0.00  0.00    +0.120 C 
ENDROOT
BRANCH   6  13
ATOM     11  O   UNL     1      37.894 -18.783 -20.435  0.00  0.00    -0.270 OA
ATOM     12  N   UNL     1      36.012 -20.154 -20.039  0.00  0.00    -0.240 N 
ATOM     13  C   UNL     1      36.701 -19.060 -20.626  0.00  0.00    +0.250 C 
ATOM     14  N   UNL     1      37.439 -20.025 -18.103  0.00  0.00    -0.229 NA
ATOM     15  C   UNL     1      36.410 -20.637 -18.730  0.00  0.00    +0.138 C 
ATOM     16  C   UNL     1      35.705 -21.706 -18.202  0.00  0.00    +0.035 C 
ATOM     17  C   UNL     1      36.080 -22.178 -16.948  0.00  0.00    +0.004 C 
ATOM     18  C   UNL     1      37.776 -20.510 -16.887  0.00  0.00    +0.100 C 
ATOM     19  C   UNL     1      37.134 -21.573 -16.272  0.00  0.00    +0.021 C 
BRANCH  12  20
ATOM     20  C   UNL     1      34.895 -20.801 -20.747  0.00  0.00    +0.112 C 
BRANCH  20  21
ATOM     21  C   UNL     1      33.544 -20.261 -20.297  0.00  0.00    +0.131 C 
BRANCH  21  23
ATOM     22  O   UNL     1      31.983 -20.915 -18.542  0.00  0.00    -0.250 OA
ATOM     23  C   UNL     1      32.789 -21.226 -19.407  0.00  0.00    +0.316 C 
BRANCH  23  24
ATOM     24  O   UNL     1      33.109 -22.516 -19.692  0.00  0.00    -0.480 OA
ATOM     25  H   UNL     1      32.720 -23.214 -19.204  0.00  0.00    +0.295 HD
ENDBRANCH  23  24
ENDBRANCH  21  23
ENDBRANCH  20  21
ENDBRANCH  12  20
ENDBRANCH   6  13
BRANCH   4  26
ATOM     26  C   UNL     1      33.094 -13.263 -23.373  0.00  0.00    +0.164 C 
BRANCH  26  27
ATOM     27  N   UNL     1      32.168 -12.798 -22.349  0.00  0.00    -0.326 N 
ATOM     28  H   UNL     1      31.492 -13.428 -22.008  0.00  0.00    +0.147 HD
BRANCH  27  29
ATOM     29  C   UNL     1      32.189 -11.519 -21.835  0.00  0.00    +0.045 C 
ATOM     30  C   UNL     1      31.841 -11.296 -20.502  0.00  0.00    +0.014 C 
ATOM     31  C   UNL     1      32.556 -10.447 -22.649  0.00  0.00    +0.014 C 
ATOM     32  C   UNL     1      31.861 -10.003 -19.984  0.00  0.00    +0.004 C 
ATOM     33  C   UNL     1      32.576  -9.153 -22.129  0.00  0.00    +0.004 C 
ATOM     34  C   UNL     1      32.228  -8.930 -20.797  0.00  0.00    +0.031 C 
BRANCH  34  37
ATOM     35  N   UNL     1      33.114  -7.228 -19.221  0.00  0.00    -0.343 N 
ATOM     36  N   UNL     1      31.434  -6.664 -20.743  0.00  0.00    -0.285 NA
ATOM     37  C   UNL     1      32.249  -7.580 -20.256  0.00  0.00    +0.117 C 
ATOM     38  H   UNL     1      33.112  -6.308 -18.870  0.00  0.00    +0.144 HD
ATOM     39  H   UNL     1      33.728  -7.897 -18.842  0.00  0.00    +0.144 HD
ATOM     40  H   UNL     1      31.445  -5.749 -20.379  0.00  0.00    +0.188 HD
ENDBRANCH  34  37
ENDBRANCH  27  29
ENDBRANCH  26  27
ENDBRANCH   4  26
TORSDOF 9
ENDMDL
MODEL 5
REMARK VINA RESULT:      -9.7      3.838      7.076
REMARK  Name = 216210
REMARK  9 active torsions:
REMARK  status: ('A' for Active; 'I' for Inactive)
REMARK    1  A    between atoms: C_4  and  C_26
REMARK    2  A    between atoms: C_6  and  C_13
REMARK    3  A    between atoms: N_12  and  C_20
REMARK    4  A    between atoms: C_20  and  C_21
REMARK    5  A    between atoms: C_21  and  C_23
REMARK    6  A    between atoms: C_23  and  O_24
REMARK    7  A    between atoms: C_26  and  N_27
REMARK    8  A    between atoms: N_27  and  C_29
REMARK    9  A    between atoms: C_34  and  C_37
REMARK                            x       y       z     vdW  Elec       q    Type
REMARK                         _______ _______ _______ _____ _____    ______ ____
ROOT
ATOM      1  N   UNL     1      31.792  -9.684 -20.058  0.00  0.00    -0.261 N 
ATOM      2  N   UNL     1      31.472 -10.391 -22.140  0.00  0.00    -0.388 NA
ATOM      3  C   UNL     1      31.804  -8.611 -20.921  0.00  0.00    +0.079 C 
ATOM      4  C   UNL     1      31.592 -10.733 -20.823  0.00  0.00    +0.184 C 
ATOM      5  C   UNL     1      31.605  -9.029 -22.233  0.00  0.00    +0.146 C 
ATOM      6  C   UNL     1      31.748  -6.794 -23.039  0.00  0.00    +0.039 C 
ATOM      7  C   UNL     1      31.570  -8.154 -23.319  0.00  0.00    +0.034 C 
ATOM      8  C   UNL     1      31.982  -7.242 -20.656  0.00  0.00    -0.004 C 
ATOM      9  C   UNL     1      31.949  -6.345 -21.731  0.00  0.00    +0.058 C 
ATOM     10  C   UNL     1      31.964  -9.635 -18.626  0.00  0.00    +0.120 C 
ENDROOT
BRANCH   6  13
ATOM     11  O   UNL     1      30.622  -5.310 -24.365  0.00  0.00    -0.270 OA
ATOM     12  N   UNL     1      32.924  -5.558 -24.833  0.00  0.00    -0.240 N 
ATOM     13  C   UNL     1      31.721  -5.833 -24.130  0.00  0.00    +0.250 C 
ATOM     14  N   UNL     1      32.165  -3.315 -25.273  0.00  0.00    -0.229 NA
ATOM     15  C   UNL     1      33.133  -4.246 -25.417  0.00  0.00    +0.138 C 
ATOM     16  C   UNL     1      34.323  -4.031 -26.093  0.00  0.00    +0.035 C 
ATOM     17  C   UNL     1      34.534  -2.777 -26.657  0.00  0.00    +0.004 C 
ATOM     18  C   UNL     1      32.404  -2.108 -25.835  0.00  0.00    +0.100 C 
ATOM     19  C   UNL     1      33.560  -1.792 -26.529  0.00  0.00    +0.021 C 
BRANCH  12  20
ATOM     20  C   UNL     1      33.960  -6.594 -24.974  0.00  0.00    +0.112 C 
BRANCH  20  21
ATOM     21  C   UNL     1      35.101  -6.399 -23.985  0.00  0.00    +0.131 C 
BRANCH  21  23
ATOM     22  O   UNL     1      35.696  -8.732 -23.603  0.00  0.00    -0.250 OA
ATOM     23  C   UNL     1      35.385  -7.635 -23.159  0.00  0.00    +0.316 C 
BRANCH  23  24
ATOM     24  O   UNL     1      35.261  -7.381 -21.830  0.00  0.00    -0.480 OA
ATOM     25  H   UNL     1      34.712  -7.924 -21.298  0.00  0.00    +0.295 HD
ENDBRANCH  23  24
ENDBRANCH  21  23
ENDBRANCH  20  21
ENDBRANCH  12  20
ENDBRANCH   6  13
BRANCH   4  26
ATOM     26  C   UNL     1      31.506 -12.111 -20.296  0.00  0.00    +0.164 C 
BRANCH  26  27
ATOM     27  N   UNL     1      32.786 -12.745 -20.008  0.00  0.00    -0.326 N 
ATOM     28  H   UNL     1      33.261 -12.490 -19.183  0.00  0.00    +0.147 HD
BRANCH  27  29
ATOM     29  C   UNL     1      33.366 -13.684 -20.833  0.00  0.00    +0.045 C 
ATOM     30  C   UNL     1      34.123 -14.721 -20.287  0.00  0.00    +0.014 C 
ATOM     31  C   UNL     1      33.200 -13.595 -22.216  0.00  0.00    +0.014 C 
ATOM     32  C   UNL     1      34.711 -15.669 -21.123  0.00  0.00    +0.004 C 
ATOM     33  C   UNL     1      33.788 -14.544 -23.051  0.00  0.00    +0.004 C 
ATOM     34  C   UNL     1      34.545 -15.581 -22.505  0.00  0.00    +0.031 C 
BRANCH  34  37
ATOM     35  N   UNL     1      35.836 -17.672 -22.858  0.00  0.00    -0.343 N 
ATOM     36  N   UNL     1      35.083 -16.429 -24.687  0.00  0.00    -0.285 NA
ATOM     37  C   UNL     1      35.159 -16.570 -23.377  0.00  0.00    +0.117 C 
ATOM     38  H   UNL     1      36.245 -18.330 -23.467  0.00  0.00    +0.144 HD
ATOM     39  H   UNL     1      35.906 -17.794 -21.884  0.00  0.00    +0.144 HD
ATOM     40  H   UNL     1      35.498 -17.097 -25.280  0.00  0.00    +0.188 HD
ENDBRANCH  34  37
ENDBRANCH  27  29
ENDBRANCH  26  27
ENDBRANCH   4  26
TORSDOF 9
ENDMDL
MODEL 6
REMARK VINA RESULT:      -9.6      4.268      7.409
REMARK  Name = 216210
REMARK  9 active torsions:
REMARK  status: ('A' for Active; 'I' for Inactive)
REMARK    1  A    between atoms: C_4  and  C_26
REMARK    2  A    between atoms: C_6  and  C_13
REMARK    3  A    between atoms: N_12  and  C_20
REMARK    4  A    between atoms: C_20  and  C_21
REMARK    5  A    between atoms: C_21  and  C_23
REMARK    6  A    between atoms: C_23  and  O_24
REMARK    7  A    between atoms: C_26  and  N_27
REMARK    8  A    between atoms: N_27  and  C_29
REMARK    9  A    between atoms: C_34  and  C_37
REMARK                            x       y       z     vdW  Elec       q    Type
REMARK                         _______ _______ _______ _____ _____    ______ ____
ROOT
ATOM      1  N   UNL     1      31.949  -9.428 -20.232  0.00  0.00    -0.261 N 
ATOM      2  N   UNL     1      32.102 -10.154 -22.327  0.00  0.00    -0.388 NA
ATOM      3  C   UNL     1      32.350  -8.398 -21.053  0.00  0.00    +0.079 C 
ATOM      4  C   UNL     1      31.810 -10.464 -21.028  0.00  0.00    +0.184 C 
ATOM      5  C   UNL     1      32.453  -8.829 -22.373  0.00  0.00    +0.146 C 
ATOM      6  C   UNL     1      33.134  -6.666 -23.097  0.00  0.00    +0.039 C 
ATOM      7  C   UNL     1      32.841  -7.996 -23.423  0.00  0.00    +0.034 C 
ATOM      8  C   UNL     1      32.649  -7.060 -20.743  0.00  0.00    -0.004 C 
ATOM      9  C   UNL     1      33.039  -6.205 -21.782  0.00  0.00    +0.058 C 
ATOM     10  C   UNL     1      31.733  -9.354 -18.807  0.00  0.00    +0.120 C 
ENDROOT
BRANCH   6  13
ATOM     11  O   UNL     1      34.760  -5.696 -24.378  0.00  0.00    -0.270 OA
ATOM     12  N   UNL     1      32.550  -4.997 -24.831  0.00  0.00    -0.240 N 
ATOM     13  C   UNL     1      33.543  -5.749 -24.149  0.00  0.00    +0.250 C 
ATOM     14  N   UNL     1      33.908  -4.989 -26.820  0.00  0.00    -0.229 NA
ATOM     15  C   UNL     1      32.759  -4.615 -26.215  0.00  0.00    +0.138 C 
ATOM     16  C   UNL     1      31.759  -3.882 -26.833  0.00  0.00    +0.035 C 
ATOM     17  C   UNL     1      31.950  -3.510 -28.159  0.00  0.00    +0.004 C 
ATOM     18  C   UNL     1      34.059  -4.609 -28.109  0.00  0.00    +0.100 C 
ATOM     19  C   UNL     1      33.119  -3.876 -28.816  0.00  0.00    +0.021 C 
BRANCH  12  20
ATOM     20  C   UNL     1      31.309  -4.604 -24.144  0.00  0.00    +0.112 C 
BRANCH  20  21
ATOM     21  C   UNL     1      31.472  -3.304 -23.368  0.00  0.00    +0.131 C 
BRANCH  21  23
ATOM     22  O   UNL     1      30.009  -4.207 -21.640  0.00  0.00    -0.250 OA
ATOM     23  C   UNL     1      30.683  -3.285 -22.076  0.00  0.00    +0.316 C 
BRANCH  23  24
ATOM     24  O   UNL     1      30.818  -2.096 -21.432  0.00  0.00    -0.480 OA
ATOM     25  H   UNL     1      31.230  -2.063 -20.590  0.00  0.00    +0.295 HD
ENDBRANCH  23  24
ENDBRANCH  21  23
ENDBRANCH  20  21
ENDBRANCH  12  20
ENDBRANCH   6  13
BRANCH   4  26
ATOM     26  C   UNL     1      31.385 -11.796 -20.552  0.00  0.00    +0.164 C 
BRANCH  26  27
ATOM     27  N   UNL     1      32.455 -12.643 -20.042  0.00  0.00    -0.326 N 
ATOM     28  H   UNL     1      32.710 -12.557 -19.095  0.00  0.00    +0.147 HD
BRANCH  27  29
ATOM     29  C   UNL     1      33.130 -13.558 -20.821  0.00  0.00    +0.045 C 
ATOM     30  C   UNL     1      32.987 -13.534 -22.208  0.00  0.00    +0.014 C 
ATOM     31  C   UNL     1      33.954 -14.512 -20.221  0.00  0.00    +0.014 C 
ATOM     32  C   UNL     1      33.667 -14.462 -22.995  0.00  0.00    +0.004 C 
ATOM     33  C   UNL     1      34.634 -15.439 -21.009  0.00  0.00    +0.004 C 
ATOM     34  C   UNL     1      34.492 -15.415 -22.396  0.00  0.00    +0.031 C 
BRANCH  34  37
ATOM     35  N   UNL     1      35.971 -17.394 -22.644  0.00  0.00    -0.343 N 
ATOM     36  N   UNL     1      35.128 -16.309 -24.534  0.00  0.00    -0.285 NA
ATOM     37  C   UNL     1      35.202 -16.383 -23.217  0.00  0.00    +0.117 C 
ATOM     38  H   UNL     1      36.444 -18.039 -23.219  0.00  0.00    +0.144 HD
ATOM     39  H   UNL     1      36.041 -17.464 -21.664  0.00  0.00    +0.144 HD
ATOM     40  H   UNL     1      35.608 -16.962 -25.092  0.00  0.00    +0.188 HD
ENDBRANCH  34  37
ENDBRANCH  27  29
ENDBRANCH  26  27
ENDBRANCH   4  26
TORSDOF 9
ENDMDL
MODEL 7
REMARK VINA RESULT:      -9.6      3.037      5.590
REMARK  Name = 216210
REMARK  9 active torsions:
REMARK  status: ('A' for Active; 'I' for Inactive)
REMARK    1  A    between atoms: C_4  and  C_26
REMARK    2  A    between atoms: C_6  and  C_13
REMARK    3  A    between atoms: N_12  and  C_20
REMARK    4  A    between atoms: C_20  and  C_21
REMARK    5  A    between atoms: C_21  and  C_23
REMARK    6  A    between atoms: C_23  and  O_24
REMARK    7  A    between atoms: C_26  and  N_27
REMARK    8  A    between atoms: N_27  and  C_29
REMARK    9  A    between atoms: C_34  and  C_37
REMARK                            x       y       z     vdW  Elec       q    Type
REMARK                         _______ _______ _______ _____ _____    ______ ____
ROOT
ATOM      1  N   UNL     1      32.429 -12.169 -22.159  0.00  0.00    -0.261 N 
ATOM      2  N   UNL     1      33.217 -11.664 -24.174  0.00  0.00    -0.388 NA
ATOM      3  C   UNL     1      32.564 -10.804 -22.277  0.00  0.00    +0.079 C 
ATOM      4  C   UNL     1      32.830 -12.652 -23.313  0.00  0.00    +0.184 C 
ATOM      5  C   UNL     1      33.057 -10.463 -23.533  0.00  0.00    +0.146 C 
ATOM      6  C   UNL     1      33.011  -8.145 -22.995  0.00  0.00    +0.039 C 
ATOM      7  C   UNL     1      33.294  -9.146 -23.931  0.00  0.00    +0.034 C 
ATOM      8  C   UNL     1      32.286  -9.786 -21.349  0.00  0.00    -0.004 C 
ATOM      9  C   UNL     1      32.515  -8.457 -21.727  0.00  0.00    +0.058 C 
ATOM     10  C   UNL     1      31.946 -12.887 -21.004  0.00  0.00    +0.120 C 
ENDROOT
BRANCH   6  13
ATOM     11  O   UNL     1      34.396  -6.337 -23.205  0.00  0.00    -0.270 OA
ATOM     12  N   UNL     1      32.148  -5.981 -23.836  0.00  0.00    -0.240 N 
ATOM     13  C   UNL     1      33.238  -6.753 -23.352  0.00  0.00    +0.250 C 
ATOM     14  N   UNL     1      33.662  -4.659 -25.163  0.00  0.00    -0.229 NA
ATOM     15  C   UNL     1      32.391  -4.901 -24.774  0.00  0.00    +0.138 C 
ATOM     16  C   UNL     1      31.293  -4.180 -25.216  0.00  0.00    +0.035 C 
ATOM     17  C   UNL     1      31.515  -3.143 -26.114  0.00  0.00    +0.004 C 
ATOM     18  C   UNL     1      33.839  -3.642 -26.037  0.00  0.00    +0.100 C 
ATOM     19  C   UNL     1      32.809  -2.863 -26.538  0.00  0.00    +0.021 C 
BRANCH  12  20
ATOM     20  C   UNL     1      30.774  -6.269 -23.394  0.00  0.00    +0.112 C 
BRANCH  20  21
ATOM     21  C   UNL     1      30.541  -5.855 -21.947  0.00  0.00    +0.131 C 
BRANCH  21  23
ATOM     22  O   UNL     1      29.992  -3.482 -22.031  0.00  0.00    -0.250 OA
ATOM     23  C   UNL     1      30.763  -4.376 -21.713  0.00  0.00    +0.316 C 
BRANCH  23  24
ATOM     24  O   UNL     1      31.945  -4.147 -21.083  0.00  0.00    -0.480 OA
ATOM     25  H   UNL     1      32.106  -3.318 -20.676  0.00  0.00    +0.295 HD
ENDBRANCH  23  24
ENDBRANCH  21  23
ENDBRANCH  20  21
ENDBRANCH  12  20
ENDBRANCH   6  13
BRANCH   4  26
ATOM     26  C   UNL     1      32.846 -14.097 -23.621  0.00  0.00    +0.164 C 
BRANCH  26  27
ATOM     27  N   UNL     1      34.171 -14.675 -23.811  0.00  0.00    -0.326 N 
ATOM     28  H   UNL     1      34.758 -14.285 -24.500  0.00  0.00    +0.147 HD
BRANCH  27  29
ATOM     29  C   UNL     1      34.642 -15.741 -23.076  0.00  0.00    +0.045 C 
ATOM     30  C   UNL     1      34.930 -16.951 -23.706  0.00  0.00    +0.014 C 
ATOM     31  C   UNL     1      34.829 -15.610 -21.699  0.00  0.00    +0.014 C 
ATOM     32  C   UNL     1      35.404 -18.030 -22.962  0.00  0.00    +0.004 C 
ATOM     33  C   UNL     1      35.303 -16.689 -20.954  0.00  0.00    +0.004 C 
ATOM     34  C   UNL     1      35.591 -17.900 -21.585  0.00  0.00    +0.031 C 
BRANCH  34  37
ATOM     35  N   UNL     1      35.301 -20.155 -20.589  0.00  0.00    -0.343 N 
ATOM     36  N   UNL     1      37.300 -18.984 -20.291  0.00  0.00    -0.285 NA
ATOM     37  C   UNL     1      36.086 -19.025 -20.808  0.00  0.00    +0.117 C 
ATOM     38  H   UNL     1      35.656 -20.906 -20.059  0.00  0.00    +0.144 HD
ATOM     39  H   UNL     1      34.392 -20.204 -20.963  0.00  0.00    +0.144 HD
ATOM     40  H   UNL     1      37.638 -19.744 -19.765  0.00  0.00    +0.188 HD
ENDBRANCH  34  37
ENDBRANCH  27  29
ENDBRANCH  26  27
ENDBRANCH   4  26
TORSDOF 9
ENDMDL
MODEL 8
REMARK VINA RESULT:      -9.4      2.852     10.826
REMARK  Name = 216210
REMARK  9 active torsions:
REMARK  status: ('A' for Active; 'I' for Inactive)
REMARK    1  A    between atoms: C_4  and  C_26
REMARK    2  A    between atoms: C_6  and  C_13
REMARK    3  A    between atoms: N_12  and  C_20
REMARK    4  A    between atoms: C_20  and  C_21
REMARK    5  A    between atoms: C_21  and  C_23
REMARK    6  A    between atoms: C_23  and  O_24
REMARK    7  A    between atoms: C_26  and  N_27
REMARK    8  A    between atoms: N_27  and  C_29
REMARK    9  A    between atoms: C_34  and  C_37
REMARK                            x       y       z     vdW  Elec       q    Type
REMARK                         _______ _______ _______ _____ _____    ______ ____
ROOT
ATOM      1  N   UNL     1      33.115 -13.023 -22.341  0.00  0.00    -0.261 N 
ATOM      2  N   UNL     1      32.720 -13.933 -20.353  0.00  0.00    -0.388 NA
ATOM      3  C   UNL     1      33.851 -14.178 -22.204  0.00  0.00    +0.079 C 
ATOM      4  C   UNL     1      32.450 -12.906 -21.214  0.00  0.00    +0.184 C 
ATOM      5  C   UNL     1      33.620 -14.767 -20.964  0.00  0.00    +0.146 C 
ATOM      6  C   UNL     1      35.120 -16.548 -21.455  0.00  0.00    +0.039 C 
ATOM      7  C   UNL     1      34.234 -15.951 -20.552  0.00  0.00    +0.034 C 
ATOM      8  C   UNL     1      34.745 -14.791 -23.098  0.00  0.00    -0.004 C 
ATOM      9  C   UNL     1      35.372 -15.980 -22.706  0.00  0.00    +0.058 C 
ATOM     10  C   UNL     1      33.097 -12.149 -23.489  0.00  0.00    +0.120 C 
ENDROOT
BRANCH   6  13
ATOM     11  O   UNL     1      36.982 -17.678 -20.759  0.00  0.00    -0.270 OA
ATOM     12  N   UNL     1      35.056 -18.999 -21.109  0.00  0.00    -0.240 N 
ATOM     13  C   UNL     1      35.790 -17.784 -21.082  0.00  0.00    +0.250 C 
ATOM     14  N   UNL     1      36.418 -19.872 -19.324  0.00  0.00    -0.229 NA
ATOM     15  C   UNL     1      35.398 -20.068 -20.188  0.00  0.00    +0.138 C 
ATOM     16  C   UNL     1      34.649 -21.232 -20.255  0.00  0.00    +0.035 C 
ATOM     17  C   UNL     1      34.970 -22.263 -19.378  0.00  0.00    +0.004 C 
ATOM     18  C   UNL     1      36.701 -20.896 -18.487  0.00  0.00    +0.100 C 
ATOM     19  C   UNL     1      36.014 -22.099 -18.474  0.00  0.00    +0.021 C 
BRANCH  12  20
ATOM     20  C   UNL     1      33.949 -19.183 -22.061  0.00  0.00    +0.112 C 
BRANCH  20  21
ATOM     21  C   UNL     1      34.450 -19.509 -23.463  0.00  0.00    +0.131 C 
BRANCH  21  23
ATOM     22  O   UNL     1      32.570 -19.156 -24.975  0.00  0.00    -0.250 OA
ATOM     23  C   UNL     1      33.662 -18.807 -24.549  0.00  0.00    +0.316 C 
BRANCH  23  24
ATOM     24  O   UNL     1      34.320 -17.709 -25.006  0.00  0.00    -0.480 OA
ATOM     25  H   UNL     1      35.219 -17.775 -25.264  0.00  0.00    +0.295 HD
ENDBRANCH  23  24
ENDBRANCH  21  23
ENDBRANCH  20  21
ENDBRANCH  12  20
ENDBRANCH   6  13
BRANCH   4  26
ATOM     26  C   UNL     1      31.523 -11.790 -20.935  0.00  0.00    +0.164 C 
BRANCH  26  27
ATOM     27  N   UNL     1      32.093 -10.687 -20.171  0.00  0.00    -0.326 N 
ATOM     28  H   UNL     1      32.487 -10.882 -19.290  0.00  0.00    +0.147 HD
BRANCH  27  29
ATOM     29  C   UNL     1      32.105  -9.384 -20.620  0.00  0.00    +0.045 C 
ATOM     30  C   UNL     1      31.633  -9.082 -21.898  0.00  0.00    +0.014 C 
ATOM     31  C   UNL     1      32.594  -8.368 -19.798  0.00  0.00    +0.014 C 
ATOM     32  C   UNL     1      31.648  -7.764 -22.352  0.00  0.00    +0.004 C 
ATOM     33  C   UNL     1      32.608  -7.050 -20.254  0.00  0.00    +0.004 C 
ATOM     34  C   UNL     1      32.135  -6.748 -21.531  0.00  0.00    +0.031 C 
BRANCH  34  37
ATOM     35  N   UNL     1      32.592  -5.054 -23.289  0.00  0.00    -0.343 N 
ATOM     36  N   UNL     1      31.746  -4.398 -21.212  0.00  0.00    -0.285 NA
ATOM     37  C   UNL     1      32.151  -5.373 -22.005  0.00  0.00    +0.117 C 
ATOM     38  H   UNL     1      32.594  -4.116 -23.590  0.00  0.00    +0.144 HD
ATOM     39  H   UNL     1      32.900  -5.766 -23.895  0.00  0.00    +0.144 HD
ATOM     40  H   UNL     1      31.756  -3.467 -21.530  0.00  0.00    +0.188 HD
ENDBRANCH  34  37
ENDBRANCH  27  29
ENDBRANCH  26  27
ENDBRANCH   4  26
TORSDOF 9
ENDMDL
MODEL 9
REMARK VINA RESULT:      -9.4      4.442     11.893
REMARK  Name = 216210
REMARK  9 active torsions:
REMARK  status: ('A' for Active; 'I' for Inactive)
REMARK    1  A    between atoms: C_4  and  C_26
REMARK    2  A    between atoms: C_6  and  C_13
REMARK    3  A    between atoms: N_12  and  C_20
REMARK    4  A    between atoms: C_20  and  C_21
REMARK    5  A    between atoms: C_21  and  C_23
REMARK    6  A    between atoms: C_23  and  O_24
REMARK    7  A    between atoms: C_26  and  N_27
REMARK    8  A    between atoms: N_27  and  C_29
REMARK    9  A    between atoms: C_34  and  C_37
REMARK                            x       y       z     vdW  Elec       q    Type
REMARK                         _______ _______ _______ _____ _____    ______ ____
ROOT
ATOM      1  N   UNL     1      35.153 -19.834 -20.880  0.00  0.00    -0.261 N 
ATOM      2  N   UNL     1      37.099 -19.438 -19.884  0.00  0.00    -0.388 NA
ATOM      3  C   UNL     1      35.283 -20.644 -19.776  0.00  0.00    +0.079 C 
ATOM      4  C   UNL     1      36.258 -19.125 -20.916  0.00  0.00    +0.184 C 
ATOM      5  C   UNL     1      36.497 -20.414 -19.134  0.00  0.00    +0.146 C 
ATOM      6  C   UNL     1      36.009 -22.052 -17.477  0.00  0.00    +0.039 C 
ATOM      7  C   UNL     1      36.897 -21.096 -17.984  0.00  0.00    +0.034 C 
ATOM      8  C   UNL     1      34.404 -21.609 -19.254  0.00  0.00    -0.004 C 
ATOM      9  C   UNL     1      34.784 -22.304 -18.100  0.00  0.00    +0.058 C 
ATOM     10  C   UNL     1      34.030 -19.792 -21.786  0.00  0.00    +0.120 C 
ENDROOT
BRANCH   6  13
ATOM     11  O   UNL     1      37.584 -22.947 -16.082  0.00  0.00    -0.270 OA
ATOM     12  N   UNL     1      35.337 -23.282 -15.436  0.00  0.00    -0.240 N 
ATOM     13  C   UNL     1      36.370 -22.795 -16.280  0.00  0.00    +0.250 C 
ATOM     14  N   UNL     1      36.788 -23.073 -13.525  0.00  0.00    -0.229 NA
ATOM     15  C   UNL     1      35.575 -23.417 -14.011  0.00  0.00    +0.138 C 
ATOM     16  C   UNL     1      34.534 -23.897 -13.232  0.00  0.00    +0.035 C 
ATOM     17  C   UNL     1      34.752 -24.031 -11.865  0.00  0.00    +0.004 C 
ATOM     18  C   UNL     1      36.964 -23.218 -12.192  0.00  0.00    +0.100 C 
ATOM     19  C   UNL     1      35.988 -23.687 -11.328  0.00  0.00    +0.021 C 
BRANCH  12  20
ATOM     20  C   UNL     1      34.026 -23.649 -15.995  0.00  0.00    +0.112 C 
BRANCH  20  21
ATOM     21  C   UNL     1      32.891 -22.860 -15.356  0.00  0.00    +0.131 C 
BRANCH  21  23
ATOM     22  O   UNL     1      30.880 -24.239 -15.402  0.00  0.00    -0.250 OA
ATOM     23  C   UNL     1      31.524 -23.295 -15.840  0.00  0.00    +0.316 C 
BRANCH  23  24
ATOM     24  O   UNL     1      31.074 -22.491 -16.839  0.00  0.00    -0.480 OA
ATOM     25  H   UNL     1      31.485 -21.663 -16.995  0.00  0.00    +0.295 HD
ENDBRANCH  23  24
ENDBRANCH  21  23
ENDBRANCH  20  21
ENDBRANCH  12  20
ENDBRANCH   6  13
BRANCH   4  26
ATOM     26  C   UNL     1      36.535 -18.113 -21.956  0.00  0.00    +0.164 C 
BRANCH  26  27
ATOM     27  N   UNL     1      35.386 -17.721 -22.761  0.00  0.00    -0.326 N 
ATOM     28  H   UNL     1      34.894 -18.421 -23.248  0.00  0.00    +0.147 HD
BRANCH  27  29
ATOM     29  C   UNL     1      34.953 -16.417 -22.875  0.00  0.00    +0.045 C 
ATOM     30  C   UNL     1      34.984 -15.571 -21.766  0.00  0.00    +0.014 C 
ATOM     31  C   UNL     1      34.481 -15.944 -24.100  0.00  0.00    +0.014 C 
ATOM     32  C   UNL     1      34.544 -14.254 -21.882  0.00  0.00    +0.004 C 
ATOM     33  C   UNL     1      34.041 -14.626 -24.215  0.00  0.00    +0.004 C 
ATOM     34  C   UNL     1      34.072 -13.780 -23.106  0.00  0.00    +0.031 C 
BRANCH  34  37
ATOM     35  N   UNL     1      32.399 -11.996 -22.679  0.00  0.00    -0.343 N 
ATOM     36  N   UNL     1      34.351 -11.520 -23.870  0.00  0.00    -0.285 NA
ATOM     37  C   UNL     1      33.614 -12.405 -23.227  0.00  0.00    +0.117 C 
ATOM     38  H   UNL     1      32.107 -11.060 -22.772  0.00  0.00    +0.144 HD
ATOM     39  H   UNL     1      31.833 -12.642 -22.198  0.00  0.00    +0.144 HD
ATOM     40  H   UNL     1      34.043 -10.589 -23.954  0.00  0.00    +0.188 HD
ENDBRANCH  34  37
ENDBRANCH  27  29
ENDBRANCH  26  27
ENDBRANCH   4  26
TORSDOF 9
ENDMDL
