MODEL 1
REMARK VINA RESULT:     -12.3      0.000      0.000
REMARK  Name = 72734520
REMARK  6 active torsions:
REMARK  status: ('A' for Active; 'I' for Inactive)
REMARK    1  A    between atoms: N_1  and  C_19
REMARK    2  A    between atoms: C_8  and  O_28
REMARK    3  A    between atoms: C_14  and  N_20
REMARK    4  A    between atoms: O_28  and  C_29
REMARK    5  A    between atoms: C_32  and  N_36
REMARK    6  A    between atoms: C_37  and  C_39
REMARK                            x       y       z     vdW  Elec       q    Type
REMARK                         _______ _______ _______ _____ _____    ______ ____
ROOT
ATOM      1  N   UNL     1      35.136 -20.750 -21.085  0.00  0.00    -0.238 N 
ATOM      2  N   UNL     1      34.847 -19.390 -22.959  0.00  0.00    -0.316 NA
ATOM      3  N   UNL     1      35.189 -18.439 -20.745  0.00  0.00    -0.294 NA
ATOM      4  N   UNL     1      34.581 -17.714 -24.672  0.00  0.00    -0.289 N 
ATOM      5  C   UNL     1      35.053 -19.453 -21.628  0.00  0.00    +0.207 C 
ATOM      6  C   UNL     1      34.902 -16.976 -22.591  0.00  0.00    +0.181 C 
ATOM      7  C   UNL     1      34.781 -18.114 -23.378  0.00  0.00    +0.188 C 
ATOM      8  C   UNL     1      35.113 -17.178 -21.228  0.00  0.00    +0.281 C 
ATOM      9  C   UNL     1      34.768 -15.859 -23.456  0.00  0.00    +0.008 C 
ATOM     10  C   UNL     1      34.570 -16.344 -24.731  0.00  0.00    +0.060 C 
ATOM     11  H   UNL     1      35.033 -21.466 -21.752  0.00  0.00    +0.166 HD
ATOM     12  H   UNL     1      34.462 -18.316 -25.442  0.00  0.00    +0.154 HD
ENDROOT
BRANCH   1  19
ATOM     13  F   UNL     1      33.591 -23.166 -17.244  0.00  0.00    -0.203 F 
ATOM     14  C   UNL     1      35.741 -22.160 -17.174  0.00  0.00    +0.076 C 
ATOM     15  C   UNL     1      34.550 -22.445 -17.841  0.00  0.00    +0.155 C 
ATOM     16  C   UNL     1      36.731 -21.407 -17.806  0.00  0.00    +0.018 C 
ATOM     17  C   UNL     1      34.349 -21.977 -19.140  0.00  0.00    +0.046 C 
ATOM     18  C   UNL     1      36.530 -20.939 -19.104  0.00  0.00    +0.017 C 
ATOM     19  C   UNL     1      35.339 -21.224 -19.771  0.00  0.00    +0.061 C 
BRANCH  14  20
ATOM     20  N   UNL     1      35.945 -22.627 -15.871  0.00  0.00    -0.310 N 
ATOM     21  N   UNL     1      36.427 -23.336 -13.146  0.00  0.00    +0.388 N 
ATOM     22  C   UNL     1      37.309 -22.587 -15.330  0.00  0.00    +0.068 C 
ATOM     23  C   UNL     1      34.867 -22.519 -14.883  0.00  0.00    +0.068 C 
ATOM     24  C   UNL     1      37.455 -23.571 -14.167  0.00  0.00    -0.056 C 
ATOM     25  C   UNL     1      35.092 -23.505 -13.733  0.00  0.00    -0.056 C 
ATOM     26  C   UNL     1      36.609 -24.246 -12.016  0.00  0.00    -0.101 C 
ATOM     27  H   UNL     1      36.516 -22.381 -12.803  0.00  0.00    -0.080 HD
ENDBRANCH  14  20
ENDBRANCH   1  19
BRANCH   8  28
ATOM     28  O   UNL     1      35.251 -16.137 -20.344  0.00  0.00    -0.429 OA
BRANCH  28  29
ATOM     29  C   UNL     1      34.259 -15.176 -20.339  0.00  0.00    +0.149 C 
ATOM     30  C   UNL     1      34.344 -14.083 -21.202  0.00  0.00    +0.052 C 
ATOM     31  C   UNL     1      33.173 -15.299 -19.474  0.00  0.00    +0.038 C 
ATOM     32  C   UNL     1      33.342 -13.113 -21.199  0.00  0.00    +0.054 C 
ATOM     33  C   UNL     1      32.256 -13.235 -20.333  0.00  0.00    +0.015 C 
ATOM     34  C   UNL     1      32.170 -14.329 -19.471  0.00  0.00    +0.004 C 
BRANCH  32  36
ATOM     35  O   UNL     1      33.123 -12.977 -24.190  0.00  0.00    -0.270 OA
ATOM     36  N   UNL     1      33.427 -12.020 -22.063  0.00  0.00    -0.280 N 
ATOM     37  C   UNL     1      33.316 -12.013 -23.460  0.00  0.00    +0.250 C 
ATOM     38  H   UNL     1      33.583 -11.146 -21.638  0.00  0.00    +0.155 HD
BRANCH  37  39
ATOM     39  C   UNL     1      33.465 -10.637 -24.017  0.00  0.00    +0.058 C 
ATOM     40  C   UNL     1      32.599  -9.674 -23.687  0.00  0.00    +0.005 C 
ENDBRANCH  37  39
ENDBRANCH  32  36
ENDBRANCH  28  29
ENDBRANCH   8  28
TORSDOF 6
ENDMDL
MODEL 2
REMARK VINA RESULT:     -11.6      4.147     10.291
REMARK  Name = 72734520
REMARK  6 active torsions:
REMARK  status: ('A' for Active; 'I' for Inactive)
REMARK    1  A    between atoms: N_1  and  C_19
REMARK    2  A    between atoms: C_8  and  O_28
REMARK    3  A    between atoms: C_14  and  N_20
REMARK    4  A    between atoms: O_28  and  C_29
REMARK    5  A    between atoms: C_32  and  N_36
REMARK    6  A    between atoms: C_37  and  C_39
REMARK                            x       y       z     vdW  Elec       q    Type
REMARK                         _______ _______ _______ _____ _____    ______ ____
ROOT
ATOM      1  N   UNL     1      36.777 -22.439 -17.266  0.00  0.00    -0.238 N 
ATOM      2  N   UNL     1      36.799 -23.699 -15.302  0.00  0.00    -0.316 NA
ATOM      3  N   UNL     1      34.878 -22.332 -15.909  0.00  0.00    -0.294 NA
ATOM      4  N   UNL     1      36.499 -24.870 -13.216  0.00  0.00    -0.289 N 
ATOM      5  C   UNL     1      36.114 -22.848 -16.093  0.00  0.00    +0.207 C 
ATOM      6  C   UNL     1      34.809 -23.578 -13.890  0.00  0.00    +0.181 C 
ATOM      7  C   UNL     1      36.084 -24.026 -14.212  0.00  0.00    +0.188 C 
ATOM      8  C   UNL     1      34.210 -22.699 -14.792  0.00  0.00    +0.281 C 
ATOM      9  C   UNL     1      34.458 -24.182 -12.656  0.00  0.00    +0.008 C 
ATOM     10  C   UNL     1      35.517 -24.972 -12.264  0.00  0.00    +0.060 C 
ATOM     11  H   UNL     1      37.674 -22.830 -17.372  0.00  0.00    +0.166 HD
ATOM     12  H   UNL     1      37.367 -25.333 -13.188  0.00  0.00    +0.154 HD
ENDROOT
BRANCH   1  19
ATOM     13  F   UNL     1      33.515 -20.871 -20.409  0.00  0.00    -0.203 F 
ATOM     14  C   UNL     1      35.674 -19.880 -20.410  0.00  0.00    +0.076 C 
ATOM     15  C   UNL     1      34.754 -20.796 -19.902  0.00  0.00    +0.155 C 
ATOM     16  C   UNL     1      36.960 -19.814 -19.875  0.00  0.00    +0.018 C 
ATOM     17  C   UNL     1      35.120 -21.646 -18.857  0.00  0.00    +0.046 C 
ATOM     18  C   UNL     1      37.326 -20.663 -18.831  0.00  0.00    +0.017 C 
ATOM     19  C   UNL     1      36.406 -21.579 -18.322  0.00  0.00    +0.061 C 
BRANCH  14  20
ATOM     20  N   UNL     1      35.310 -19.027 -21.458  0.00  0.00    -0.310 N 
ATOM     21  N   UNL     1      34.820 -17.271 -23.656  0.00  0.00    +0.388 N 
ATOM     22  C   UNL     1      35.761 -17.631 -21.399  0.00  0.00    +0.068 C 
ATOM     23  C   UNL     1      35.110 -19.573 -22.804  0.00  0.00    +0.068 C 
ATOM     24  C   UNL     1      34.883 -16.745 -22.287  0.00  0.00    -0.056 C 
ATOM     25  C   UNL     1      34.254 -18.624 -23.647  0.00  0.00    -0.056 C 
ATOM     26  C   UNL     1      34.024 -16.387 -24.508  0.00  0.00    -0.101 C 
ATOM     27  H   UNL     1      35.765 -17.312 -24.036  0.00  0.00    -0.080 HD
ENDBRANCH  14  20
ENDBRANCH   1  19
BRANCH   8  28
ATOM     28  O   UNL     1      32.953 -22.186 -14.591  0.00  0.00    -0.429 OA
BRANCH  28  29
ATOM     29  C   UNL     1      31.882 -23.018 -14.844  0.00  0.00    +0.149 C 
ATOM     30  C   UNL     1      30.839 -22.583 -15.662  0.00  0.00    +0.052 C 
ATOM     31  C   UNL     1      31.841 -24.294 -14.283  0.00  0.00    +0.038 C 
ATOM     32  C   UNL     1      29.757 -23.424 -15.920  0.00  0.00    +0.054 C 
ATOM     33  C   UNL     1      29.716 -24.700 -15.359  0.00  0.00    +0.015 C 
ATOM     34  C   UNL     1      30.759 -25.136 -14.541  0.00  0.00    +0.004 C 
BRANCH  32  36
ATOM     35  O   UNL     1      26.943 -22.633 -15.232  0.00  0.00    -0.270 OA
ATOM     36  N   UNL     1      28.714 -22.989 -16.739  0.00  0.00    -0.280 N 
ATOM     37  C   UNL     1      27.413 -22.630 -16.363  0.00  0.00    +0.250 C 
ATOM     38  H   UNL     1      28.919 -22.925 -17.700  0.00  0.00    +0.155 HD
BRANCH  37  39
ATOM     39  C   UNL     1      26.594 -22.217 -17.540  0.00  0.00    +0.058 C 
ATOM     40  C   UNL     1      25.849 -21.109 -17.494  0.00  0.00    +0.005 C 
ENDBRANCH  37  39
ENDBRANCH  32  36
ENDBRANCH  28  29
ENDBRANCH   8  28
TORSDOF 6
ENDMDL
MODEL 3
REMARK VINA RESULT:     -10.7      5.197     13.737
REMARK  Name = 72734520
REMARK  6 active torsions:
REMARK  status: ('A' for Active; 'I' for Inactive)
REMARK    1  A    between atoms: N_1  and  C_19
REMARK    2  A    between atoms: C_8  and  O_28
REMARK    3  A    between atoms: C_14  and  N_20
REMARK    4  A    between atoms: O_28  and  C_29
REMARK    5  A    between atoms: C_32  and  N_36
REMARK    6  A    between atoms: C_37  and  C_39
REMARK                            x       y       z     vdW  Elec       q    Type
REMARK                         _______ _______ _______ _____ _____    ______ ____
ROOT
ATOM      1  N   UNL     1      31.566  -9.210 -21.696  0.00  0.00    -0.238 N 
ATOM      2  N   UNL     1      31.619 -11.204 -20.483  0.00  0.00    -0.316 NA
ATOM      3  N   UNL     1      32.917 -10.928 -22.524  0.00  0.00    -0.294 NA
ATOM      4  N   UNL     1      31.897 -13.378 -19.479  0.00  0.00    -0.289 N 
ATOM      5  C   UNL     1      32.062 -10.521 -21.559  0.00  0.00    +0.207 C 
ATOM      6  C   UNL     1      33.034 -12.992 -21.360  0.00  0.00    +0.181 C 
ATOM      7  C   UNL     1      32.147 -12.440 -20.444  0.00  0.00    +0.188 C 
ATOM      8  C   UNL     1      33.414 -12.182 -22.429  0.00  0.00    +0.281 C 
ATOM      9  C   UNL     1      33.317 -14.310 -20.917  0.00  0.00    +0.008 C 
ATOM     10  C   UNL     1      32.603 -14.520 -19.757  0.00  0.00    +0.060 C 
ATOM     11  H   UNL     1      30.946  -8.944 -20.978  0.00  0.00    +0.166 HD
ATOM     12  H   UNL     1      31.302 -13.253 -18.705  0.00  0.00    +0.154 HD
ENDROOT
BRANCH   1  19
ATOM     13  F   UNL     1      34.405  -5.907 -23.695  0.00  0.00    -0.203 F 
ATOM     14  C   UNL     1      32.215  -6.209 -24.563  0.00  0.00    +0.076 C 
ATOM     15  C   UNL     1      33.225  -6.540 -23.659  0.00  0.00    +0.155 C 
ATOM     16  C   UNL     1      30.990  -6.874 -24.513  0.00  0.00    +0.018 C 
ATOM     17  C   UNL     1      33.009  -7.538 -22.707  0.00  0.00    +0.046 C 
ATOM     18  C   UNL     1      30.774  -7.871 -23.562  0.00  0.00    +0.017 C 
ATOM     19  C   UNL     1      31.784  -8.203 -22.659  0.00  0.00    +0.061 C 
BRANCH  14  20
ATOM     20  N   UNL     1      32.428  -5.209 -25.518  0.00  0.00    -0.310 N 
ATOM     21  N   UNL     1      33.079  -3.107 -27.338  0.00  0.00    +0.388 N 
ATOM     22  C   UNL     1      32.390  -3.811 -25.071  0.00  0.00    +0.068 C 
ATOM     23  C   UNL     1      33.279  -5.481 -26.680  0.00  0.00    +0.068 C 
ATOM     24  C   UNL     1      32.118  -2.877 -26.252  0.00  0.00    -0.056 C 
ATOM     25  C   UNL     1      32.979  -4.493 -27.809  0.00  0.00    -0.056 C 
ATOM     26  C   UNL     1      32.843  -2.172 -28.438  0.00  0.00    -0.101 C 
ATOM     27  H   UNL     1      34.021  -2.948 -26.982  0.00  0.00    -0.080 HD
ENDBRANCH  14  20
ENDBRANCH   1  19
BRANCH   8  28
ATOM     28  O   UNL     1      34.285 -12.609 -23.400  0.00  0.00    -0.429 OA
BRANCH  28  29
ATOM     29  C   UNL     1      34.205 -13.932 -23.783  0.00  0.00    +0.149 C 
ATOM     30  C   UNL     1      35.018 -14.885 -23.169  0.00  0.00    +0.052 C 
ATOM     31  C   UNL     1      33.312 -14.317 -24.782  0.00  0.00    +0.038 C 
ATOM     32  C   UNL     1      34.937 -16.223 -23.555  0.00  0.00    +0.054 C 
ATOM     33  C   UNL     1      34.044 -16.609 -24.554  0.00  0.00    +0.015 C 
ATOM     34  C   UNL     1      33.230 -15.656 -25.167  0.00  0.00    +0.004 C 
BRANCH  32  36
ATOM     35  O   UNL     1      35.034 -17.145 -20.698  0.00  0.00    -0.270 OA
ATOM     36  N   UNL     1      35.750 -17.177 -22.940  0.00  0.00    -0.280 N 
ATOM     37  C   UNL     1      35.753 -17.571 -21.595  0.00  0.00    +0.250 C 
ATOM     38  H   UNL     1      36.401 -17.629 -23.523  0.00  0.00    +0.155 HD
BRANCH  37  39
ATOM     39  C   UNL     1      36.777 -18.623 -21.332  0.00  0.00    +0.058 C 
ATOM     40  C   UNL     1      36.622 -19.484 -20.322  0.00  0.00    +0.005 C 
ENDBRANCH  37  39
ENDBRANCH  32  36
ENDBRANCH  28  29
ENDBRANCH   8  28
TORSDOF 6
ENDMDL
MODEL 4
REMARK VINA RESULT:     -10.3      7.267     12.227
REMARK  Name = 72734520
REMARK  6 active torsions:
REMARK  status: ('A' for Active; 'I' for Inactive)
REMARK    1  A    between atoms: N_1  and  C_19
REMARK    2  A    between atoms: C_8  and  O_28
REMARK    3  A    between atoms: C_14  and  N_20
REMARK    4  A    between atoms: O_28  and  C_29
REMARK    5  A    between atoms: C_32  and  N_36
REMARK    6  A    between atoms: C_37  and  C_39
REMARK                            x       y       z     vdW  Elec       q    Type
REMARK                         _______ _______ _______ _____ _____    ______ ____
ROOT
ATOM      1  N   UNL     1      31.863  -8.012 -21.267  0.00  0.00    -0.238 N 
ATOM      2  N   UNL     1      31.229  -5.770 -21.119  0.00  0.00    -0.316 NA
ATOM      3  N   UNL     1      31.701  -6.815 -23.267  0.00  0.00    -0.294 NA
ATOM      4  N   UNL     1      30.605  -3.450 -21.319  0.00  0.00    -0.289 N 
ATOM      5  C   UNL     1      31.581  -6.797 -21.921  0.00  0.00    +0.207 C 
ATOM      6  C   UNL     1      31.065  -4.529 -23.217  0.00  0.00    +0.181 C 
ATOM      7  C   UNL     1      30.984  -4.660 -21.837  0.00  0.00    +0.188 C 
ATOM      8  C   UNL     1      31.439  -5.666 -23.932  0.00  0.00    +0.281 C 
ATOM      9  C   UNL     1      30.720  -3.188 -23.526  0.00  0.00    +0.008 C 
ATOM     10  C   UNL     1      30.443  -2.547 -22.338  0.00  0.00    +0.060 C 
ATOM     11  H   UNL     1      31.768  -7.966 -20.288  0.00  0.00    +0.166 HD
ATOM     12  H   UNL     1      30.471  -3.257 -20.363  0.00  0.00    +0.154 HD
ENDROOT
BRANCH   1  19
ATOM     13  F   UNL     1      31.641 -12.793 -21.026  0.00  0.00    -0.203 F 
ATOM     14  C   UNL     1      33.029 -11.794 -22.674  0.00  0.00    +0.076 C 
ATOM     15  C   UNL     1      32.135 -11.692 -21.609  0.00  0.00    +0.155 C 
ATOM     16  C   UNL     1      33.537 -10.640 -23.271  0.00  0.00    +0.018 C 
ATOM     17  C   UNL     1      31.747 -10.435 -21.142  0.00  0.00    +0.046 C 
ATOM     18  C   UNL     1      33.150  -9.384 -22.804  0.00  0.00    +0.017 C 
ATOM     19  C   UNL     1      32.255  -9.282 -21.740  0.00  0.00    +0.061 C 
BRANCH  14  20
ATOM     20  N   UNL     1      33.421 -13.053 -23.144  0.00  0.00    -0.310 N 
ATOM     21  N   UNL     1      34.412 -15.501 -24.231  0.00  0.00    +0.388 N 
ATOM     22  C   UNL     1      33.321 -13.312 -24.586  0.00  0.00    +0.068 C 
ATOM     23  C   UNL     1      34.462 -13.802 -22.435  0.00  0.00    +0.068 C 
ATOM     24  C   UNL     1      33.275 -14.817 -24.859  0.00  0.00    -0.056 C 
ATOM     25  C   UNL     1      34.380 -15.292 -22.779  0.00  0.00    -0.056 C 
ATOM     26  C   UNL     1      34.387 -16.930 -24.544  0.00  0.00    -0.101 C 
ATOM     27  H   UNL     1      35.277 -15.109 -24.601  0.00  0.00    -0.080 HD
ENDBRANCH  14  20
ENDBRANCH   1  19
BRANCH   8  28
ATOM     28  O   UNL     1      31.555  -5.669 -25.299  0.00  0.00    -0.429 OA
BRANCH  28  29
ATOM     29  C   UNL     1      32.721  -5.163 -25.836  0.00  0.00    +0.149 C 
ATOM     30  C   UNL     1      33.542  -5.980 -26.614  0.00  0.00    +0.052 C 
ATOM     31  C   UNL     1      33.078  -3.835 -25.603  0.00  0.00    +0.038 C 
ATOM     32  C   UNL     1      34.720  -5.468 -27.159  0.00  0.00    +0.054 C 
ATOM     33  C   UNL     1      35.077  -4.141 -26.925  0.00  0.00    +0.015 C 
ATOM     34  C   UNL     1      34.256  -3.323 -26.149  0.00  0.00    +0.004 C 
BRANCH  32  36
ATOM     35  O   UNL     1      34.414  -6.389 -30.000  0.00  0.00    -0.270 OA
ATOM     36  N   UNL     1      35.541  -6.286 -27.937  0.00  0.00    -0.280 N 
ATOM     37  C   UNL     1      35.349  -6.686 -29.267  0.00  0.00    +0.250 C 
ATOM     38  H   UNL     1      36.355  -6.622 -27.498  0.00  0.00    +0.155 HD
BRANCH  37  39
ATOM     39  C   UNL     1      36.458  -7.564 -29.742  0.00  0.00    +0.058 C 
ATOM     40  C   UNL     1      37.690  -7.074 -29.904  0.00  0.00    +0.005 C 
ENDBRANCH  37  39
ENDBRANCH  32  36
ENDBRANCH  28  29
ENDBRANCH   8  28
TORSDOF 6
ENDMDL
MODEL 5
REMARK VINA RESULT:      -9.7      1.691      2.496
REMARK  Name = 72734520
REMARK  6 active torsions:
REMARK  status: ('A' for Active; 'I' for Inactive)
REMARK    1  A    between atoms: N_1  and  C_19
REMARK    2  A    between atoms: C_8  and  O_28
REMARK    3  A    between atoms: C_14  and  N_20
REMARK    4  A    between atoms: O_28  and  C_29
REMARK    5  A    between atoms: C_32  and  N_36
REMARK    6  A    between atoms: C_37  and  C_39
REMARK                            x       y       z     vdW  Elec       q    Type
REMARK                         _______ _______ _______ _____ _____    ______ ____
ROOT
ATOM      1  N   UNL     1      34.547 -19.121 -22.712  0.00  0.00    -0.238 N 
ATOM      2  N   UNL     1      34.120 -17.548 -24.382  0.00  0.00    -0.316 NA
ATOM      3  N   UNL     1      34.647 -16.867 -22.105  0.00  0.00    -0.294 NA
ATOM      4  N   UNL     1      33.730 -15.680 -25.856  0.00  0.00    -0.289 N 
ATOM      5  C   UNL     1      34.432 -17.769 -23.089  0.00  0.00    +0.207 C 
ATOM      6  C   UNL     1      34.225 -15.195 -23.735  0.00  0.00    +0.181 C 
ATOM      7  C   UNL     1      34.031 -16.231 -24.639  0.00  0.00    +0.188 C 
ATOM      8  C   UNL     1      34.543 -15.557 -22.427  0.00  0.00    +0.281 C 
ATOM      9  C   UNL     1      34.031 -13.984 -24.447  0.00  0.00    +0.008 C 
ATOM     10  C   UNL     1      33.727 -14.313 -25.750  0.00  0.00    +0.060 C 
ATOM     11  H   UNL     1      34.384 -19.753 -23.449  0.00  0.00    +0.166 HD
ATOM     12  H   UNL     1      33.545 -16.186 -26.680  0.00  0.00    +0.154 HD
ENDROOT
BRANCH   1  19
ATOM     13  F   UNL     1      33.131 -21.328 -18.700  0.00  0.00    -0.203 F 
ATOM     14  C   UNL     1      35.454 -20.987 -19.059  0.00  0.00    +0.076 C 
ATOM     15  C   UNL     1      34.126 -20.860 -19.466  0.00  0.00    +0.155 C 
ATOM     16  C   UNL     1      36.480 -20.493 -19.865  0.00  0.00    +0.018 C 
ATOM     17  C   UNL     1      33.825 -20.241 -20.680  0.00  0.00    +0.046 C 
ATOM     18  C   UNL     1      36.179 -19.874 -21.077  0.00  0.00    +0.017 C 
ATOM     19  C   UNL     1      34.851 -19.748 -21.485  0.00  0.00    +0.061 C 
BRANCH  14  20
ATOM     20  N   UNL     1      35.759 -21.606 -17.842  0.00  0.00    -0.310 N 
ATOM     21  N   UNL     1      36.435 -23.085 -15.494  0.00  0.00    +0.388 N 
ATOM     22  C   UNL     1      34.909 -22.720 -17.403  0.00  0.00    +0.068 C 
ATOM     23  C   UNL     1      37.147 -21.645 -17.373  0.00  0.00    +0.068 C 
ATOM     24  C   UNL     1      35.031 -22.926 -15.892  0.00  0.00    -0.056 C 
ATOM     25  C   UNL     1      37.197 -21.887 -15.862  0.00  0.00    -0.056 C 
ATOM     26  C   UNL     1      36.536 -23.336 -14.056  0.00  0.00    -0.101 C 
ATOM     27  H   UNL     1      36.827 -23.888 -15.985  0.00  0.00    -0.080 HD
ENDBRANCH  14  20
ENDBRANCH   1  19
BRANCH   8  28
ATOM     28  O   UNL     1      34.760 -14.629 -21.440  0.00  0.00    -0.429 OA
BRANCH  28  29
ATOM     29  C   UNL     1      33.698 -13.821 -21.087  0.00  0.00    +0.149 C 
ATOM     30  C   UNL     1      33.338 -12.749 -21.903  0.00  0.00    +0.052 C 
ATOM     31  C   UNL     1      32.985 -14.077 -19.916  0.00  0.00    +0.038 C 
ATOM     32  C   UNL     1      32.264 -11.933 -21.548  0.00  0.00    +0.054 C 
ATOM     33  C   UNL     1      31.551 -12.189 -20.377  0.00  0.00    +0.015 C 
ATOM     34  C   UNL     1      31.910 -13.262 -19.562  0.00  0.00    +0.004 C 
BRANCH  32  36
ATOM     35  O   UNL     1      32.273  -8.981 -20.998  0.00  0.00    -0.270 OA
ATOM     36  N   UNL     1      31.903 -10.860 -22.365  0.00  0.00    -0.280 N 
ATOM     37  C   UNL     1      31.927  -9.493 -22.056  0.00  0.00    +0.250 C 
ATOM     38  H   UNL     1      31.594 -11.093 -23.270  0.00  0.00    +0.155 HD
BRANCH  37  39
ATOM     39  C   UNL     1      31.463  -8.661 -23.204  0.00  0.00    +0.058 C 
ATOM     40  C   UNL     1      30.931  -7.454 -22.996  0.00  0.00    +0.005 C 
ENDBRANCH  37  39
ENDBRANCH  32  36
ENDBRANCH  28  29
ENDBRANCH   8  28
TORSDOF 6
ENDMDL
MODEL 6
REMARK VINA RESULT:      -9.6      4.708     10.424
REMARK  Name = 72734520
REMARK  6 active torsions:
REMARK  status: ('A' for Active; 'I' for Inactive)
REMARK    1  A    between atoms: N_1  and  C_19
REMARK    2  A    between atoms: C_8  and  O_28
REMARK    3  A    between atoms: C_14  and  N_20
REMARK    4  A    between atoms: O_28  and  C_29
REMARK    5  A    between atoms: C_32  and  N_36
REMARK    6  A    between atoms: C_37  and  C_39
REMARK                            x       y       z     vdW  Elec       q    Type
REMARK                         _______ _______ _______ _____ _____    ______ ____
ROOT
ATOM      1  N   UNL     1      37.727 -22.376 -15.384  0.00  0.00    -0.238 N 
ATOM      2  N   UNL     1      37.820 -23.434 -13.306  0.00  0.00    -0.316 NA
ATOM      3  N   UNL     1      35.692 -22.902 -14.363  0.00  0.00    -0.294 NA
ATOM      4  N   UNL     1      37.563 -24.521 -11.169  0.00  0.00    -0.289 N 
ATOM      5  C   UNL     1      37.041 -22.937 -14.289  0.00  0.00    +0.207 C 
ATOM      6  C   UNL     1      35.686 -23.978 -12.247  0.00  0.00    +0.181 C 
ATOM      7  C   UNL     1      37.073 -23.942 -12.310  0.00  0.00    +0.188 C 
ATOM      8  C   UNL     1      34.998 -23.429 -13.329  0.00  0.00    +0.281 C 
ATOM      9  C   UNL     1      35.343 -24.602 -11.021  0.00  0.00    +0.008 C 
ATOM     10  C   UNL     1      36.519 -24.926 -10.378  0.00  0.00    +0.060 C 
ATOM     11  H   UNL     1      38.707 -22.416 -15.301  0.00  0.00    +0.166 HD
ATOM     12  H   UNL     1      38.516 -24.630 -10.951  0.00  0.00    +0.154 HD
ENDROOT
BRANCH   1  19
ATOM     13  F   UNL     1      35.206 -22.553 -19.457  0.00  0.00    -0.203 F 
ATOM     14  C   UNL     1      36.409 -20.571 -18.942  0.00  0.00    +0.076 C 
ATOM     15  C   UNL     1      36.009 -21.870 -18.629  0.00  0.00    +0.155 C 
ATOM     16  C   UNL     1      37.248 -19.872 -18.073  0.00  0.00    +0.018 C 
ATOM     17  C   UNL     1      36.447 -22.469 -17.447  0.00  0.00    +0.046 C 
ATOM     18  C   UNL     1      37.685 -20.471 -16.892  0.00  0.00    +0.017 C 
ATOM     19  C   UNL     1      37.284 -21.769 -16.579  0.00  0.00    +0.061 C 
BRANCH  14  20
ATOM     20  N   UNL     1      35.973 -19.968 -20.126  0.00  0.00    -0.310 N 
ATOM     21  N   UNL     1      34.972 -18.554 -22.397  0.00  0.00    +0.388 N 
ATOM     22  C   UNL     1      34.528 -19.911 -20.380  0.00  0.00    +0.068 C 
ATOM     23  C   UNL     1      36.766 -18.891 -20.729  0.00  0.00    +0.068 C 
ATOM     24  C   UNL     1      34.252 -19.721 -21.873  0.00  0.00    -0.056 C 
ATOM     25  C   UNL     1      36.417 -18.733 -22.211  0.00  0.00    -0.056 C 
ATOM     26  C   UNL     1      34.658 -18.349 -23.811  0.00  0.00    -0.101 C 
ATOM     27  H   UNL     1      34.675 -17.725 -21.882  0.00  0.00    -0.080 HD
ENDBRANCH  14  20
ENDBRANCH   1  19
BRANCH   8  28
ATOM     28  O   UNL     1      33.627 -23.403 -13.390  0.00  0.00    -0.429 OA
BRANCH  28  29
ATOM     29  C   UNL     1      33.051 -23.317 -14.641  0.00  0.00    +0.149 C 
ATOM     30  C   UNL     1      31.719 -22.921 -14.768  0.00  0.00    +0.052 C 
ATOM     31  C   UNL     1      33.799 -23.623 -15.777  0.00  0.00    +0.038 C 
ATOM     32  C   UNL     1      31.136 -22.832 -16.032  0.00  0.00    +0.054 C 
ATOM     33  C   UNL     1      31.885 -23.138 -17.169  0.00  0.00    +0.015 C 
ATOM     34  C   UNL     1      33.216 -23.533 -17.041  0.00  0.00    +0.004 C 
BRANCH  32  36
ATOM     35  O   UNL     1      28.616 -24.463 -16.056  0.00  0.00    -0.270 OA
ATOM     36  N   UNL     1      29.804 -22.435 -16.160  0.00  0.00    -0.280 N 
ATOM     37  C   UNL     1      28.659 -23.244 -16.164  0.00  0.00    +0.250 C 
ATOM     38  H   UNL     1      29.650 -21.468 -16.258  0.00  0.00    +0.155 HD
BRANCH  37  39
ATOM     39  C   UNL     1      27.416 -22.436 -16.323  0.00  0.00    +0.058 C 
ATOM     40  C   UNL     1      26.601 -22.231 -15.284  0.00  0.00    +0.005 C 
ENDBRANCH  37  39
ENDBRANCH  32  36
ENDBRANCH  28  29
ENDBRANCH   8  28
TORSDOF 6
ENDMDL
MODEL 7
REMARK VINA RESULT:      -9.5      7.279     12.466
REMARK  Name = 72734520
REMARK  6 active torsions:
REMARK  status: ('A' for Active; 'I' for Inactive)
REMARK    1  A    between atoms: N_1  and  C_19
REMARK    2  A    between atoms: C_8  and  O_28
REMARK    3  A    between atoms: C_14  and  N_20
REMARK    4  A    between atoms: O_28  and  C_29
REMARK    5  A    between atoms: C_32  and  N_36
REMARK    6  A    between atoms: C_37  and  C_39
REMARK                            x       y       z     vdW  Elec       q    Type
REMARK                         _______ _______ _______ _____ _____    ______ ____
ROOT
ATOM      1  N   UNL     1      31.918  -7.982 -21.312  0.00  0.00    -0.238 N 
ATOM      2  N   UNL     1      31.282  -5.741 -21.176  0.00  0.00    -0.316 NA
ATOM      3  N   UNL     1      31.687  -6.815 -23.323  0.00  0.00    -0.294 NA
ATOM      4  N   UNL     1      30.644  -3.425 -21.389  0.00  0.00    -0.289 N 
ATOM      5  C   UNL     1      31.611  -6.777 -21.974  0.00  0.00    +0.207 C 
ATOM      6  C   UNL     1      31.045  -4.530 -23.285  0.00  0.00    +0.181 C 
ATOM      7  C   UNL     1      31.009  -4.641 -21.901  0.00  0.00    +0.188 C 
ATOM      8  C   UNL     1      31.400  -5.677 -23.995  0.00  0.00    +0.281 C 
ATOM      9  C   UNL     1      30.686  -3.195 -23.602  0.00  0.00    +0.008 C 
ATOM     10  C   UNL     1      30.445  -2.538 -22.415  0.00  0.00    +0.060 C 
ATOM     11  H   UNL     1      31.854  -7.922 -20.331  0.00  0.00    +0.166 HD
ATOM     12  H   UNL     1      30.539  -3.219 -20.432  0.00  0.00    +0.154 HD
ENDROOT
BRANCH   1  19
ATOM     13  F   UNL     1      31.618 -12.760 -21.079  0.00  0.00    -0.203 F 
ATOM     14  C   UNL     1      33.051 -11.781 -22.701  0.00  0.00    +0.076 C 
ATOM     15  C   UNL     1      32.139 -11.666 -21.652  0.00  0.00    +0.155 C 
ATOM     16  C   UNL     1      33.587 -10.634 -23.288  0.00  0.00    +0.018 C 
ATOM     17  C   UNL     1      31.762 -10.404 -21.191  0.00  0.00    +0.046 C 
ATOM     18  C   UNL     1      33.211  -9.373 -22.827  0.00  0.00    +0.017 C 
ATOM     19  C   UNL     1      32.298  -9.258 -21.779  0.00  0.00    +0.061 C 
BRANCH  14  20
ATOM     20  N   UNL     1      33.431 -13.045 -23.165  0.00  0.00    -0.310 N 
ATOM     21  N   UNL     1      34.397 -15.506 -24.246  0.00  0.00    +0.388 N 
ATOM     22  C   UNL     1      33.299 -13.321 -24.601  0.00  0.00    +0.068 C 
ATOM     23  C   UNL     1      34.489 -13.787 -22.472  0.00  0.00    +0.068 C 
ATOM     24  C   UNL     1      33.246 -14.829 -24.856  0.00  0.00    -0.056 C 
ATOM     25  C   UNL     1      34.399 -15.280 -22.796  0.00  0.00    -0.056 C 
ATOM     26  C   UNL     1      34.365 -16.939 -24.542  0.00  0.00    -0.101 C 
ATOM     27  H   UNL     1      35.254 -15.119 -24.640  0.00  0.00    -0.080 HD
ENDBRANCH  14  20
ENDBRANCH   1  19
BRANCH   8  28
ATOM     28  O   UNL     1      31.472  -5.699 -25.366  0.00  0.00    -0.429 OA
BRANCH  28  29
ATOM     29  C   UNL     1      32.317  -4.790 -25.970  0.00  0.00    +0.149 C 
ATOM     30  C   UNL     1      33.699  -4.925 -25.829  0.00  0.00    +0.052 C 
ATOM     31  C   UNL     1      31.791  -3.739 -26.720  0.00  0.00    +0.038 C 
ATOM     32  C   UNL     1      34.554  -4.008 -26.441  0.00  0.00    +0.054 C 
ATOM     33  C   UNL     1      34.028  -2.957 -27.191  0.00  0.00    +0.015 C 
ATOM     34  C   UNL     1      32.647  -2.823 -27.332  0.00  0.00    +0.004 C 
BRANCH  32  36
ATOM     35  O   UNL     1      36.697  -4.319 -28.520  0.00  0.00    -0.270 OA
ATOM     36  N   UNL     1      35.936  -4.143 -26.301  0.00  0.00    -0.280 N 
ATOM     37  C   UNL     1      36.896  -4.285 -27.312  0.00  0.00    +0.250 C 
ATOM     38  H   UNL     1      36.279  -4.136 -25.378  0.00  0.00    +0.155 HD
BRANCH  37  39
ATOM     39  C   UNL     1      38.273  -4.401 -26.751  0.00  0.00    +0.058 C 
ATOM     40  C   UNL     1      39.104  -3.354 -26.768  0.00  0.00    +0.005 C 
ENDBRANCH  37  39
ENDBRANCH  32  36
ENDBRANCH  28  29
ENDBRANCH   8  28
TORSDOF 6
ENDMDL
