MODEL 1
REMARK VINA RESULT:     -10.8      0.000      0.000
REMARK  Name = 16113377
REMARK  5 active torsions:
REMARK  status: ('A' for Active; 'I' for Inactive)
REMARK    1  A    between atoms: N_2  and  C_24
REMARK    2  A    between atoms: C_5  and  C_12
REMARK    3  A    between atoms: N_10  and  C_16
REMARK    4  A    between atoms: C_19  and  C_31
REMARK    5  A    between atoms: C_27  and  N_32
REMARK                            x       y       z     vdW  Elec       q    Type
REMARK                         _______ _______ _______ _____ _____    ______ ____
ROOT
ATOM      1  F   UNL     1      32.696  -5.193 -20.875  0.00  0.00    -0.200 F 
ATOM      2  N   UNL     1      32.057 -10.586 -20.696  0.00  0.00    -0.247 N 
ATOM      3  N   UNL     1      32.866  -8.695 -21.824  0.00  0.00    -0.334 NA
ATOM      4  N   UNL     1      31.726  -8.483 -19.711  0.00  0.00    -0.167 NA
ATOM      5  C   UNL     1      33.009  -7.353 -21.839  0.00  0.00    +0.188 C 
ATOM      6  C   UNL     1      32.225  -9.189 -20.746  0.00  0.00    +0.149 C 
ATOM      7  C   UNL     1      32.545  -6.521 -20.842  0.00  0.00    +0.192 C 
ATOM      8  C   UNL     1      31.905  -7.148 -19.791  0.00  0.00    +0.144 C 
ATOM      9  H   UNL     1      31.583 -10.900 -19.892  0.00  0.00    +0.165 HD
ENDROOT
BRANCH   5  12
ATOM     10  N   UNL     1      33.078  -6.383 -24.127  0.00  0.00    -0.274 N 
ATOM     11  N   UNL     1      35.256  -6.140 -24.488  0.00  0.00    -0.232 NA
ATOM     12  C   UNL     1      33.695  -6.836 -22.993  0.00  0.00    +0.105 C 
ATOM     13  C   UNL     1      34.053  -5.976 -24.993  0.00  0.00    +0.113 C 
ATOM     14  C   UNL     1      35.040  -6.676 -23.242  0.00  0.00    +0.117 C 
ATOM     15  C   UNL     1      33.742  -5.423 -26.327  0.00  0.00    +0.069 C 
BRANCH  10  16
ATOM     16  C   UNL     1      31.652  -6.339 -24.368  0.00  0.00    +0.078 C 
ATOM     17  C   UNL     1      30.984  -7.688 -24.093  0.00  0.00    +0.022 C 
ATOM     18  C   UNL     1      30.974  -5.206 -23.595  0.00  0.00    +0.022 C 
ENDBRANCH  10  16
ENDBRANCH   5  12
BRANCH   2  24
ATOM     19  C   UNL     1      33.182 -13.678 -23.299  0.00  0.00    +0.054 C 
ATOM     20  C   UNL     1      33.261 -12.355 -23.722  0.00  0.00    +0.006 C 
ATOM     21  C   UNL     1      32.731 -13.982 -22.017  0.00  0.00    +0.006 C 
ATOM     22  C   UNL     1      32.887 -11.327 -22.856  0.00  0.00    +0.015 C 
ATOM     23  C   UNL     1      32.357 -12.954 -21.152  0.00  0.00    +0.015 C 
ATOM     24  C   UNL     1      32.435 -11.626 -21.572  0.00  0.00    +0.058 C 
BRANCH  19  31
ATOM     25  O   UNL     1      33.331 -14.614 -25.406  0.00  0.00    -0.270 OA
ATOM     26  N   UNL     1      34.210 -15.865 -23.659  0.00  0.00    -0.278 N 
ATOM     27  C   UNL     1      35.599 -17.215 -22.314  0.00  0.00    -0.036 C 
ATOM     28  C   UNL     1      35.076 -18.051 -23.483  0.00  0.00    +0.002 C 
ATOM     29  C   UNL     1      34.596 -16.062 -22.261  0.00  0.00    +0.073 C 
ATOM     30  C   UNL     1      34.651 -16.984 -24.483  0.00  0.00    +0.092 C 
ATOM     31  C   UNL     1      33.578 -14.763 -24.211  0.00  0.00    +0.249 C 
BRANCH  27  32
ATOM     32  N   UNL     1      35.688 -17.964 -21.074  0.00  0.00    +0.387 N 
ATOM     33  C   UNL     1      34.599 -18.942 -20.975  0.00  0.00    -0.101 C 
ATOM     34  C   UNL     1      36.982 -18.642 -20.964  0.00  0.00    -0.101 C 
ATOM     35  H   UNL     1      35.599 -17.301 -20.304  0.00  0.00    -0.080 HD
ENDBRANCH  27  32
ENDBRANCH  19  31
ENDBRANCH   2  24
TORSDOF 5
ENDMDL
MODEL 2
REMARK VINA RESULT:      -9.8      1.209      2.058
REMARK  Name = 16113377
REMARK  5 active torsions:
REMARK  status: ('A' for Active; 'I' for Inactive)
REMARK    1  A    between atoms: N_2  and  C_24
REMARK    2  A    between atoms: C_5  and  C_12
REMARK    3  A    between atoms: N_10  and  C_16
REMARK    4  A    between atoms: C_19  and  C_31
REMARK    5  A    between atoms: C_27  and  N_32
REMARK                            x       y       z     vdW  Elec       q    Type
REMARK                         _______ _______ _______ _____ _____    ______ ____
ROOT
ATOM      1  F   UNL     1      31.128  -6.105 -20.445  0.00  0.00    -0.200 F 
ATOM      2  N   UNL     1      32.201 -11.413 -19.994  0.00  0.00    -0.247 N 
ATOM      3  N   UNL     1      32.085  -9.493 -21.338  0.00  0.00    -0.334 NA
ATOM      4  N   UNL     1      31.525  -9.401 -18.995  0.00  0.00    -0.167 NA
ATOM      5  C   UNL     1      31.811  -8.175 -21.417  0.00  0.00    +0.188 C 
ATOM      6  C   UNL     1      31.924 -10.038 -20.114  0.00  0.00    +0.149 C 
ATOM      7  C   UNL     1      31.395  -7.412 -20.346  0.00  0.00    +0.192 C 
ATOM      8  C   UNL     1      31.269  -8.085 -19.147  0.00  0.00    +0.144 C 
ATOM      9  H   UNL     1      32.069 -11.766 -19.084  0.00  0.00    +0.165 HD
ENDROOT
BRANCH   5  12
ATOM     10  N   UNL     1      33.187  -7.506 -23.377  0.00  0.00    -0.274 N 
ATOM     11  N   UNL     1      31.681  -6.623 -24.751  0.00  0.00    -0.232 NA
ATOM     12  C   UNL     1      31.987  -7.604 -22.726  0.00  0.00    +0.105 C 
ATOM     13  C   UNL     1      32.953  -6.913 -24.585  0.00  0.00    +0.113 C 
ATOM     14  C   UNL     1      31.074  -7.051 -23.596  0.00  0.00    +0.117 C 
ATOM     15  C   UNL     1      34.034  -6.649 -25.557  0.00  0.00    +0.069 C 
BRANCH  10  16
ATOM     16  C   UNL     1      34.470  -7.950 -22.880  0.00  0.00    +0.078 C 
ATOM     17  C   UNL     1      34.920  -9.253 -23.544  0.00  0.00    +0.022 C 
ATOM     18  C   UNL     1      35.538  -6.861 -22.995  0.00  0.00    +0.022 C 
ENDBRANCH  10  16
ENDBRANCH   5  12
BRANCH   2  24
ATOM     19  C   UNL     1      33.478 -14.308 -22.748  0.00  0.00    +0.054 C 
ATOM     20  C   UNL     1      34.048 -14.261 -21.480  0.00  0.00    +0.006 C 
ATOM     21  C   UNL     1      32.487 -13.399 -23.109  0.00  0.00    +0.006 C 
ATOM     22  C   UNL     1      33.624 -13.298 -20.564  0.00  0.00    +0.015 C 
ATOM     23  C   UNL     1      32.063 -12.437 -22.193  0.00  0.00    +0.015 C 
ATOM     24  C   UNL     1      32.631 -12.386 -20.920  0.00  0.00    +0.058 C 
BRANCH  19  31
ATOM     25  O   UNL     1      33.742 -15.090 -24.906  0.00  0.00    -0.270 OA
ATOM     26  N   UNL     1      34.529 -16.465 -23.209  0.00  0.00    -0.278 N 
ATOM     27  C   UNL     1      35.847 -17.910 -21.892  0.00  0.00    -0.036 C 
ATOM     28  C   UNL     1      35.390 -18.659 -23.144  0.00  0.00    +0.002 C 
ATOM     29  C   UNL     1      34.840 -16.763 -21.811  0.00  0.00    +0.073 C 
ATOM     30  C   UNL     1      35.016 -17.522 -24.086  0.00  0.00    +0.092 C 
ATOM     31  C   UNL     1      33.925 -15.325 -23.714  0.00  0.00    +0.249 C 
BRANCH  27  32
ATOM     32  N   UNL     1      35.871 -18.746 -20.706  0.00  0.00    +0.387 N 
ATOM     33  C   UNL     1      34.868 -19.812 -20.798  0.00  0.00    -0.101 C 
ATOM     34  C   UNL     1      37.202 -19.327 -20.502  0.00  0.00    -0.101 C 
ATOM     35  H   UNL     1      35.646 -18.156 -19.905  0.00  0.00    -0.080 HD
ENDBRANCH  27  32
ENDBRANCH  19  31
ENDBRANCH   2  24
TORSDOF 5
ENDMDL
MODEL 3
REMARK VINA RESULT:      -9.4      8.946     15.167
REMARK  Name = 16113377
REMARK  5 active torsions:
REMARK  status: ('A' for Active; 'I' for Inactive)
REMARK    1  A    between atoms: N_2  and  C_24
REMARK    2  A    between atoms: C_5  and  C_12
REMARK    3  A    between atoms: N_10  and  C_16
REMARK    4  A    between atoms: C_19  and  C_31
REMARK    5  A    between atoms: C_27  and  N_32
REMARK                            x       y       z     vdW  Elec       q    Type
REMARK                         _______ _______ _______ _____ _____    ______ ____
ROOT
ATOM      1  F   UNL     1      31.580 -25.524 -12.367  0.00  0.00    -0.200 F 
ATOM      2  N   UNL     1      32.152 -23.185 -17.238  0.00  0.00    -0.247 N 
ATOM      3  N   UNL     1      33.048 -23.671 -15.125  0.00  0.00    -0.334 NA
ATOM      4  N   UNL     1      30.843 -24.428 -15.740  0.00  0.00    -0.167 NA
ATOM      5  C   UNL     1      32.875 -24.262 -13.924  0.00  0.00    +0.188 C 
ATOM      6  C   UNL     1      32.008 -23.790 -15.975  0.00  0.00    +0.149 C 
ATOM      7  C   UNL     1      31.732 -24.945 -13.562  0.00  0.00    +0.192 C 
ATOM      8  C   UNL     1      30.739 -24.996 -14.520  0.00  0.00    +0.144 C 
ATOM      9  H   UNL     1      31.368 -23.297 -17.823  0.00  0.00    +0.165 HD
ENDROOT
BRANCH   5  12
ATOM     10  N   UNL     1      35.297 -24.348 -13.370  0.00  0.00    -0.274 N 
ATOM     11  N   UNL     1      35.326 -23.781 -11.223  0.00  0.00    -0.232 NA
ATOM     12  C   UNL     1      33.991 -24.131 -13.025  0.00  0.00    +0.105 C 
ATOM     13  C   UNL     1      36.059 -24.126 -12.258  0.00  0.00    +0.113 C 
ATOM     14  C   UNL     1      34.036 -23.782 -11.694  0.00  0.00    +0.117 C 
ATOM     15  C   UNL     1      37.530 -24.269 -12.269  0.00  0.00    +0.069 C 
BRANCH  10  16
ATOM     16  C   UNL     1      35.786 -24.740 -14.674  0.00  0.00    +0.078 C 
ATOM     17  C   UNL     1      36.913 -23.826 -15.160  0.00  0.00    +0.022 C 
ATOM     18  C   UNL     1      36.197 -26.213 -14.714  0.00  0.00    +0.022 C 
ENDBRANCH  10  16
ENDBRANCH   5  12
BRANCH   2  24
ATOM     19  C   UNL     1      35.267 -20.996 -18.999  0.00  0.00    +0.054 C 
ATOM     20  C   UNL     1      33.959 -20.806 -19.431  0.00  0.00    +0.006 C 
ATOM     21  C   UNL     1      35.549 -21.910 -17.987  0.00  0.00    +0.006 C 
ATOM     22  C   UNL     1      32.922 -21.534 -18.845  0.00  0.00    +0.015 C 
ATOM     23  C   UNL     1      34.514 -22.637 -17.402  0.00  0.00    +0.015 C 
ATOM     24  C   UNL     1      33.200 -22.450 -17.831  0.00  0.00    +0.058 C 
BRANCH  19  31
ATOM     25  O   UNL     1      37.455 -20.253 -19.058  0.00  0.00    -0.270 OA
ATOM     26  N   UNL     1      36.078 -19.541 -20.787  0.00  0.00    -0.278 N 
ATOM     27  C   UNL     1      35.208 -18.982 -22.905  0.00  0.00    -0.036 C 
ATOM     28  C   UNL     1      36.335 -18.008 -22.559  0.00  0.00    +0.002 C 
ATOM     29  C   UNL     1      34.821 -19.536 -21.534  0.00  0.00    +0.073 C 
ATOM     30  C   UNL     1      37.098 -18.762 -21.479  0.00  0.00    +0.092 C 
ATOM     31  C   UNL     1      36.360 -20.227 -19.616  0.00  0.00    +0.249 C 
BRANCH  27  32
ATOM     32  N   UNL     1      34.106 -18.351 -23.609  0.00  0.00    +0.387 N 
ATOM     33  C   UNL     1      34.524 -17.072 -24.193  0.00  0.00    -0.101 C 
ATOM     34  C   UNL     1      33.581 -19.232 -24.656  0.00  0.00    -0.101 C 
ATOM     35  H   UNL     1      33.366 -18.172 -22.930  0.00  0.00    -0.080 HD
ENDBRANCH  27  32
ENDBRANCH  19  31
ENDBRANCH   2  24
TORSDOF 5
ENDMDL
MODEL 4
REMARK VINA RESULT:      -9.0      7.276     14.675
REMARK  Name = 16113377
REMARK  5 active torsions:
REMARK  status: ('A' for Active; 'I' for Inactive)
REMARK    1  A    between atoms: N_2  and  C_24
REMARK    2  A    between atoms: C_5  and  C_12
REMARK    3  A    between atoms: N_10  and  C_16
REMARK    4  A    between atoms: C_19  and  C_31
REMARK    5  A    between atoms: C_27  and  N_32
REMARK                            x       y       z     vdW  Elec       q    Type
REMARK                         _______ _______ _______ _____ _____    ______ ____
ROOT
ATOM      1  F   UNL     1      34.699 -24.886 -13.166  0.00  0.00    -0.200 F 
ATOM      2  N   UNL     1      32.654 -22.344 -17.512  0.00  0.00    -0.247 N 
ATOM      3  N   UNL     1      34.532 -23.021 -16.278  0.00  0.00    -0.334 NA
ATOM      4  N   UNL     1      32.301 -23.548 -15.529  0.00  0.00    -0.167 NA
ATOM      5  C   UNL     1      35.008 -23.659 -15.189  0.00  0.00    +0.188 C 
ATOM      6  C   UNL     1      33.187 -23.002 -16.387  0.00  0.00    +0.149 C 
ATOM      7  C   UNL     1      34.206 -24.258 -14.239  0.00  0.00    +0.192 C 
ATOM      8  C   UNL     1      32.847 -24.170 -14.464  0.00  0.00    +0.144 C 
ATOM      9  H   UNL     1      31.670 -22.356 -17.548  0.00  0.00    +0.165 HD
ENDROOT
BRANCH   5  12
ATOM     10  N   UNL     1      37.181 -24.752 -14.675  0.00  0.00    -0.274 N 
ATOM     11  N   UNL     1      38.649 -23.142 -15.102  0.00  0.00    -0.232 NA
ATOM     12  C   UNL     1      36.443 -23.674 -15.083  0.00  0.00    +0.105 C 
ATOM     13  C   UNL     1      38.497 -24.385 -14.704  0.00  0.00    +0.113 C 
ATOM     14  C   UNL     1      37.373 -22.693 -15.340  0.00  0.00    +0.117 C 
ATOM     15  C   UNL     1      39.582 -25.312 -14.322  0.00  0.00    +0.069 C 
BRANCH  10  16
ATOM     16  C   UNL     1      36.666 -26.047 -14.286  0.00  0.00    +0.078 C 
ATOM     17  C   UNL     1      36.826 -27.084 -15.399  0.00  0.00    +0.022 C 
ATOM     18  C   UNL     1      37.273 -26.534 -12.969  0.00  0.00    +0.022 C 
ENDBRANCH  10  16
ENDBRANCH   5  12
BRANCH   2  24
ATOM     19  C   UNL     1      34.433 -20.343 -20.741  0.00  0.00    +0.054 C 
ATOM     20  C   UNL     1      33.070 -20.198 -20.504  0.00  0.00    +0.006 C 
ATOM     21  C   UNL     1      35.210 -21.150 -19.914  0.00  0.00    +0.006 C 
ATOM     22  C   UNL     1      32.478 -20.864 -19.430  0.00  0.00    +0.015 C 
ATOM     23  C   UNL     1      34.618 -21.815 -18.840  0.00  0.00    +0.015 C 
ATOM     24  C   UNL     1      33.252 -21.672 -18.598  0.00  0.00    +0.058 C 
BRANCH  19  31
ATOM     25  O   UNL     1      35.531 -20.328 -22.774  0.00  0.00    -0.270 OA
ATOM     26  N   UNL     1      35.057 -18.254 -21.845  0.00  0.00    -0.278 N 
ATOM     27  C   UNL     1      34.386 -16.017 -21.520  0.00  0.00    -0.036 C 
ATOM     28  C   UNL     1      35.632 -16.038 -22.405  0.00  0.00    +0.002 C 
ATOM     29  C   UNL     1      34.445 -17.385 -20.839  0.00  0.00    +0.073 C 
ATOM     30  C   UNL     1      35.640 -17.469 -22.926  0.00  0.00    +0.092 C 
ATOM     31  C   UNL     1      35.058 -19.640 -21.873  0.00  0.00    +0.249 C 
BRANCH  27  32
ATOM     32  N   UNL     1      34.368 -14.905 -20.587  0.00  0.00    +0.387 N 
ATOM     33  C   UNL     1      34.618 -13.638 -21.281  0.00  0.00    -0.101 C 
ATOM     34  C   UNL     1      33.090 -14.842 -19.872  0.00  0.00    -0.101 C 
ATOM     35  H   UNL     1      35.115 -15.057 -19.909  0.00  0.00    -0.080 HD
ENDBRANCH  27  32
ENDBRANCH  19  31
ENDBRANCH   2  24
TORSDOF 5
ENDMDL
MODEL 5
REMARK VINA RESULT:      -8.2      3.679      6.948
REMARK  Name = 16113377
REMARK  5 active torsions:
REMARK  status: ('A' for Active; 'I' for Inactive)
REMARK    1  A    between atoms: N_2  and  C_24
REMARK    2  A    between atoms: C_5  and  C_12
REMARK    3  A    between atoms: N_10  and  C_16
REMARK    4  A    between atoms: C_19  and  C_31
REMARK    5  A    between atoms: C_27  and  N_32
REMARK                            x       y       z     vdW  Elec       q    Type
REMARK                         _______ _______ _______ _____ _____    ______ ____
ROOT
ATOM      1  F   UNL     1      33.721  -2.686 -29.502  0.00  0.00    -0.200 F 
ATOM      2  N   UNL     1      34.936  -6.326 -25.655  0.00  0.00    -0.247 N 
ATOM      3  N   UNL     1      33.450  -4.723 -26.507  0.00  0.00    -0.334 NA
ATOM      4  N   UNL     1      35.513  -5.230 -27.647  0.00  0.00    -0.167 NA
ATOM      5  C   UNL     1      33.177  -3.826 -27.478  0.00  0.00    +0.188 C 
ATOM      6  C   UNL     1      34.618  -5.382 -26.650  0.00  0.00    +0.149 C 
ATOM      7  C   UNL     1      34.010  -3.579 -28.550  0.00  0.00    +0.192 C 
ATOM      8  C   UNL     1      35.176  -4.318 -28.583  0.00  0.00    +0.144 C 
ATOM      9  H   UNL     1      35.797  -6.781 -25.801  0.00  0.00    +0.165 HD
ENDROOT
BRANCH   5  12
ATOM     10  N   UNL     1      31.321  -2.893 -26.114  0.00  0.00    -0.274 N 
ATOM     11  N   UNL     1      29.992  -1.994 -27.650  0.00  0.00    -0.232 NA
ATOM     12  C   UNL     1      31.929  -3.129 -27.317  0.00  0.00    +0.105 C 
ATOM     13  C   UNL     1      30.164  -2.209 -26.365  0.00  0.00    +0.113 C 
ATOM     14  C   UNL     1      31.088  -2.564 -28.249  0.00  0.00    +0.117 C 
ATOM     15  C   UNL     1      29.249  -1.786 -25.285  0.00  0.00    +0.069 C 
BRANCH  10  16
ATOM     16  C   UNL     1      31.810  -3.289 -24.812  0.00  0.00    +0.078 C 
ATOM     17  C   UNL     1      32.196  -2.083 -23.955  0.00  0.00    +0.022 C 
ATOM     18  C   UNL     1      30.827  -4.207 -24.084  0.00  0.00    +0.022 C 
ENDBRANCH  10  16
ENDBRANCH   5  12
BRANCH   2  24
ATOM     19  C   UNL     1      32.935  -7.582 -22.188  0.00  0.00    +0.054 C 
ATOM     20  C   UNL     1      34.266  -7.182 -22.112  0.00  0.00    +0.006 C 
ATOM     21  C   UNL     1      32.264  -7.568 -23.408  0.00  0.00    +0.006 C 
ATOM     22  C   UNL     1      34.931  -6.765 -23.265  0.00  0.00    +0.015 C 
ATOM     23  C   UNL     1      32.929  -7.151 -24.560  0.00  0.00    +0.015 C 
ATOM     24  C   UNL     1      34.263  -6.749 -24.489  0.00  0.00    +0.058 C 
BRANCH  19  31
ATOM     25  O   UNL     1      31.927  -7.157 -20.153  0.00  0.00    -0.270 OA
ATOM     26  N   UNL     1      31.958  -9.373 -20.844  0.00  0.00    -0.278 N 
ATOM     27  C   UNL     1      31.359 -11.598 -21.346  0.00  0.00    -0.036 C 
ATOM     28  C   UNL     1      31.359 -11.414 -19.828  0.00  0.00    +0.002 C 
ATOM     29  C   UNL     1      32.229 -10.432 -21.817  0.00  0.00    +0.073 C 
ATOM     30  C   UNL     1      31.255  -9.902 -19.682  0.00  0.00    +0.092 C 
ATOM     31  C   UNL     1      32.232  -8.021 -20.971  0.00  0.00    +0.249 C 
BRANCH  27  32
ATOM     32  N   UNL     1      31.855 -12.897 -21.763  0.00  0.00    +0.387 N 
ATOM     33  C   UNL     1      33.001 -12.752 -22.667  0.00  0.00    -0.101 C 
ATOM     34  C   UNL     1      32.231 -13.710 -20.603  0.00  0.00    -0.101 C 
ATOM     35  H   UNL     1      31.104 -13.370 -22.265  0.00  0.00    -0.080 HD
ENDBRANCH  27  32
ENDBRANCH  19  31
ENDBRANCH   2  24
TORSDOF 5
ENDMDL
MODEL 6
REMARK VINA RESULT:      -8.1      4.013      8.636
REMARK  Name = 16113377
REMARK  5 active torsions:
REMARK  status: ('A' for Active; 'I' for Inactive)
REMARK    1  A    between atoms: N_2  and  C_24
REMARK    2  A    between atoms: C_5  and  C_12
REMARK    3  A    between atoms: N_10  and  C_16
REMARK    4  A    between atoms: C_19  and  C_31
REMARK    5  A    between atoms: C_27  and  N_32
REMARK                            x       y       z     vdW  Elec       q    Type
REMARK                         _______ _______ _______ _____ _____    ______ ____
ROOT
ATOM      1  F   UNL     1      32.314 -12.241 -18.852  0.00  0.00    -0.200 F 
ATOM      2  N   UNL     1      31.552  -7.007 -20.098  0.00  0.00    -0.247 N 
ATOM      3  N   UNL     1      31.903  -9.213 -20.816  0.00  0.00    -0.334 NA
ATOM      4  N   UNL     1      31.767  -8.681 -18.468  0.00  0.00    -0.167 NA
ATOM      5  C   UNL     1      32.090 -10.505 -20.474  0.00  0.00    +0.188 C 
ATOM      6  C   UNL     1      31.749  -8.364 -19.779  0.00  0.00    +0.149 C 
ATOM      7  C   UNL     1      32.127 -10.956 -19.170  0.00  0.00    +0.192 C 
ATOM      8  C   UNL     1      31.957  -9.989 -18.199  0.00  0.00    +0.144 C 
ATOM      9  H   UNL     1      31.446  -6.426 -19.310  0.00  0.00    +0.165 HD
ENDROOT
BRANCH   5  12
ATOM     10  N   UNL     1      32.808 -11.058 -22.788  0.00  0.00    -0.274 N 
ATOM     11  N   UNL     1      32.253 -13.201 -22.972  0.00  0.00    -0.232 NA
ATOM     12  C   UNL     1      32.251 -11.402 -21.587  0.00  0.00    +0.105 C 
ATOM     13  C   UNL     1      32.788 -12.168 -23.585  0.00  0.00    +0.113 C 
ATOM     14  C   UNL     1      31.917 -12.731 -21.726  0.00  0.00    +0.117 C 
ATOM     15  C   UNL     1      33.316 -12.158 -24.965  0.00  0.00    +0.069 C 
BRANCH  10  16
ATOM     16  C   UNL     1      33.327  -9.758 -23.152  0.00  0.00    +0.078 C 
ATOM     17  C   UNL     1      34.807  -9.820 -23.535  0.00  0.00    +0.022 C 
ATOM     18  C   UNL     1      32.490  -9.091 -24.244  0.00  0.00    +0.022 C 
ENDBRANCH  10  16
ENDBRANCH   5  12
BRANCH   2  24
ATOM     19  C   UNL     1      31.324  -4.948 -23.746  0.00  0.00    +0.054 C 
ATOM     20  C   UNL     1      30.629  -6.142 -23.582  0.00  0.00    +0.006 C 
ATOM     21  C   UNL     1      32.095  -4.433 -22.708  0.00  0.00    +0.006 C 
ATOM     22  C   UNL     1      30.705  -6.827 -22.368  0.00  0.00    +0.015 C 
ATOM     23  C   UNL     1      32.171  -5.118 -21.495  0.00  0.00    +0.015 C 
ATOM     24  C   UNL     1      31.476  -6.315 -21.325  0.00  0.00    +0.058 C 
BRANCH  19  31
ATOM     25  O   UNL     1      30.302  -3.448 -25.176  0.00  0.00    -0.270 OA
ATOM     26  N   UNL     1      32.237  -4.464 -25.960  0.00  0.00    -0.278 N 
ATOM     27  C   UNL     1      34.341  -4.877 -26.942  0.00  0.00    -0.036 C 
ATOM     28  C   UNL     1      33.349  -4.486 -28.038  0.00  0.00    +0.002 C 
ATOM     29  C   UNL     1      33.416  -5.317 -25.806  0.00  0.00    +0.073 C 
ATOM     30  C   UNL     1      32.250  -3.786 -27.251  0.00  0.00    +0.092 C 
ATOM     31  C   UNL     1      31.243  -4.225 -25.025  0.00  0.00    +0.249 C 
BRANCH  27  32
ATOM     32  N   UNL     1      35.276  -5.905 -27.360  0.00  0.00    +0.387 N 
ATOM     33  C   UNL     1      34.872  -6.488 -28.644  0.00  0.00    -0.101 C 
ATOM     34  C   UNL     1      36.636  -5.367 -27.459  0.00  0.00    -0.101 C 
ATOM     35  H   UNL     1      35.266  -6.640 -26.653  0.00  0.00    -0.080 HD
ENDBRANCH  27  32
ENDBRANCH  19  31
ENDBRANCH   2  24
TORSDOF 5
ENDMDL
MODEL 7
REMARK VINA RESULT:      -8.1      3.416      9.492
REMARK  Name = 16113377
REMARK  5 active torsions:
REMARK  status: ('A' for Active; 'I' for Inactive)
REMARK    1  A    between atoms: N_2  and  C_24
REMARK    2  A    between atoms: C_5  and  C_12
REMARK    3  A    between atoms: N_10  and  C_16
REMARK    4  A    between atoms: C_19  and  C_31
REMARK    5  A    between atoms: C_27  and  N_32
REMARK                            x       y       z     vdW  Elec       q    Type
REMARK                         _______ _______ _______ _____ _____    ______ ____
ROOT
ATOM      1  F   UNL     1      31.666 -11.619 -18.523  0.00  0.00    -0.200 F 
ATOM      2  N   UNL     1      32.318  -6.901 -21.139  0.00  0.00    -0.247 N 
ATOM      3  N   UNL     1      32.311  -9.247 -21.196  0.00  0.00    -0.334 NA
ATOM      4  N   UNL     1      31.843  -8.056 -19.153  0.00  0.00    -0.167 NA
ATOM      5  C   UNL     1      32.143 -10.401 -20.518  0.00  0.00    +0.188 C 
ATOM      6  C   UNL     1      32.149  -8.125 -20.464  0.00  0.00    +0.149 C 
ATOM      7  C   UNL     1      31.829 -10.464 -19.176  0.00  0.00    +0.192 C 
ATOM      8  C   UNL     1      31.689  -9.248 -18.538  0.00  0.00    +0.144 C 
ATOM      9  H   UNL     1      32.190  -6.111 -20.564  0.00  0.00    +0.165 HD
ENDROOT
BRANCH   5  12
ATOM     10  N   UNL     1      32.860 -11.617 -22.564  0.00  0.00    -0.274 N 
ATOM     11  N   UNL     1      32.351 -13.725 -22.082  0.00  0.00    -0.232 NA
ATOM     12  C   UNL     1      32.318 -11.591 -21.308  0.00  0.00    +0.105 C 
ATOM     13  C   UNL     1      32.859 -12.917 -22.986  0.00  0.00    +0.113 C 
ATOM     14  C   UNL     1      32.012 -12.905 -21.034  0.00  0.00    +0.117 C 
ATOM     15  C   UNL     1      33.378 -13.316 -24.310  0.00  0.00    +0.069 C 
BRANCH  10  16
ATOM     16  C   UNL     1      33.348 -10.479 -23.312  0.00  0.00    +0.078 C 
ATOM     17  C   UNL     1      34.711 -10.756 -23.949  0.00  0.00    +0.022 C 
ATOM     18  C   UNL     1      32.331  -9.992 -24.345  0.00  0.00    +0.022 C 
ENDBRANCH  10  16
ENDBRANCH   5  12
BRANCH   2  24
ATOM     19  C   UNL     1      33.253  -5.956 -25.117  0.00  0.00    +0.054 C 
ATOM     20  C   UNL     1      34.273  -6.089 -24.180  0.00  0.00    +0.006 C 
ATOM     21  C   UNL     1      31.924  -6.133 -24.742  0.00  0.00    +0.006 C 
ATOM     22  C   UNL     1      33.962  -6.403 -22.857  0.00  0.00    +0.015 C 
ATOM     23  C   UNL     1      31.614  -6.447 -23.419  0.00  0.00    +0.015 C 
ATOM     24  C   UNL     1      32.632  -6.582 -22.476  0.00  0.00    +0.058 C 
BRANCH  19  31
ATOM     25  O   UNL     1      34.449  -6.299 -27.064  0.00  0.00    -0.270 OA
ATOM     26  N   UNL     1      32.882  -4.587 -27.107  0.00  0.00    -0.278 N 
ATOM     27  C   UNL     1      31.142  -3.124 -27.734  0.00  0.00    -0.036 C 
ATOM     28  C   UNL     1      32.334  -2.907 -28.667  0.00  0.00    +0.002 C 
ATOM     29  C   UNL     1      31.791  -3.804 -26.527  0.00  0.00    +0.073 C 
ATOM     30  C   UNL     1      33.127  -4.194 -28.489  0.00  0.00    +0.092 C 
ATOM     31  C   UNL     1      33.582  -5.625 -26.513  0.00  0.00    +0.249 C 
BRANCH  27  32
ATOM     32  N   UNL     1      30.447  -1.894 -27.402  0.00  0.00    +0.387 N 
ATOM     33  C   UNL     1      29.190  -1.786 -28.151  0.00  0.00    -0.101 C 
ATOM     34  C   UNL     1      30.180  -1.815 -25.963  0.00  0.00    -0.101 C 
ATOM     35  H   UNL     1      31.050  -1.115 -27.666  0.00  0.00    -0.080 HD
ENDBRANCH  27  32
ENDBRANCH  19  31
ENDBRANCH   2  24
TORSDOF 5
ENDMDL
MODEL 8
REMARK VINA RESULT:      -8.1      2.907      9.771
REMARK  Name = 16113377
REMARK  5 active torsions:
REMARK  status: ('A' for Active; 'I' for Inactive)
REMARK    1  A    between atoms: N_2  and  C_24
REMARK    2  A    between atoms: C_5  and  C_12
REMARK    3  A    between atoms: N_10  and  C_16
REMARK    4  A    between atoms: C_19  and  C_31
REMARK    5  A    between atoms: C_27  and  N_32
REMARK                            x       y       z     vdW  Elec       q    Type
REMARK                         _______ _______ _______ _____ _____    ______ ____
ROOT
ATOM      1  F   UNL     1      31.780 -14.247 -20.341  0.00  0.00    -0.200 F 
ATOM      2  N   UNL     1      32.239  -8.912 -21.261  0.00  0.00    -0.247 N 
ATOM      3  N   UNL     1      32.585 -11.114 -21.992  0.00  0.00    -0.334 NA
ATOM      4  N   UNL     1      31.557 -10.664 -19.858  0.00  0.00    -0.167 NA
ATOM      5  C   UNL     1      32.457 -12.432 -21.733  0.00  0.00    +0.188 C 
ATOM      6  C   UNL     1      32.121 -10.295 -21.026  0.00  0.00    +0.149 C 
ATOM      7  C   UNL     1      31.898 -12.936 -20.578  0.00  0.00    +0.192 C 
ATOM      8  C   UNL     1      31.460 -11.996 -19.667  0.00  0.00    +0.144 C 
ATOM      9  H   UNL     1      31.888  -8.354 -20.529  0.00  0.00    +0.165 HD
ENDROOT
BRANCH   5  12
ATOM     10  N   UNL     1      33.762 -14.381 -22.557  0.00  0.00    -0.274 N 
ATOM     11  N   UNL     1      33.432 -14.296 -24.752  0.00  0.00    -0.232 NA
ATOM     12  C   UNL     1      32.954 -13.297 -22.770  0.00  0.00    +0.105 C 
ATOM     13  C   UNL     1      34.021 -14.947 -23.774  0.00  0.00    +0.113 C 
ATOM     14  C   UNL     1      32.766 -13.267 -24.134  0.00  0.00    +0.117 C 
ATOM     15  C   UNL     1      34.869 -16.148 -23.920  0.00  0.00    +0.069 C 
BRANCH  10  16
ATOM     16  C   UNL     1      34.253 -14.847 -21.279  0.00  0.00    +0.078 C 
ATOM     17  C   UNL     1      34.893 -16.233 -21.383  0.00  0.00    +0.022 C 
ATOM     18  C   UNL     1      35.197 -13.838 -20.624  0.00  0.00    +0.022 C 
ENDBRANCH  10  16
ENDBRANCH   5  12
BRANCH   2  24
ATOM     19  C   UNL     1      33.788  -6.693 -24.467  0.00  0.00    +0.054 C 
ATOM     20  C   UNL     1      32.575  -7.359 -24.610  0.00  0.00    +0.006 C 
ATOM     21  C   UNL     1      34.492  -6.760 -23.267  0.00  0.00    +0.006 C 
ATOM     22  C   UNL     1      32.059  -8.097 -23.543  0.00  0.00    +0.015 C 
ATOM     23  C   UNL     1      33.976  -7.498 -22.202  0.00  0.00    +0.015 C 
ATOM     24  C   UNL     1      32.760  -8.167 -22.340  0.00  0.00    +0.058 C 
BRANCH  19  31
ATOM     25  O   UNL     1      35.222  -6.433 -26.260  0.00  0.00    -0.270 OA
ATOM     26  N   UNL     1      33.792  -4.658 -25.819  0.00  0.00    -0.278 N 
ATOM     27  C   UNL     1      32.258  -2.880 -26.027  0.00  0.00    -0.036 C 
ATOM     28  C   UNL     1      33.581  -2.473 -26.677  0.00  0.00    +0.002 C 
ATOM     29  C   UNL     1      32.684  -4.023 -25.105  0.00  0.00    +0.073 C 
ATOM     30  C   UNL     1      34.254  -3.817 -26.916  0.00  0.00    +0.092 C 
ATOM     31  C   UNL     1      34.331  -5.914 -25.591  0.00  0.00    +0.249 C 
BRANCH  27  32
ATOM     32  N   UNL     1      31.605  -1.786 -25.331  0.00  0.00    +0.387 N 
ATOM     33  C   UNL     1      30.156  -1.814 -25.557  0.00  0.00    -0.101 C 
ATOM     34  C   UNL     1      31.888  -1.838 -23.893  0.00  0.00    -0.101 C 
ATOM     35  H   UNL     1      31.975  -0.913 -25.706  0.00  0.00    -0.080 HD
ENDBRANCH  27  32
ENDBRANCH  19  31
ENDBRANCH   2  24
TORSDOF 5
ENDMDL
MODEL 9
REMARK VINA RESULT:      -8.1      6.529     13.692
REMARK  Name = 16113377
REMARK  5 active torsions:
REMARK  status: ('A' for Active; 'I' for Inactive)
REMARK    1  A    between atoms: N_2  and  C_24
REMARK    2  A    between atoms: C_5  and  C_12
REMARK    3  A    between atoms: N_10  and  C_16
REMARK    4  A    between atoms: C_19  and  C_31
REMARK    5  A    between atoms: C_27  and  N_32
REMARK                            x       y       z     vdW  Elec       q    Type
REMARK                         _______ _______ _______ _____ _____    ______ ____
ROOT
ATOM      1  F   UNL     1      34.451 -23.890 -13.876  0.00  0.00    -0.200 F 
ATOM      2  N   UNL     1      36.958 -21.291 -17.936  0.00  0.00    -0.247 N 
ATOM      3  N   UNL     1      34.975 -22.144 -17.017  0.00  0.00    -0.334 NA
ATOM      4  N   UNL     1      37.074 -22.363 -15.853  0.00  0.00    -0.167 NA
ATOM      5  C   UNL     1      34.382 -22.792 -15.993  0.00  0.00    +0.188 C 
ATOM      6  C   UNL     1      36.305 -21.964 -16.886  0.00  0.00    +0.149 C 
ATOM      7  C   UNL     1      35.058 -23.249 -14.881  0.00  0.00    +0.192 C 
ATOM      8  C   UNL     1      36.416 -23.004 -14.864  0.00  0.00    +0.144 C 
ATOM      9  H   UNL     1      37.927 -21.184 -17.797  0.00  0.00    +0.165 HD
ENDROOT
BRANCH   5  12
ATOM     10  N   UNL     1      32.126 -23.408 -15.149  0.00  0.00    -0.274 N 
ATOM     11  N   UNL     1      30.836 -23.090 -16.929  0.00  0.00    -0.232 NA
ATOM     12  C   UNL     1      32.963 -22.978 -16.142  0.00  0.00    +0.105 C 
ATOM     13  C   UNL     1      30.863 -23.459 -15.667  0.00  0.00    +0.113 C 
ATOM     14  C   UNL     1      32.141 -22.789 -17.231  0.00  0.00    +0.117 C 
ATOM     15  C   UNL     1      29.698 -23.885 -14.864  0.00  0.00    +0.069 C 
BRANCH  10  16
ATOM     16  C   UNL     1      32.506 -23.746 -13.794  0.00  0.00    +0.078 C 
ATOM     17  C   UNL     1      31.944 -22.751 -12.778  0.00  0.00    +0.022 C 
ATOM     18  C   UNL     1      32.136 -25.187 -13.438  0.00  0.00    +0.022 C 
ENDBRANCH  10  16
ENDBRANCH   5  12
BRANCH   2  24
ATOM     19  C   UNL     1      35.588 -19.652 -21.547  0.00  0.00    +0.054 C 
ATOM     20  C   UNL     1      36.829 -19.273 -21.042  0.00  0.00    +0.006 C 
ATOM     21  C   UNL     1      34.799 -20.570 -20.860  0.00  0.00    +0.006 C 
ATOM     22  C   UNL     1      37.284 -19.819 -19.841  0.00  0.00    +0.015 C 
ATOM     23  C   UNL     1      35.254 -21.115 -19.660  0.00  0.00    +0.015 C 
ATOM     24  C   UNL     1      36.497 -20.739 -19.150  0.00  0.00    +0.058 C 
BRANCH  19  31
ATOM     25  O   UNL     1      34.895 -19.855 -23.742  0.00  0.00    -0.270 OA
ATOM     26  N   UNL     1      34.923 -17.706 -22.865  0.00  0.00    -0.278 N 
ATOM     27  C   UNL     1      34.360 -15.494 -22.271  0.00  0.00    -0.036 C 
ATOM     28  C   UNL     1      34.591 -15.559 -23.781  0.00  0.00    +0.002 C 
ATOM     29  C   UNL     1      35.088 -16.744 -21.775  0.00  0.00    +0.073 C 
ATOM     30  C   UNL     1      34.438 -17.046 -24.072  0.00  0.00    +0.092 C 
ATOM     31  C   UNL     1      35.109 -19.078 -22.814  0.00  0.00    +0.249 C 
BRANCH  27  32
ATOM     32  N   UNL     1      34.846 -14.264 -21.673  0.00  0.00    +0.387 N 
ATOM     33  C   UNL     1      34.235 -13.095 -22.315  0.00  0.00    -0.101 C 
ATOM     34  C   UNL     1      34.579 -14.242 -20.232  0.00  0.00    -0.101 C 
ATOM     35  H   UNL     1      35.855 -14.225 -21.819  0.00  0.00    -0.080 HD
ENDBRANCH  27  32
ENDBRANCH  19  31
ENDBRANCH   2  24
TORSDOF 5
ENDMDL
