MODEL 1
REMARK VINA RESULT:     -10.1      0.000      0.000
REMARK  Name = 24780598
REMARK  5 active torsions:
REMARK  status: ('A' for Active; 'I' for Inactive)
REMARK    1  A    between atoms: C_2  and  S_22
REMARK    2  A    between atoms: C_3  and  O_33
REMARK    3  A    between atoms: C_5  and  N_9
REMARK    4  A    between atoms: N_10  and  C_15
REMARK    5  A    between atoms: S_22  and  C_26
REMARK                            x       y       z     vdW  Elec       q    Type
REMARK                         _______ _______ _______ _____ _____    ______ ____
ROOT
ATOM      1 CL   UNL     1      31.909  -4.872 -20.913  0.00  0.00    -0.081 Cl
ATOM      2  C   UNL     1      31.700  -7.113 -22.467  0.00  0.00    +0.151 C 
ATOM      3  C   UNL     1      31.746  -8.495 -22.658  0.00  0.00    +0.165 C 
ATOM      4  C   UNL     1      31.950  -6.574 -21.205  0.00  0.00    +0.078 C 
ATOM      5  C   UNL     1      32.043  -9.336 -21.586  0.00  0.00    +0.087 C 
ATOM      6  C   UNL     1      32.248  -7.416 -20.133  0.00  0.00    +0.014 C 
ATOM      7  C   UNL     1      32.294  -8.797 -20.324  0.00  0.00    +0.019 C 
ENDROOT
BRANCH   5   9
ATOM      8  O   UNL     1      33.849 -11.008 -23.279  0.00  0.00    -0.252 OA
ATOM      9  N   UNL     1      32.090 -10.722 -21.757  0.00  0.00    -0.266 N 
ATOM     10  N   UNL     1      32.666 -12.847 -22.449  0.00  0.00    -0.268 N 
ATOM     11  C   UNL     1      32.964 -11.481 -22.572  0.00  0.00    +0.308 C 
ATOM     12  H   UNL     1      31.429 -11.239 -21.244  0.00  0.00    +0.157 HD
ATOM     13  H   UNL     1      31.926 -13.075 -21.841  0.00  0.00    +0.156 HD
BRANCH  10  15
ATOM     14  F   UNL     1      35.669 -16.615 -22.397  0.00  0.00    -0.204 F 
ATOM     15  C   UNL     1      33.299 -13.938 -23.092  0.00  0.00    +0.050 C 
ATOM     16  C   UNL     1      34.195 -14.754 -22.401  0.00  0.00    +0.019 C 
ATOM     17  C   UNL     1      33.015 -14.192 -24.434  0.00  0.00    +0.015 C 
ATOM     18  C   UNL     1      34.808 -15.824 -23.053  0.00  0.00    +0.137 C 
ATOM     19  C   UNL     1      34.515 -14.501 -20.963  0.00  0.00    +0.035 C 
ATOM     20  C   UNL     1      33.627 -15.263 -25.085  0.00  0.00    +0.004 C 
ATOM     21  C   UNL     1      34.524 -16.079 -24.395  0.00  0.00    +0.029 C 
ENDBRANCH  10  15
ENDBRANCH   5   9
BRANCH   2  22
ATOM     22  S   UNL     1      31.325  -6.073 -23.845  0.00  0.00    +0.009 S 
ATOM     23  O   UNL     1      30.891  -6.935 -24.927  0.00  0.00    -0.169 OA
ATOM     24  O   UNL     1      30.477  -4.993 -23.377  0.00  0.00    -0.169 OA
BRANCH  22  26
ATOM     25  N   UNL     1      34.120  -4.176 -26.074  0.00  0.00    +0.385 N 
ATOM     26  C   UNL     1      32.892  -5.369 -24.282  0.00  0.00    +0.113 C 
ATOM     27  C   UNL     1      33.993  -6.425 -24.205  0.00  0.00    +0.020 C 
ATOM     28  C   UNL     1      32.829  -4.738 -25.673  0.00  0.00    -0.057 C 
ATOM     29  C   UNL     1      35.320  -5.854 -24.699  0.00  0.00    -0.022 C 
ATOM     30  C   UNL     1      35.163  -5.205 -26.074  0.00  0.00    -0.082 C 
ATOM     31  H   UNL     1      34.380  -3.437 -25.419  0.00  0.00    -0.084 HD
ATOM     32  H   UNL     1      34.034  -3.800 -27.018  0.00  0.00    -0.084 HD
ENDBRANCH  22  26
ENDBRANCH   2  22
BRANCH   3  33
ATOM     33  O   UNL     1      31.503  -9.029 -23.890  0.00  0.00    -0.503 OA
ATOM     34  H   UNL     1      30.655  -8.942 -24.280  0.00  0.00    +0.292 HD
ENDBRANCH   3  33
TORSDOF 5
ENDMDL
MODEL 2
REMARK VINA RESULT:      -9.8      5.729     10.907
REMARK  Name = 24780598
REMARK  5 active torsions:
REMARK  status: ('A' for Active; 'I' for Inactive)
REMARK    1  A    between atoms: C_2  and  S_22
REMARK    2  A    between atoms: C_3  and  O_33
REMARK    3  A    between atoms: C_5  and  N_9
REMARK    4  A    between atoms: N_10  and  C_15
REMARK    5  A    between atoms: S_22  and  C_26
REMARK                            x       y       z     vdW  Elec       q    Type
REMARK                         _______ _______ _______ _____ _____    ______ ____
ROOT
ATOM      1 CL   UNL     1      34.907 -20.139 -23.786  0.00  0.00    -0.081 Cl
ATOM      2  C   UNL     1      35.137 -17.606 -22.779  0.00  0.00    +0.151 C 
ATOM      3  C   UNL     1      34.923 -16.229 -22.836  0.00  0.00    +0.165 C 
ATOM      4  C   UNL     1      34.667 -18.428 -23.803  0.00  0.00    +0.078 C 
ATOM      5  C   UNL     1      34.238 -15.674 -23.918  0.00  0.00    +0.087 C 
ATOM      6  C   UNL     1      33.982 -17.874 -24.885  0.00  0.00    +0.014 C 
ATOM      7  C   UNL     1      33.767 -16.496 -24.941  0.00  0.00    +0.019 C 
ENDROOT
BRANCH   5   9
ATOM      8  O   UNL     1      32.832 -13.851 -22.014  0.00  0.00    -0.252 OA
ATOM      9  N   UNL     1      34.010 -14.298 -23.990  0.00  0.00    -0.266 N 
ATOM     10  N   UNL     1      33.336 -12.140 -23.526  0.00  0.00    -0.268 N 
ATOM     11  C   UNL     1      33.337 -13.465 -23.064  0.00  0.00    +0.308 C 
ATOM     12  H   UNL     1      34.366 -13.847 -24.789  0.00  0.00    +0.157 HD
ATOM     13  H   UNL     1      33.783 -11.983 -24.390  0.00  0.00    +0.156 HD
BRANCH  10  15
ATOM     14  F   UNL     1      33.472  -7.471 -22.341  0.00  0.00    -0.204 F 
ATOM     15  C   UNL     1      32.770 -11.001 -22.905  0.00  0.00    +0.050 C 
ATOM     16  C   UNL     1      33.425  -9.770 -22.934  0.00  0.00    +0.019 C 
ATOM     17  C   UNL     1      31.541 -11.122 -22.257  0.00  0.00    +0.015 C 
ATOM     18  C   UNL     1      32.850  -8.659 -22.316  0.00  0.00    +0.137 C 
ATOM     19  C   UNL     1      34.743  -9.616 -23.622  0.00  0.00    +0.035 C 
ATOM     20  C   UNL     1      30.966 -10.011 -21.639  0.00  0.00    +0.004 C 
ATOM     21  C   UNL     1      31.621  -8.780 -21.668  0.00  0.00    +0.029 C 
ENDBRANCH  10  15
ENDBRANCH   5   9
BRANCH   2  22
ATOM     22  S   UNL     1      36.012 -18.278 -21.400  0.00  0.00    +0.009 S 
ATOM     23  O   UNL     1      37.336 -18.642 -21.869  0.00  0.00    -0.169 OA
ATOM     24  O   UNL     1      35.851 -17.371 -20.279  0.00  0.00    -0.169 OA
BRANCH  22  26
ATOM     25  N   UNL     1      32.958 -20.644 -20.197  0.00  0.00    +0.385 N 
ATOM     26  C   UNL     1      35.124 -19.763 -21.017  0.00  0.00    +0.113 C 
ATOM     27  C   UNL     1      35.875 -20.579 -19.967  0.00  0.00    +0.020 C 
ATOM     28  C   UNL     1      33.705 -19.435 -20.550  0.00  0.00    -0.057 C 
ATOM     29  C   UNL     1      35.054 -21.795 -19.545  0.00  0.00    -0.022 C 
ATOM     30  C   UNL     1      33.638 -21.390 -19.136  0.00  0.00    -0.082 C 
ATOM     31  H   UNL     1      32.874 -21.238 -21.022  0.00  0.00    -0.084 HD
ATOM     32  H   UNL     1      32.034 -20.370 -19.860  0.00  0.00    -0.084 HD
ENDBRANCH  22  26
ENDBRANCH   2  22
BRANCH   3  33
ATOM     33  O   UNL     1      35.381 -15.417 -21.839  0.00  0.00    -0.503 OA
ATOM     34  H   UNL     1      35.454 -15.745 -20.964  0.00  0.00    +0.292 HD
ENDBRANCH   3  33
TORSDOF 5
ENDMDL
MODEL 3
REMARK VINA RESULT:      -9.4      6.660      9.960
REMARK  Name = 24780598
REMARK  5 active torsions:
REMARK  status: ('A' for Active; 'I' for Inactive)
REMARK    1  A    between atoms: C_2  and  S_22
REMARK    2  A    between atoms: C_3  and  O_33
REMARK    3  A    between atoms: C_5  and  N_9
REMARK    4  A    between atoms: N_10  and  C_15
REMARK    5  A    between atoms: S_22  and  C_26
REMARK                            x       y       z     vdW  Elec       q    Type
REMARK                         _______ _______ _______ _____ _____    ______ ____
ROOT
ATOM      1 CL   UNL     1      33.688 -15.814 -25.322  0.00  0.00    -0.081 Cl
ATOM      2  C   UNL     1      34.674 -16.540 -22.876  0.00  0.00    +0.151 C 
ATOM      3  C   UNL     1      35.049 -17.491 -21.927  0.00  0.00    +0.165 C 
ATOM      4  C   UNL     1      34.171 -16.948 -24.111  0.00  0.00    +0.078 C 
ATOM      5  C   UNL     1      34.922 -18.850 -22.214  0.00  0.00    +0.087 C 
ATOM      6  C   UNL     1      34.044 -18.307 -24.399  0.00  0.00    +0.014 C 
ATOM      7  C   UNL     1      34.420 -19.258 -23.450  0.00  0.00    +0.019 C 
ENDROOT
BRANCH   5   9
ATOM      8  O   UNL     1      33.412 -19.973 -19.894  0.00  0.00    -0.252 OA
ATOM      9  N   UNL     1      35.296 -19.817 -21.278  0.00  0.00    -0.266 N 
ATOM     10  N   UNL     1      35.305 -21.286 -19.498  0.00  0.00    -0.268 N 
ATOM     11  C   UNL     1      34.550 -20.325 -20.187  0.00  0.00    +0.308 C 
ATOM     12  H   UNL     1      36.198 -20.194 -21.390  0.00  0.00    +0.157 HD
ATOM     13  H   UNL     1      36.207 -21.464 -19.853  0.00  0.00    +0.156 HD
BRANCH  10  15
ATOM     14  F   UNL     1      36.114 -22.803 -14.996  0.00  0.00    -0.204 F 
ATOM     15  C   UNL     1      34.932 -22.031 -18.355  0.00  0.00    +0.050 C 
ATOM     16  C   UNL     1      35.735 -22.044 -17.214  0.00  0.00    +0.019 C 
ATOM     17  C   UNL     1      33.742 -22.760 -18.378  0.00  0.00    +0.015 C 
ATOM     18  C   UNL     1      35.349 -22.786 -16.097  0.00  0.00    +0.137 C 
ATOM     19  C   UNL     1      37.014 -21.273 -17.166  0.00  0.00    +0.035 C 
ATOM     20  C   UNL     1      33.356 -23.500 -17.261  0.00  0.00    +0.004 C 
ATOM     21  C   UNL     1      34.159 -23.513 -16.121  0.00  0.00    +0.029 C 
ENDBRANCH  10  15
ENDBRANCH   5   9
BRANCH   2  22
ATOM     22  S   UNL     1      34.842 -14.827 -22.481  0.00  0.00    +0.009 S 
ATOM     23  O   UNL     1      35.761 -14.733 -21.362  0.00  0.00    -0.169 OA
ATOM     24  O   UNL     1      35.103 -14.104 -23.711  0.00  0.00    -0.169 OA
BRANCH  22  26
ATOM     25  N   UNL     1      31.423 -12.681 -22.186  0.00  0.00    +0.385 N 
ATOM     26  C   UNL     1      33.226 -14.360 -21.920  0.00  0.00    +0.113 C 
ATOM     27  C   UNL     1      33.226 -14.148 -20.407  0.00  0.00    +0.020 C 
ATOM     28  C   UNL     1      32.744 -13.108 -22.653  0.00  0.00    -0.057 C 
ATOM     29  C   UNL     1      31.869 -13.628 -19.939  0.00  0.00    -0.022 C 
ATOM     30  C   UNL     1      31.439 -12.405 -20.748  0.00  0.00    -0.082 C 
ATOM     31  H   UNL     1      30.747 -13.421 -22.377  0.00  0.00    -0.084 HD
ATOM     32  H   UNL     1      31.163 -11.827 -22.679  0.00  0.00    -0.084 HD
ENDBRANCH  22  26
ENDBRANCH   2  22
BRANCH   3  33
ATOM     33  O   UNL     1      35.540 -17.100 -20.715  0.00  0.00    -0.503 OA
ATOM     34  H   UNL     1      35.086 -16.452 -20.212  0.00  0.00    +0.292 HD
ENDBRANCH   3  33
TORSDOF 5
ENDMDL
MODEL 4
REMARK VINA RESULT:      -9.3      2.163      3.254
REMARK  Name = 24780598
REMARK  5 active torsions:
REMARK  status: ('A' for Active; 'I' for Inactive)
REMARK    1  A    between atoms: C_2  and  S_22
REMARK    2  A    between atoms: C_3  and  O_33
REMARK    3  A    between atoms: C_5  and  N_9
REMARK    4  A    between atoms: N_10  and  C_15
REMARK    5  A    between atoms: S_22  and  C_26
REMARK                            x       y       z     vdW  Elec       q    Type
REMARK                         _______ _______ _______ _____ _____    ______ ____
ROOT
ATOM      1 CL   UNL     1      31.097  -7.353 -22.190  0.00  0.00    -0.081 Cl
ATOM      2  C   UNL     1      33.304  -8.821 -22.865  0.00  0.00    +0.151 C 
ATOM      3  C   UNL     1      33.954 -10.028 -23.128  0.00  0.00    +0.165 C 
ATOM      4  C   UNL     1      31.951  -8.817 -22.528  0.00  0.00    +0.078 C 
ATOM      5  C   UNL     1      33.249 -11.229 -23.053  0.00  0.00    +0.087 C 
ATOM      6  C   UNL     1      31.246 -10.018 -22.453  0.00  0.00    +0.014 C 
ATOM      7  C   UNL     1      31.896 -11.224 -22.716  0.00  0.00    +0.019 C 
ENDROOT
BRANCH   5   9
ATOM      8  O   UNL     1      33.204 -13.796 -21.525  0.00  0.00    -0.252 OA
ATOM      9  N   UNL     1      33.882 -12.446 -23.317  0.00  0.00    -0.266 N 
ATOM     10  N   UNL     1      34.620 -14.629 -23.188  0.00  0.00    -0.268 N 
ATOM     11  C   UNL     1      33.837 -13.645 -22.566  0.00  0.00    +0.308 C 
ATOM     12  H   UNL     1      34.433 -12.474 -24.132  0.00  0.00    +0.157 HD
ATOM     13  H   UNL     1      35.071 -14.360 -24.022  0.00  0.00    +0.156 HD
BRANCH  10  15
ATOM     14  F   UNL     1      34.616 -19.377 -24.010  0.00  0.00    -0.204 F 
ATOM     15  C   UNL     1      34.844 -15.961 -22.766  0.00  0.00    +0.050 C 
ATOM     16  C   UNL     1      34.610 -17.034 -23.626  0.00  0.00    +0.019 C 
ATOM     17  C   UNL     1      35.305 -16.193 -21.470  0.00  0.00    +0.015 C 
ATOM     18  C   UNL     1      34.837 -18.340 -23.190  0.00  0.00    +0.137 C 
ATOM     19  C   UNL     1      34.115 -16.810 -25.019  0.00  0.00    +0.035 C 
ATOM     20  C   UNL     1      35.532 -17.499 -21.035  0.00  0.00    +0.004 C 
ATOM     21  C   UNL     1      35.298 -18.572 -21.895  0.00  0.00    +0.029 C 
ENDBRANCH  10  15
ENDBRANCH   5   9
BRANCH   2  22
ATOM     22  S   UNL     1      34.224  -7.317 -22.962  0.00  0.00    +0.009 S 
ATOM     23  O   UNL     1      33.730  -6.444 -21.914  0.00  0.00    -0.169 OA
ATOM     24  O   UNL     1      35.633  -7.654 -23.036  0.00  0.00    -0.169 OA
BRANCH  22  26
ATOM     25  N   UNL     1      34.633  -5.607 -26.608  0.00  0.00    +0.385 N 
ATOM     26  C   UNL     1      33.756  -6.634 -24.530  0.00  0.00    +0.113 C 
ATOM     27  C   UNL     1      32.791  -5.466 -24.337  0.00  0.00    +0.020 C 
ATOM     28  C   UNL     1      34.992  -6.204 -25.320  0.00  0.00    -0.057 C 
ATOM     29  C   UNL     1      32.483  -4.798 -25.675  0.00  0.00    -0.022 C 
ATOM     30  C   UNL     1      33.768  -4.440 -26.421  0.00  0.00    -0.082 C 
ATOM     31  H   UNL     1      34.141  -6.301 -27.172  0.00  0.00    -0.084 HD
ATOM     32  H   UNL     1      35.486  -5.307 -27.078  0.00  0.00    -0.084 HD
ENDBRANCH  22  26
ENDBRANCH   2  22
BRANCH   3  33
ATOM     33  O   UNL     1      35.279 -10.040 -23.456  0.00  0.00    -0.503 OA
ATOM     34  H   UNL     1      35.539 -10.019 -24.357  0.00  0.00    +0.292 HD
ENDBRANCH   3  33
TORSDOF 5
ENDMDL
MODEL 5
REMARK VINA RESULT:      -9.3      1.644      2.124
REMARK  Name = 24780598
REMARK  5 active torsions:
REMARK  status: ('A' for Active; 'I' for Inactive)
REMARK    1  A    between atoms: C_2  and  S_22
REMARK    2  A    between atoms: C_3  and  O_33
REMARK    3  A    between atoms: C_5  and  N_9
REMARK    4  A    between atoms: N_10  and  C_15
REMARK    5  A    between atoms: S_22  and  C_26
REMARK                            x       y       z     vdW  Elec       q    Type
REMARK                         _______ _______ _______ _____ _____    ______ ____
ROOT
ATOM      1 CL   UNL     1      32.371  -4.922 -21.353  0.00  0.00    -0.081 Cl
ATOM      2  C   UNL     1      32.630  -7.154 -22.914  0.00  0.00    +0.151 C 
ATOM      3  C   UNL     1      32.585  -8.534 -23.116  0.00  0.00    +0.165 C 
ATOM      4  C   UNL     1      32.328  -6.622 -21.661  0.00  0.00    +0.078 C 
ATOM      5  C   UNL     1      32.238  -9.381 -22.064  0.00  0.00    +0.087 C 
ATOM      6  C   UNL     1      31.981  -7.469 -20.608  0.00  0.00    +0.014 C 
ATOM      7  C   UNL     1      31.936  -8.849 -20.810  0.00  0.00    +0.019 C 
ENDROOT
BRANCH   5   9
ATOM      8  O   UNL     1      34.228 -11.240 -23.290  0.00  0.00    -0.252 OA
ATOM      9  N   UNL     1      32.184 -10.765 -22.248  0.00  0.00    -0.266 N 
ATOM     10  N   UNL     1      32.694 -12.941 -22.821  0.00  0.00    -0.268 N 
ATOM     11  C   UNL     1      33.151 -11.615 -22.837  0.00  0.00    +0.308 C 
ATOM     12  H   UNL     1      31.366 -11.207 -21.927  0.00  0.00    +0.157 HD
ATOM     13  H   UNL     1      31.806 -13.088 -22.422  0.00  0.00    +0.156 HD
BRANCH  10  15
ATOM     14  F   UNL     1      35.683 -16.672 -22.218  0.00  0.00    -0.204 F 
ATOM     15  C   UNL     1      33.352 -14.095 -23.310  0.00  0.00    +0.050 C 
ATOM     16  C   UNL     1      34.215 -14.827 -22.494  0.00  0.00    +0.019 C 
ATOM     17  C   UNL     1      33.127 -14.498 -24.627  0.00  0.00    +0.015 C 
ATOM     18  C   UNL     1      34.853 -15.962 -22.996  0.00  0.00    +0.137 C 
ATOM     19  C   UNL     1      34.471 -14.415 -21.081  0.00  0.00    +0.035 C 
ATOM     20  C   UNL     1      33.765 -15.633 -25.127  0.00  0.00    +0.004 C 
ATOM     21  C   UNL     1      34.628 -16.365 -24.312  0.00  0.00    +0.029 C 
ENDBRANCH  10  15
ENDBRANCH   5   9
BRANCH   2  22
ATOM     22  S   UNL     1      33.077  -6.107 -24.265  0.00  0.00    +0.009 S 
ATOM     23  O   UNL     1      34.488  -5.801 -24.120  0.00  0.00    -0.169 OA
ATOM     24  O   UNL     1      32.574  -6.707 -25.486  0.00  0.00    -0.169 OA
BRANCH  22  26
ATOM     25  N   UNL     1      29.929  -3.564 -24.276  0.00  0.00    +0.385 N 
ATOM     26  C   UNL     1      32.149  -4.625 -23.977  0.00  0.00    +0.113 C 
ATOM     27  C   UNL     1      32.830  -3.430 -24.643  0.00  0.00    +0.020 C 
ATOM     28  C   UNL     1      30.711  -4.786 -24.472  0.00  0.00    -0.057 C 
ATOM     29  C   UNL     1      31.971  -2.176 -24.503  0.00  0.00    -0.022 C 
ATOM     30  C   UNL     1      30.540  -2.432 -24.976  0.00  0.00    -0.082 C 
ATOM     31  H   UNL     1      29.883  -3.354 -23.278  0.00  0.00    -0.084 HD
ATOM     32  H   UNL     1      28.993  -3.712 -24.652  0.00  0.00    -0.084 HD
ENDBRANCH  22  26
ENDBRANCH   2  22
BRANCH   3  33
ATOM     33  O   UNL     1      32.880  -9.062 -24.339  0.00  0.00    -0.503 OA
ATOM     34  H   UNL     1      33.382  -8.565 -24.956  0.00  0.00    +0.292 HD
ENDBRANCH   3  33
TORSDOF 5
ENDMDL
MODEL 6
REMARK VINA RESULT:      -9.2     10.353     14.749
REMARK  Name = 24780598
REMARK  5 active torsions:
REMARK  status: ('A' for Active; 'I' for Inactive)
REMARK    1  A    between atoms: C_2  and  S_22
REMARK    2  A    between atoms: C_3  and  O_33
REMARK    3  A    between atoms: C_5  and  N_9
REMARK    4  A    between atoms: N_10  and  C_15
REMARK    5  A    between atoms: S_22  and  C_26
REMARK                            x       y       z     vdW  Elec       q    Type
REMARK                         _______ _______ _______ _____ _____    ______ ____
ROOT
ATOM      1 CL   UNL     1      36.282 -22.888 -14.189  0.00  0.00    -0.081 Cl
ATOM      2  C   UNL     1      35.421 -22.646 -16.774  0.00  0.00    +0.151 C 
ATOM      3  C   UNL     1      35.474 -22.078 -18.048  0.00  0.00    +0.165 C 
ATOM      4  C   UNL     1      36.306 -22.222 -15.784  0.00  0.00    +0.078 C 
ATOM      5  C   UNL     1      36.413 -21.085 -18.328  0.00  0.00    +0.087 C 
ATOM      6  C   UNL     1      37.245 -21.229 -16.064  0.00  0.00    +0.014 C 
ATOM      7  C   UNL     1      37.298 -20.661 -17.337  0.00  0.00    +0.019 C 
ENDROOT
BRANCH   5   9
ATOM      8  O   UNL     1      34.282 -19.804 -19.984  0.00  0.00    -0.252 OA
ATOM      9  N   UNL     1      36.484 -20.507 -19.598  0.00  0.00    -0.266 N 
ATOM     10  N   UNL     1      35.953 -19.453 -21.582  0.00  0.00    -0.268 N 
ATOM     11  C   UNL     1      35.447 -19.908 -20.354  0.00  0.00    +0.308 C 
ATOM     12  H   UNL     1      37.371 -20.518 -20.024  0.00  0.00    +0.157 HD
ATOM     13  H   UNL     1      36.913 -19.607 -21.738  0.00  0.00    +0.156 HD
BRANCH  10  15
ATOM     14  F   UNL     1      34.313 -15.452 -23.708  0.00  0.00    -0.204 F 
ATOM     15  C   UNL     1      35.253 -18.800 -22.624  0.00  0.00    +0.050 C 
ATOM     16  C   UNL     1      35.129 -17.411 -22.644  0.00  0.00    +0.019 C 
ATOM     17  C   UNL     1      34.682 -19.566 -23.641  0.00  0.00    +0.015 C 
ATOM     18  C   UNL     1      34.435 -16.787 -23.681  0.00  0.00    +0.137 C 
ATOM     19  C   UNL     1      35.732 -16.570 -21.565  0.00  0.00    +0.035 C 
ATOM     20  C   UNL     1      33.988 -18.942 -24.678  0.00  0.00    +0.004 C 
ATOM     21  C   UNL     1      33.865 -17.552 -24.698  0.00  0.00    +0.029 C 
ENDBRANCH  10  15
ENDBRANCH   5   9
BRANCH   2  22
ATOM     22  S   UNL     1      34.218 -23.897 -16.448  0.00  0.00    +0.009 S 
ATOM     23  O   UNL     1      33.554 -24.192 -17.704  0.00  0.00    -0.169 OA
ATOM     24  O   UNL     1      34.861 -24.953 -15.688  0.00  0.00    -0.169 OA
BRANCH  22  26
ATOM     25  N   UNL     1      32.141 -23.087 -13.070  0.00  0.00    +0.385 N 
ATOM     26  C   UNL     1      33.057 -23.098 -15.373  0.00  0.00    +0.113 C 
ATOM     27  C   UNL     1      31.646 -23.182 -15.953  0.00  0.00    +0.020 C 
ATOM     28  C   UNL     1      33.114 -23.707 -13.972  0.00  0.00    -0.057 C 
ATOM     29  C   UNL     1      30.628 -22.605 -14.973  0.00  0.00    -0.022 C 
ATOM     30  C   UNL     1      30.779 -23.232 -13.587  0.00  0.00    -0.082 C 
ATOM     31  H   UNL     1      32.359 -22.094 -12.976  0.00  0.00    -0.084 HD
ATOM     32  H   UNL     1      32.196 -23.550 -12.162  0.00  0.00    -0.084 HD
ENDBRANCH  22  26
ENDBRANCH   2  22
BRANCH   3  33
ATOM     33  O   UNL     1      34.611 -22.486 -19.022  0.00  0.00    -0.503 OA
ATOM     34  H   UNL     1      34.928 -22.663 -19.886  0.00  0.00    +0.292 HD
ENDBRANCH   3  33
TORSDOF 5
ENDMDL
MODEL 7
REMARK VINA RESULT:      -8.7      3.643      8.385
REMARK  Name = 24780598
REMARK  5 active torsions:
REMARK  status: ('A' for Active; 'I' for Inactive)
REMARK    1  A    between atoms: C_2  and  S_22
REMARK    2  A    between atoms: C_3  and  O_33
REMARK    3  A    between atoms: C_5  and  N_9
REMARK    4  A    between atoms: N_10  and  C_15
REMARK    5  A    between atoms: S_22  and  C_26
REMARK                            x       y       z     vdW  Elec       q    Type
REMARK                         _______ _______ _______ _____ _____    ______ ____
ROOT
ATOM      1 CL   UNL     1      31.827  -9.874 -18.387  0.00  0.00    -0.081 Cl
ATOM      2  C   UNL     1      31.911  -9.327 -21.066  0.00  0.00    +0.151 C 
ATOM      3  C   UNL     1      32.189  -8.493 -22.149  0.00  0.00    +0.165 C 
ATOM      4  C   UNL     1      32.156  -8.886 -19.765  0.00  0.00    +0.078 C 
ATOM      5  C   UNL     1      32.712  -7.218 -21.931  0.00  0.00    +0.087 C 
ATOM      6  C   UNL     1      32.679  -7.611 -19.547  0.00  0.00    +0.014 C 
ATOM      7  C   UNL     1      32.957  -6.777 -20.631  0.00  0.00    +0.019 C 
ENDROOT
BRANCH   5   9
ATOM      8  O   UNL     1      30.900  -6.021 -23.982  0.00  0.00    -0.252 OA
ATOM      9  N   UNL     1      33.000  -6.371 -23.004  0.00  0.00    -0.266 N 
ATOM     10  N   UNL     1      32.819  -5.022 -24.868  0.00  0.00    -0.268 N 
ATOM     11  C   UNL     1      32.110  -5.822 -23.959  0.00  0.00    +0.308 C 
ATOM     12  H   UNL     1      33.946  -6.122 -23.110  0.00  0.00    +0.157 HD
ATOM     13  H   UNL     1      33.791  -4.957 -24.720  0.00  0.00    +0.156 HD
BRANCH  10  15
ATOM     14  F   UNL     1      32.416  -4.281 -29.612  0.00  0.00    -0.204 F 
ATOM     15  C   UNL     1      32.310  -4.297 -25.971  0.00  0.00    +0.050 C 
ATOM     16  C   UNL     1      32.629  -4.664 -27.279  0.00  0.00    +0.019 C 
ATOM     17  C   UNL     1      31.478  -3.201 -25.737  0.00  0.00    +0.015 C 
ATOM     18  C   UNL     1      32.116  -3.935 -28.352  0.00  0.00    +0.137 C 
ATOM     19  C   UNL     1      33.518  -5.833 -27.554  0.00  0.00    +0.035 C 
ATOM     20  C   UNL     1      30.965  -2.473 -26.811  0.00  0.00    +0.004 C 
ATOM     21  C   UNL     1      31.284  -2.840 -28.119  0.00  0.00    +0.029 C 
ENDBRANCH  10  15
ENDBRANCH   5   9
BRANCH   2  22
ATOM     22  S   UNL     1      31.244 -10.933 -21.373  0.00  0.00    +0.009 S 
ATOM     23  O   UNL     1      30.310 -11.221 -20.301  0.00  0.00    -0.169 OA
ATOM     24  O   UNL     1      30.815 -10.986 -22.758  0.00  0.00    -0.169 OA
BRANCH  22  26
ATOM     25  N   UNL     1      34.375 -13.251 -22.470  0.00  0.00    +0.385 N 
ATOM     26  C   UNL     1      32.641 -12.011 -21.206  0.00  0.00    +0.113 C 
ATOM     27  C   UNL     1      32.248 -13.284 -20.459  0.00  0.00    +0.020 C 
ATOM     28  C   UNL     1      33.236 -12.336 -22.576  0.00  0.00    -0.057 C 
ATOM     29  C   UNL     1      33.416 -14.266 -20.422  0.00  0.00    -0.022 C 
ATOM     30  C   UNL     1      33.981 -14.504 -21.822  0.00  0.00    -0.082 C 
ATOM     31  H   UNL     1      35.110 -12.806 -21.920  0.00  0.00    -0.084 HD
ATOM     32  H   UNL     1      34.712 -13.463 -23.409  0.00  0.00    -0.084 HD
ENDBRANCH  22  26
ENDBRANCH   2  22
BRANCH   3  33
ATOM     33  O   UNL     1      31.950  -8.916 -23.424  0.00  0.00    -0.503 OA
ATOM     34  H   UNL     1      31.099  -9.229 -23.663  0.00  0.00    +0.292 HD
ENDBRANCH   3  33
TORSDOF 5
ENDMDL
MODEL 8
REMARK VINA RESULT:      -8.7      2.603      3.880
REMARK  Name = 24780598
REMARK  5 active torsions:
REMARK  status: ('A' for Active; 'I' for Inactive)
REMARK    1  A    between atoms: C_2  and  S_22
REMARK    2  A    between atoms: C_3  and  O_33
REMARK    3  A    between atoms: C_5  and  N_9
REMARK    4  A    between atoms: N_10  and  C_15
REMARK    5  A    between atoms: S_22  and  C_26
REMARK                            x       y       z     vdW  Elec       q    Type
REMARK                         _______ _______ _______ _____ _____    ______ ____
ROOT
ATOM      1 CL   UNL     1      34.111  -6.806 -23.000  0.00  0.00    -0.081 Cl
ATOM      2  C   UNL     1      33.006  -9.301 -22.800  0.00  0.00    +0.151 C 
ATOM      3  C   UNL     1      33.034 -10.684 -22.982  0.00  0.00    +0.165 C 
ATOM      4  C   UNL     1      34.092  -8.523 -23.199  0.00  0.00    +0.078 C 
ATOM      5  C   UNL     1      34.148 -11.287 -23.564  0.00  0.00    +0.087 C 
ATOM      6  C   UNL     1      35.207  -9.126 -23.781  0.00  0.00    +0.014 C 
ATOM      7  C   UNL     1      35.235 -10.509 -23.963  0.00  0.00    +0.019 C 
ENDROOT
BRANCH   5   9
ATOM      8  O   UNL     1      34.910 -13.464 -21.665  0.00  0.00    -0.252 OA
ATOM      9  N   UNL     1      34.195 -12.671 -23.751  0.00  0.00    -0.266 N 
ATOM     10  N   UNL     1      34.470 -14.939 -23.425  0.00  0.00    -0.268 N 
ATOM     11  C   UNL     1      34.563 -13.675 -22.823  0.00  0.00    +0.308 C 
ATOM     12  H   UNL     1      33.938 -12.991 -24.645  0.00  0.00    +0.157 HD
ATOM     13  H   UNL     1      34.176 -14.950 -24.365  0.00  0.00    +0.156 HD
BRANCH  10  15
ATOM     14  F   UNL     1      34.760 -19.741 -23.710  0.00  0.00    -0.204 F 
ATOM     15  C   UNL     1      34.748 -16.201 -22.849  0.00  0.00    +0.050 C 
ATOM     16  C   UNL     1      34.610 -17.374 -23.591  0.00  0.00    +0.019 C 
ATOM     17  C   UNL     1      35.166 -16.262 -21.519  0.00  0.00    +0.015 C 
ATOM     18  C   UNL     1      34.889 -18.608 -23.003  0.00  0.00    +0.137 C 
ATOM     19  C   UNL     1      34.163 -17.334 -25.017  0.00  0.00    +0.035 C 
ATOM     20  C   UNL     1      35.446 -17.497 -20.932  0.00  0.00    +0.004 C 
ATOM     21  C   UNL     1      35.308 -18.670 -21.674  0.00  0.00    +0.029 C 
ENDBRANCH  10  15
ENDBRANCH   5   9
BRANCH   2  22
ATOM     22  S   UNL     1      31.578  -8.564 -22.066  0.00  0.00    +0.009 S 
ATOM     23  O   UNL     1      30.434  -8.955 -22.868  0.00  0.00    -0.169 OA
ATOM     24  O   UNL     1      31.609  -8.843 -20.642  0.00  0.00    -0.169 OA
BRANCH  22  26
ATOM     25  N   UNL     1      31.911  -4.652 -21.083  0.00  0.00    +0.385 N 
ATOM     26  C   UNL     1      31.844  -6.824 -22.275  0.00  0.00    +0.113 C 
ATOM     27  C   UNL     1      30.864  -6.253 -23.298  0.00  0.00    +0.020 C 
ATOM     28  C   UNL     1      31.727  -6.098 -20.935  0.00  0.00    -0.057 C 
ATOM     29  C   UNL     1      31.007  -4.736 -23.389  0.00  0.00    -0.022 C 
ATOM     30  C   UNL     1      30.924  -4.090 -22.007  0.00  0.00    -0.082 C 
ATOM     31  H   UNL     1      32.848  -4.471 -21.444  0.00  0.00    -0.084 HD
ATOM     32  H   UNL     1      31.790  -4.213 -20.171  0.00  0.00    -0.084 HD
ENDBRANCH  22  26
ENDBRANCH   2  22
BRANCH   3  33
ATOM     33  O   UNL     1      31.973 -11.452 -22.596  0.00  0.00    -0.503 OA
ATOM     34  H   UNL     1      31.142 -11.052 -22.425  0.00  0.00    +0.292 HD
ENDBRANCH   3  33
TORSDOF 5
ENDMDL
MODEL 9
REMARK VINA RESULT:      -8.6      2.312      3.513
REMARK  Name = 24780598
REMARK  5 active torsions:
REMARK  status: ('A' for Active; 'I' for Inactive)
REMARK    1  A    between atoms: C_2  and  S_22
REMARK    2  A    between atoms: C_3  and  O_33
REMARK    3  A    between atoms: C_5  and  N_9
REMARK    4  A    between atoms: N_10  and  C_15
REMARK    5  A    between atoms: S_22  and  C_26
REMARK                            x       y       z     vdW  Elec       q    Type
REMARK                         _______ _______ _______ _____ _____    ______ ____
ROOT
ATOM      1 CL   UNL     1      30.515  -7.722 -22.877  0.00  0.00    -0.081 Cl
ATOM      2  C   UNL     1      32.926  -8.942 -23.296  0.00  0.00    +0.151 C 
ATOM      3  C   UNL     1      33.759 -10.062 -23.314  0.00  0.00    +0.165 C 
ATOM      4  C   UNL     1      31.590  -9.074 -22.920  0.00  0.00    +0.078 C 
ATOM      5  C   UNL     1      33.254 -11.311 -22.956  0.00  0.00    +0.087 C 
ATOM      6  C   UNL     1      31.085 -10.323 -22.561  0.00  0.00    +0.014 C 
ATOM      7  C   UNL     1      31.918 -11.443 -22.579  0.00  0.00    +0.019 C 
ENDROOT
BRANCH   5   9
ATOM      8  O   UNL     1      32.691 -14.110 -22.075  0.00  0.00    -0.252 OA
ATOM      9  N   UNL     1      34.073 -12.444 -22.971  0.00  0.00    -0.266 N 
ATOM     10  N   UNL     1      34.881 -14.593 -22.736  0.00  0.00    -0.268 N 
ATOM     11  C   UNL     1      33.769 -13.759 -22.544  0.00  0.00    +0.308 C 
ATOM     12  H   UNL     1      34.981 -12.310 -23.327  0.00  0.00    +0.157 HD
ATOM     13  H   UNL     1      35.680 -14.166 -23.124  0.00  0.00    +0.156 HD
BRANCH  10  15
ATOM     14  F   UNL     1      34.740 -19.222 -24.064  0.00  0.00    -0.204 F 
ATOM     15  C   UNL     1      34.997 -15.972 -22.441  0.00  0.00    +0.050 C 
ATOM     16  C   UNL     1      34.803 -16.935 -23.431  0.00  0.00    +0.019 C 
ATOM     17  C   UNL     1      35.310 -16.363 -21.138  0.00  0.00    +0.015 C 
ATOM     18  C   UNL     1      34.922 -18.290 -23.119  0.00  0.00    +0.137 C 
ATOM     19  C   UNL     1      34.467 -16.540 -24.833  0.00  0.00    +0.035 C 
ATOM     20  C   UNL     1      35.429 -17.717 -20.827  0.00  0.00    +0.004 C 
ATOM     21  C   UNL     1      35.235 -18.681 -21.817  0.00  0.00    +0.029 C 
ENDBRANCH  10  15
ENDBRANCH   5   9
BRANCH   2  22
ATOM     22  S   UNL     1      33.596  -7.372 -23.751  0.00  0.00    +0.009 S 
ATOM     23  O   UNL     1      34.855  -7.224 -23.047  0.00  0.00    -0.169 OA
ATOM     24  O   UNL     1      33.542  -7.260 -25.196  0.00  0.00    -0.169 OA
BRANCH  22  26
ATOM     25  N   UNL     1      31.393  -3.991 -23.445  0.00  0.00    +0.385 N 
ATOM     26  C   UNL     1      32.438  -6.209 -23.082  0.00  0.00    +0.113 C 
ATOM     27  C   UNL     1      32.843  -5.806 -21.665  0.00  0.00    +0.020 C 
ATOM     28  C   UNL     1      32.320  -4.985 -23.990  0.00  0.00    -0.057 C 
ATOM     29  C   UNL     1      31.919  -4.713 -21.133  0.00  0.00    -0.022 C 
ATOM     30  C   UNL     1      31.821  -3.548 -22.116  0.00  0.00    -0.082 C 
ATOM     31  H   UNL     1      30.463  -4.406 -23.376  0.00  0.00    -0.084 HD
ATOM     32  H   UNL     1      31.376  -3.184 -24.068  0.00  0.00    -0.084 HD
ENDBRANCH  22  26
ENDBRANCH   2  22
BRANCH   3  33
ATOM     33  O   UNL     1      35.069  -9.941 -23.680  0.00  0.00    -0.503 OA
ATOM     34  H   UNL     1      35.308  -9.373 -24.386  0.00  0.00    +0.292 HD
ENDBRANCH   3  33
TORSDOF 5
ENDMDL
