MODEL 1
REMARK VINA RESULT:     -12.0      0.000      0.000
REMARK  Name = 59568713
REMARK  8 active torsions:
REMARK  status: ('A' for Active; 'I' for Inactive)
REMARK    1  A    between atoms: N_1  and  C_9
REMARK    2  A    between atoms: N_2  and  C_24
REMARK    3  A    between atoms: C_9  and  C_10
REMARK    4  A    between atoms: C_10  and  C_13
REMARK    5  A    between atoms: C_10  and  O_22
REMARK    6  A    between atoms: C_24  and  C_25
REMARK    7  A    between atoms: C_25  and  C_28
REMARK    8  A    between atoms: C_25  and  O_37
REMARK                            x       y       z     vdW  Elec       q    Type
REMARK                         _______ _______ _______ _____ _____    ______ ____
ROOT
ATOM      1  N   UNL     1      33.409 -13.389 -22.247  0.00  0.00    +0.386 N 
ATOM      2  N   UNL     1      34.523 -16.003 -21.715  0.00  0.00    +0.386 N 
ATOM      3  C   UNL     1      34.925 -15.228 -22.896  0.00  0.00    -0.101 C 
ATOM      4  C   UNL     1      34.131 -15.106 -20.622  0.00  0.00    -0.101 C 
ATOM      5  C   UNL     1      33.801 -14.287 -23.339  0.00  0.00    -0.101 C 
ATOM      6  C   UNL     1      33.007 -14.163 -21.066  0.00  0.00    -0.101 C 
ATOM      7  H   UNL     1      34.214 -12.816 -21.996  0.00  0.00    -0.080 HD
ATOM      8  H   UNL     1      33.715 -16.575 -21.966  0.00  0.00    -0.080 HD
ENDROOT
BRANCH   1   9
ATOM      9  C   UNL     1      32.334 -12.494 -22.671  0.00  0.00    -0.043 C 
BRANCH   9  10
ATOM     10  C   UNL     1      31.899 -11.579 -21.519  0.00  0.00    +0.112 C 
BRANCH  10  13
ATOM     11  O   UNL     1      32.711  -5.586 -21.307  0.00  0.00    -0.440 OA
ATOM     12  O   UNL     1      33.038  -5.416 -23.591  0.00  0.00    -0.245 OA
ATOM     13  C   UNL     1      32.148 -10.122 -21.844  0.00  0.00    -0.002 C 
ATOM     14  C   UNL     1      32.149  -9.156 -20.833  0.00  0.00    -0.024 C 
ATOM     15  C   UNL     1      32.380  -7.839 -21.186  0.00  0.00    +0.023 C 
ATOM     16  C   UNL     1      32.376  -9.761 -23.183  0.00  0.00    -0.002 C 
ATOM     17  C   UNL     1      32.602  -7.498 -22.505  0.00  0.00    +0.075 C 
ATOM     18  C   UNL     1      32.608  -8.429 -23.527  0.00  0.00    +0.006 C 
ATOM     19  C   UNL     1      32.438  -6.632 -20.342  0.00  0.00    +0.235 C 
ATOM     20  C   UNL     1      31.907  -9.526 -19.409  0.00  0.00    +0.031 C 
ATOM     21  C   UNL     1      32.815  -6.061 -22.587  0.00  0.00    +0.341 C 
ENDBRANCH  10  13
BRANCH  10  22
ATOM     22  O   UNL     1      30.507 -11.746 -21.253  0.00  0.00    -0.382 OA
ATOM     23  H   UNL     1      29.993 -11.448 -22.020  0.00  0.00    +0.211 HD
ENDBRANCH  10  22
ENDBRANCH   9  10
ENDBRANCH   1   9
BRANCH   2  24
ATOM     24  C   UNL     1      35.596 -16.900 -21.292  0.00  0.00    -0.043 C 
BRANCH  24  25
ATOM     25  C   UNL     1      35.471 -18.264 -21.982  0.00  0.00    +0.112 C 
BRANCH  25  28
ATOM     26  O   UNL     1      34.990 -22.607 -17.795  0.00  0.00    -0.440 OA
ATOM     27  O   UNL     1      32.695 -22.777 -18.044  0.00  0.00    -0.245 OA
ATOM     28  C   UNL     1      34.979 -19.327 -21.024  0.00  0.00    -0.002 C 
ATOM     29  C   UNL     1      35.874 -20.008 -20.193  0.00  0.00    -0.024 C 
ATOM     30  C   UNL     1      35.370 -20.970 -19.337  0.00  0.00    +0.023 C 
ATOM     31  C   UNL     1      33.603 -19.616 -20.988  0.00  0.00    -0.002 C 
ATOM     32  C   UNL     1      34.018 -21.244 -19.311  0.00  0.00    +0.075 C 
ATOM     33  C   UNL     1      33.107 -20.590 -20.120  0.00  0.00    +0.006 C 
ATOM     34  C   UNL     1      36.070 -21.828 -18.366  0.00  0.00    +0.235 C 
ATOM     35  C   UNL     1      37.334 -19.711 -20.222  0.00  0.00    +0.031 C 
ATOM     36  C   UNL     1      33.769 -22.288 -18.330  0.00  0.00    +0.341 C 
ENDBRANCH  25  28
BRANCH  25  37
ATOM     37  O   UNL     1      34.552 -18.185 -23.071  0.00  0.00    -0.382 OA
ATOM     38  H   UNL     1      34.392 -19.074 -23.423  0.00  0.00    +0.211 HD
ENDBRANCH  25  37
ENDBRANCH  24  25
ENDBRANCH   2  24
TORSDOF 8
ENDMDL
MODEL 2
REMARK VINA RESULT:     -12.0      0.039     11.728
REMARK  Name = 59568713
REMARK  8 active torsions:
REMARK  status: ('A' for Active; 'I' for Inactive)
REMARK    1  A    between atoms: N_1  and  C_9
REMARK    2  A    between atoms: N_2  and  C_24
REMARK    3  A    between atoms: C_9  and  C_10
REMARK    4  A    between atoms: C_10  and  C_13
REMARK    5  A    between atoms: C_10  and  O_22
REMARK    6  A    between atoms: C_24  and  C_25
REMARK    7  A    between atoms: C_25  and  C_28
REMARK    8  A    between atoms: C_25  and  O_37
REMARK                            x       y       z     vdW  Elec       q    Type
REMARK                         _______ _______ _______ _____ _____    ______ ____
ROOT
ATOM      1  N   UNL     1      34.537 -16.002 -21.760  0.00  0.00    +0.386 N 
ATOM      2  N   UNL     1      33.409 -13.392 -22.282  0.00  0.00    +0.386 N 
ATOM      3  C   UNL     1      33.794 -14.289 -23.378  0.00  0.00    -0.101 C 
ATOM      4  C   UNL     1      33.019 -14.167 -21.099  0.00  0.00    -0.101 C 
ATOM      5  C   UNL     1      34.926 -15.226 -22.944  0.00  0.00    -0.101 C 
ATOM      6  C   UNL     1      34.151 -15.105 -20.664  0.00  0.00    -0.101 C 
ATOM      7  H   UNL     1      33.731 -16.577 -22.003  0.00  0.00    -0.080 HD
ATOM      8  H   UNL     1      34.216 -12.817 -22.038  0.00  0.00    -0.080 HD
ENDROOT
BRANCH   1   9
ATOM      9  C   UNL     1      35.619 -16.893 -21.345  0.00  0.00    -0.043 C 
BRANCH   9  10
ATOM     10  C   UNL     1      35.492 -18.261 -22.027  0.00  0.00    +0.112 C 
BRANCH  10  13
ATOM     11  O   UNL     1      34.983 -22.584 -17.823  0.00  0.00    -0.440 OA
ATOM     12  O   UNL     1      32.687 -22.738 -18.068  0.00  0.00    -0.245 OA
ATOM     13  C   UNL     1      34.992 -19.316 -21.065  0.00  0.00    -0.002 C 
ATOM     14  C   UNL     1      35.884 -20.000 -20.232  0.00  0.00    -0.024 C 
ATOM     15  C   UNL     1      35.374 -20.955 -19.371  0.00  0.00    +0.023 C 
ATOM     16  C   UNL     1      33.616 -19.595 -21.026  0.00  0.00    -0.002 C 
ATOM     17  C   UNL     1      34.019 -21.219 -19.344  0.00  0.00    +0.075 C 
ATOM     18  C   UNL     1      33.113 -20.561 -20.154  0.00  0.00    +0.006 C 
ATOM     19  C   UNL     1      36.069 -21.814 -18.397  0.00  0.00    +0.235 C 
ATOM     20  C   UNL     1      37.347 -19.714 -20.263  0.00  0.00    +0.031 C 
ATOM     21  C   UNL     1      33.765 -22.258 -18.358  0.00  0.00    +0.341 C 
ENDBRANCH  10  13
BRANCH  10  22
ATOM     22  O   UNL     1      34.577 -18.185 -23.120  0.00  0.00    -0.382 OA
ATOM     23  H   UNL     1      33.716 -17.875 -22.801  0.00  0.00    +0.211 HD
ENDBRANCH  10  22
ENDBRANCH   9  10
ENDBRANCH   1   9
BRANCH   2  24
ATOM     24  C   UNL     1      32.329 -12.499 -22.697  0.00  0.00    -0.043 C 
BRANCH  24  25
ATOM     25  C   UNL     1      31.905 -11.583 -21.542  0.00  0.00    +0.112 C 
BRANCH  25  28
ATOM     26  O   UNL     1      32.734  -5.592 -21.335  0.00  0.00    -0.440 OA
ATOM     27  O   UNL     1      33.049  -5.423 -23.621  0.00  0.00    -0.245 OA
ATOM     28  C   UNL     1      32.155 -10.127 -21.869  0.00  0.00    -0.002 C 
ATOM     29  C   UNL     1      32.164  -9.161 -20.858  0.00  0.00    -0.024 C 
ATOM     30  C   UNL     1      32.398  -7.845 -21.213  0.00  0.00    +0.023 C 
ATOM     31  C   UNL     1      32.377  -9.766 -23.210  0.00  0.00    -0.002 C 
ATOM     32  C   UNL     1      32.614  -7.504 -22.532  0.00  0.00    +0.075 C 
ATOM     33  C   UNL     1      32.611  -8.434 -23.554  0.00  0.00    +0.006 C 
ATOM     34  C   UNL     1      32.463  -6.638 -20.369  0.00  0.00    +0.235 C 
ATOM     35  C   UNL     1      31.929  -9.530 -19.433  0.00  0.00    +0.031 C 
ATOM     36  C   UNL     1      32.829  -6.068 -22.616  0.00  0.00    +0.341 C 
ENDBRANCH  25  28
BRANCH  25  37
ATOM     37  O   UNL     1      30.513 -11.745 -21.268  0.00  0.00    -0.382 OA
ATOM     38  H   UNL     1      29.999 -11.172 -21.858  0.00  0.00    +0.211 HD
ENDBRANCH  25  37
ENDBRANCH  24  25
ENDBRANCH   2  24
TORSDOF 8
ENDMDL
MODEL 3
REMARK VINA RESULT:     -11.2      1.977     11.353
REMARK  Name = 59568713
REMARK  8 active torsions:
REMARK  status: ('A' for Active; 'I' for Inactive)
REMARK    1  A    between atoms: N_1  and  C_9
REMARK    2  A    between atoms: N_2  and  C_24
REMARK    3  A    between atoms: C_9  and  C_10
REMARK    4  A    between atoms: C_10  and  C_13
REMARK    5  A    between atoms: C_10  and  O_22
REMARK    6  A    between atoms: C_24  and  C_25
REMARK    7  A    between atoms: C_25  and  C_28
REMARK    8  A    between atoms: C_25  and  O_37
REMARK                            x       y       z     vdW  Elec       q    Type
REMARK                         _______ _______ _______ _____ _____    ______ ____
ROOT
ATOM      1  N   UNL     1      34.890 -18.588 -21.826  0.00  0.00    +0.386 N 
ATOM      2  N   UNL     1      35.369 -15.934 -22.869  0.00  0.00    +0.386 N 
ATOM      3  C   UNL     1      34.640 -16.941 -23.651  0.00  0.00    -0.101 C 
ATOM      4  C   UNL     1      35.178 -16.165 -21.432  0.00  0.00    -0.101 C 
ATOM      5  C   UNL     1      35.081 -18.356 -23.263  0.00  0.00    -0.101 C 
ATOM      6  C   UNL     1      35.617 -17.582 -21.044  0.00  0.00    -0.101 C 
ATOM      7  H   UNL     1      33.896 -18.502 -21.616  0.00  0.00    -0.080 HD
ATOM      8  H   UNL     1      36.364 -16.023 -23.078  0.00  0.00    -0.080 HD
ENDROOT
BRANCH   1   9
ATOM      9  C   UNL     1      35.314 -19.938 -21.458  0.00  0.00    -0.043 C 
BRANCH   9  10
ATOM     10  C   UNL     1      34.291 -20.594 -20.521  0.00  0.00    +0.112 C 
BRANCH  10  13
ATOM     11  O   UNL     1      35.547 -23.421 -15.320  0.00  0.00    -0.440 OA
ATOM     12  O   UNL     1      37.752 -22.719 -15.318  0.00  0.00    -0.245 OA
ATOM     13  C   UNL     1      34.954 -21.153 -19.282  0.00  0.00    -0.002 C 
ATOM     14  C   UNL     1      34.230 -21.942 -18.381  0.00  0.00    -0.024 C 
ATOM     15  C   UNL     1      34.885 -22.427 -17.264  0.00  0.00    +0.023 C 
ATOM     16  C   UNL     1      36.309 -20.863 -19.054  0.00  0.00    -0.002 C 
ATOM     17  C   UNL     1      36.217 -22.134 -17.052  0.00  0.00    +0.075 C 
ATOM     18  C   UNL     1      36.959 -21.357 -17.922  0.00  0.00    +0.006 C 
ATOM     19  C   UNL     1      34.379 -23.270 -16.166  0.00  0.00    +0.235 C 
ATOM     20  C   UNL     1      32.791 -22.258 -18.611  0.00  0.00    +0.031 C 
ATOM     21  C   UNL     1      36.644 -22.766 -15.813  0.00  0.00    +0.341 C 
ENDBRANCH  10  13
BRANCH  10  22
ATOM     22  O   UNL     1      33.312 -19.640 -20.112  0.00  0.00    -0.382 OA
ATOM     23  H   UNL     1      33.335 -19.545 -19.148  0.00  0.00    +0.211 HD
ENDBRANCH  10  22
ENDBRANCH   9  10
ENDBRANCH   1   9
BRANCH   2  24
ATOM     24  C   UNL     1      34.948 -14.585 -23.238  0.00  0.00    -0.043 C 
BRANCH  24  25
ATOM     25  C   UNL     1      33.419 -14.464 -23.211  0.00  0.00    +0.112 C 
BRANCH  25  28
ATOM     26  O   UNL     1      31.293  -9.658 -20.209  0.00  0.00    -0.440 OA
ATOM     27  O   UNL     1      31.702  -8.211 -21.969  0.00  0.00    -0.245 OA
ATOM     28  C   UNL     1      32.981 -13.079 -22.784  0.00  0.00    -0.002 C 
ATOM     29  C   UNL     1      32.436 -12.863 -21.514  0.00  0.00    -0.024 C 
ATOM     30  C   UNL     1      32.052 -11.579 -21.177  0.00  0.00    +0.023 C 
ATOM     31  C   UNL     1      33.130 -12.016 -23.692  0.00  0.00    -0.002 C 
ATOM     32  C   UNL     1      32.204 -10.544 -22.077  0.00  0.00    +0.075 C 
ATOM     33  C   UNL     1      32.737 -10.724 -23.339  0.00  0.00    +0.006 C 
ATOM     34  C   UNL     1      31.459 -11.070 -19.927  0.00  0.00    +0.235 C 
ATOM     35  C   UNL     1      32.272 -13.982 -20.543  0.00  0.00    +0.031 C 
ATOM     36  C   UNL     1      31.721  -9.316 -21.465  0.00  0.00    +0.341 C 
ENDBRANCH  25  28
BRANCH  25  37
ATOM     37  O   UNL     1      32.879 -14.723 -24.507  0.00  0.00    -0.382 OA
ATOM     38  H   UNL     1      32.145 -14.113 -24.678  0.00  0.00    +0.211 HD
ENDBRANCH  25  37
ENDBRANCH  24  25
ENDBRANCH   2  24
TORSDOF 8
ENDMDL
MODEL 4
REMARK VINA RESULT:     -11.1      2.828      4.803
REMARK  Name = 59568713
REMARK  8 active torsions:
REMARK  status: ('A' for Active; 'I' for Inactive)
REMARK    1  A    between atoms: N_1  and  C_9
REMARK    2  A    between atoms: N_2  and  C_24
REMARK    3  A    between atoms: C_9  and  C_10
REMARK    4  A    between atoms: C_10  and  C_13
REMARK    5  A    between atoms: C_10  and  O_22
REMARK    6  A    between atoms: C_24  and  C_25
REMARK    7  A    between atoms: C_25  and  C_28
REMARK    8  A    between atoms: C_25  and  O_37
REMARK                            x       y       z     vdW  Elec       q    Type
REMARK                         _______ _______ _______ _____ _____    ______ ____
ROOT
ATOM      1  N   UNL     1      31.636  -9.773 -20.458  0.00  0.00    +0.386 N 
ATOM      2  N   UNL     1      32.650 -12.107 -21.829  0.00  0.00    +0.386 N 
ATOM      3  C   UNL     1      31.947 -12.222 -20.546  0.00  0.00    -0.101 C 
ATOM      4  C   UNL     1      32.172 -10.936 -22.572  0.00  0.00    -0.101 C 
ATOM      5  C   UNL     1      32.114 -10.945 -19.716  0.00  0.00    -0.101 C 
ATOM      6  C   UNL     1      32.338  -9.658 -21.742  0.00  0.00    -0.101 C 
ATOM      7  H   UNL     1      30.641  -9.895 -20.646  0.00  0.00    -0.080 HD
ATOM      8  H   UNL     1      33.646 -11.983 -21.640  0.00  0.00    -0.080 HD
ENDROOT
BRANCH   1   9
ATOM      9  C   UNL     1      31.799  -8.555 -19.666  0.00  0.00    -0.043 C 
BRANCH   9  10
ATOM     10  C   UNL     1      32.918  -7.677 -20.241  0.00  0.00    +0.112 C 
BRANCH  10  13
ATOM     11  O   UNL     1      32.053  -3.840 -24.840  0.00  0.00    -0.440 OA
ATOM     12  O   UNL     1      30.002  -3.130 -24.036  0.00  0.00    -0.245 OA
ATOM     13  C   UNL     1      32.374  -6.646 -21.206  0.00  0.00    -0.002 C 
ATOM     14  C   UNL     1      33.099  -6.284 -22.345  0.00  0.00    -0.024 C 
ATOM     15  C   UNL     1      32.555  -5.336 -23.193  0.00  0.00    +0.023 C 
ATOM     16  C   UNL     1      31.126  -6.061 -20.932  0.00  0.00    -0.002 C 
ATOM     17  C   UNL     1      31.329  -4.768 -22.912  0.00  0.00    +0.075 C 
ATOM     18  C   UNL     1      30.587  -5.105 -21.794  0.00  0.00    +0.006 C 
ATOM     19  C   UNL     1      33.089  -4.773 -24.446  0.00  0.00    +0.235 C 
ATOM     20  C   UNL     1      34.424  -6.897 -22.647  0.00  0.00    +0.031 C 
ATOM     21  C   UNL     1      31.004  -3.813 -23.960  0.00  0.00    +0.341 C 
ENDBRANCH  10  13
BRANCH  10  22
ATOM     22  O   UNL     1      33.596  -6.990 -19.190  0.00  0.00    -0.382 OA
ATOM     23  H   UNL     1      34.027  -6.198 -19.545  0.00  0.00    +0.211 HD
ENDBRANCH  10  22
ENDBRANCH   9  10
ENDBRANCH   1   9
BRANCH   2  24
ATOM     24  C   UNL     1      32.490 -13.325 -22.621  0.00  0.00    -0.043 C 
BRANCH  24  25
ATOM     25  C   UNL     1      33.756 -13.616 -23.437  0.00  0.00    +0.112 C 
BRANCH  25  28
ATOM     26  O   UNL     1      35.682 -19.085 -21.703  0.00  0.00    -0.440 OA
ATOM     27  O   UNL     1      35.230 -20.043 -23.761  0.00  0.00    -0.245 OA
ATOM     28  C   UNL     1      34.139 -15.078 -23.362  0.00  0.00    -0.002 C 
ATOM     29  C   UNL     1      34.667 -15.617 -22.184  0.00  0.00    -0.024 C 
ATOM     30  C   UNL     1      35.002 -16.959 -22.171  0.00  0.00    +0.023 C 
ATOM     31  C   UNL     1      33.956 -15.882 -24.501  0.00  0.00    -0.002 C 
ATOM     32  C   UNL     1      34.817 -17.736 -23.296  0.00  0.00    +0.075 C 
ATOM     33  C   UNL     1      34.298 -17.234 -24.475  0.00  0.00    +0.006 C 
ATOM     34  C   UNL     1      35.567 -17.778 -21.086  0.00  0.00    +0.235 C 
ATOM     35  C   UNL     1      34.868 -14.775 -20.970  0.00  0.00    +0.031 C 
ATOM     36  C   UNL     1      35.250 -19.094 -23.004  0.00  0.00    +0.341 C 
ENDBRANCH  25  28
BRANCH  25  37
ATOM     37  O   UNL     1      33.548 -13.279 -24.809  0.00  0.00    -0.382 OA
ATOM     38  H   UNL     1      34.242 -13.687 -25.350  0.00  0.00    +0.211 HD
ENDBRANCH  25  37
ENDBRANCH  24  25
ENDBRANCH   2  24
TORSDOF 8
ENDMDL
MODEL 5
REMARK VINA RESULT:     -11.1      3.500     12.200
REMARK  Name = 59568713
REMARK  8 active torsions:
REMARK  status: ('A' for Active; 'I' for Inactive)
REMARK    1  A    between atoms: N_1  and  C_9
REMARK    2  A    between atoms: N_2  and  C_24
REMARK    3  A    between atoms: C_9  and  C_10
REMARK    4  A    between atoms: C_10  and  C_13
REMARK    5  A    between atoms: C_10  and  O_22
REMARK    6  A    between atoms: C_24  and  C_25
REMARK    7  A    between atoms: C_25  and  C_28
REMARK    8  A    between atoms: C_25  and  O_37
REMARK                            x       y       z     vdW  Elec       q    Type
REMARK                         _______ _______ _______ _____ _____    ______ ____
ROOT
ATOM      1  N   UNL     1      33.736 -21.674 -19.100  0.00  0.00    +0.386 N 
ATOM      2  N   UNL     1      34.605 -19.542 -20.850  0.00  0.00    +0.386 N 
ATOM      3  C   UNL     1      35.497 -20.655 -20.502  0.00  0.00    -0.101 C 
ATOM      4  C   UNL     1      33.205 -19.979 -20.820  0.00  0.00    -0.101 C 
ATOM      5  C   UNL     1      35.136 -21.236 -19.131  0.00  0.00    -0.101 C 
ATOM      6  C   UNL     1      32.844 -20.561 -19.448  0.00  0.00    -0.101 C 
ATOM      7  H   UNL     1      33.614 -22.411 -19.794  0.00  0.00    -0.080 HD
ATOM      8  H   UNL     1      34.726 -18.805 -20.154  0.00  0.00    -0.080 HD
ENDROOT
BRANCH   1   9
ATOM      9  C   UNL     1      33.392 -22.224 -17.791  0.00  0.00    -0.043 C 
BRANCH   9  10
ATOM     10  C   UNL     1      34.278 -23.431 -17.457  0.00  0.00    +0.112 C 
BRANCH  10  13
ATOM     11  O   UNL     1      36.703 -23.184 -11.918  0.00  0.00    -0.440 OA
ATOM     12  O   UNL     1      34.841 -24.126 -10.917  0.00  0.00    -0.245 OA
ATOM     13  C   UNL     1      34.549 -23.526 -15.972  0.00  0.00    -0.002 C 
ATOM     14  C   UNL     1      35.764 -23.082 -15.439  0.00  0.00    -0.024 C 
ATOM     15  C   UNL     1      35.960 -23.193 -14.075  0.00  0.00    +0.023 C 
ATOM     16  C   UNL     1      33.556 -24.070 -15.139  0.00  0.00    -0.002 C 
ATOM     17  C   UNL     1      34.976 -23.731 -13.269  0.00  0.00    +0.075 C 
ATOM     18  C   UNL     1      33.766 -24.179 -13.764  0.00  0.00    +0.006 C 
ATOM     19  C   UNL     1      37.123 -22.811 -13.254  0.00  0.00    +0.235 C 
ATOM     20  C   UNL     1      36.826 -22.503 -16.311  0.00  0.00    +0.031 C 
ATOM     21  C   UNL     1      35.445 -23.727 -11.892  0.00  0.00    +0.341 C 
ENDBRANCH  10  13
BRANCH  10  22
ATOM     22  O   UNL     1      33.643 -24.640 -17.873  0.00  0.00    -0.382 OA
ATOM     23  H   UNL     1      34.316 -25.311 -18.063  0.00  0.00    +0.211 HD
ENDBRANCH  10  22
ENDBRANCH   9  10
ENDBRANCH   1   9
BRANCH   2  24
ATOM     24  C   UNL     1      34.949 -18.990 -22.158  0.00  0.00    -0.043 C 
BRANCH  24  25
ATOM     25  C   UNL     1      35.881 -17.780 -22.011  0.00  0.00    +0.112 C 
BRANCH  25  28
ATOM     26  O   UNL     1      32.740 -12.747 -23.209  0.00  0.00    -0.440 OA
ATOM     27  O   UNL     1      32.554 -12.172 -20.975  0.00  0.00    -0.245 OA
ATOM     28  C   UNL     1      35.100 -16.486 -21.929  0.00  0.00    -0.002 C 
ATOM     29  C   UNL     1      34.636 -15.858 -23.089  0.00  0.00    -0.024 C 
ATOM     30  C   UNL     1      33.929 -14.677 -22.956  0.00  0.00    +0.023 C 
ATOM     31  C   UNL     1      34.853 -15.927 -20.662  0.00  0.00    -0.002 C 
ATOM     32  C   UNL     1      33.694 -14.140 -21.708  0.00  0.00    +0.075 C 
ATOM     33  C   UNL     1      34.139 -14.735 -20.542  0.00  0.00    +0.006 C 
ATOM     34  C   UNL     1      33.331 -13.815 -23.991  0.00  0.00    +0.235 C 
ATOM     35  C   UNL     1      34.892 -16.439 -24.438  0.00  0.00    +0.031 C 
ATOM     36  C   UNL     1      32.936 -12.908 -21.862  0.00  0.00    +0.341 C 
ENDBRANCH  25  28
BRANCH  25  37
ATOM     37  O   UNL     1      36.667 -17.902 -20.826  0.00  0.00    -0.382 OA
ATOM     38  H   UNL     1      37.608 -17.875 -21.060  0.00  0.00    +0.211 HD
ENDBRANCH  25  37
ENDBRANCH  24  25
ENDBRANCH   2  24
TORSDOF 8
ENDMDL
MODEL 6
REMARK VINA RESULT:     -11.0      2.807     11.824
REMARK  Name = 59568713
REMARK  8 active torsions:
REMARK  status: ('A' for Active; 'I' for Inactive)
REMARK    1  A    between atoms: N_1  and  C_9
REMARK    2  A    between atoms: N_2  and  C_24
REMARK    3  A    between atoms: C_9  and  C_10
REMARK    4  A    between atoms: C_10  and  C_13
REMARK    5  A    between atoms: C_10  and  O_22
REMARK    6  A    between atoms: C_24  and  C_25
REMARK    7  A    between atoms: C_25  and  C_28
REMARK    8  A    between atoms: C_25  and  O_37
REMARK                            x       y       z     vdW  Elec       q    Type
REMARK                         _______ _______ _______ _____ _____    ______ ____
ROOT
ATOM      1  N   UNL     1      32.659 -12.183 -21.795  0.00  0.00    +0.386 N 
ATOM      2  N   UNL     1      31.604  -9.860 -20.435  0.00  0.00    +0.386 N 
ATOM      3  C   UNL     1      32.087 -11.027 -19.687  0.00  0.00    -0.101 C 
ATOM      4  C   UNL     1      32.319  -9.736 -21.710  0.00  0.00    -0.101 C 
ATOM      5  C   UNL     1      31.944 -12.306 -20.519  0.00  0.00    -0.101 C 
ATOM      6  C   UNL     1      32.177 -11.016 -22.542  0.00  0.00    -0.101 C 
ATOM      7  H   UNL     1      33.650 -12.050 -21.596  0.00  0.00    -0.080 HD
ATOM      8  H   UNL     1      30.612  -9.995 -20.635  0.00  0.00    -0.080 HD
ENDROOT
BRANCH   1   9
ATOM      9  C   UNL     1      32.518 -13.403 -22.588  0.00  0.00    -0.043 C 
BRANCH   9  10
ATOM     10  C   UNL     1      33.799 -13.687 -23.383  0.00  0.00    +0.112 C 
BRANCH  10  13
ATOM     11  O   UNL     1      35.785 -19.118 -21.599  0.00  0.00    -0.440 OA
ATOM     12  O   UNL     1      35.319 -20.106 -23.640  0.00  0.00    -0.245 OA
ATOM     13  C   UNL     1      34.195 -15.145 -23.293  0.00  0.00    -0.002 C 
ATOM     14  C   UNL     1      34.738 -15.664 -22.114  0.00  0.00    -0.024 C 
ATOM     15  C   UNL     1      35.083 -17.003 -22.087  0.00  0.00    +0.023 C 
ATOM     16  C   UNL     1      34.006 -15.964 -24.419  0.00  0.00    -0.002 C 
ATOM     17  C   UNL     1      34.893 -17.797 -23.200  0.00  0.00    +0.075 C 
ATOM     18  C   UNL     1      34.359 -17.314 -24.380  0.00  0.00    +0.006 C 
ATOM     19  C   UNL     1      35.665 -17.806 -20.996  0.00  0.00    +0.235 C 
ATOM     20  C   UNL     1      34.944 -14.806 -20.913  0.00  0.00    +0.031 C 
ATOM     21  C   UNL     1      35.339 -19.147 -22.894  0.00  0.00    +0.341 C 
ENDBRANCH  10  13
BRANCH  10  22
ATOM     22  O   UNL     1      33.609 -13.360 -24.759  0.00  0.00    -0.382 OA
ATOM     23  H   UNL     1      32.898 -13.907 -25.127  0.00  0.00    +0.211 HD
ENDBRANCH  10  22
ENDBRANCH   9  10
ENDBRANCH   1   9
BRANCH   2  24
ATOM     24  C   UNL     1      31.742  -8.641 -19.642  0.00  0.00    -0.043 C 
BRANCH  24  25
ATOM     25  C   UNL     1      32.873  -7.760 -20.188  0.00  0.00    +0.112 C 
BRANCH  25  28
ATOM     26  O   UNL     1      32.155  -4.065 -24.927  0.00  0.00    -0.440 OA
ATOM     27  O   UNL     1      30.069  -3.351 -24.223  0.00  0.00    -0.245 OA
ATOM     28  C   UNL     1      32.358  -6.763 -21.203  0.00  0.00    -0.002 C 
ATOM     29  C   UNL     1      33.123  -6.426 -22.324  0.00  0.00    -0.024 C 
ATOM     30  C   UNL     1      32.605  -5.508 -23.219  0.00  0.00    +0.023 C 
ATOM     31  C   UNL     1      31.095  -6.180 -20.994  0.00  0.00    -0.002 C 
ATOM     32  C   UNL     1      31.364  -4.944 -23.002  0.00  0.00    +0.075 C 
ATOM     33  C   UNL     1      30.584  -5.254 -21.904  0.00  0.00    +0.006 C 
ATOM     34  C   UNL     1      33.182  -4.978 -24.466  0.00  0.00    +0.235 C 
ATOM     35  C   UNL     1      34.463  -7.036 -22.557  0.00  0.00    +0.031 C 
ATOM     36  C   UNL     1      31.072  -4.022 -24.089  0.00  0.00    +0.341 C 
ENDBRANCH  25  28
BRANCH  25  37
ATOM     37  O   UNL     1      33.492  -7.036 -19.125  0.00  0.00    -0.382 OA
ATOM     38  H   UNL     1      33.029  -6.193 -18.996  0.00  0.00    +0.211 HD
ENDBRANCH  25  37
ENDBRANCH  24  25
ENDBRANCH   2  24
TORSDOF 8
ENDMDL
MODEL 7
REMARK VINA RESULT:     -11.0      3.528      7.010
REMARK  Name = 59568713
REMARK  8 active torsions:
REMARK  status: ('A' for Active; 'I' for Inactive)
REMARK    1  A    between atoms: N_1  and  C_9
REMARK    2  A    between atoms: N_2  and  C_24
REMARK    3  A    between atoms: C_9  and  C_10
REMARK    4  A    between atoms: C_10  and  C_13
REMARK    5  A    between atoms: C_10  and  O_22
REMARK    6  A    between atoms: C_24  and  C_25
REMARK    7  A    between atoms: C_25  and  C_28
REMARK    8  A    between atoms: C_25  and  O_37
REMARK                            x       y       z     vdW  Elec       q    Type
REMARK                         _______ _______ _______ _____ _____    ______ ____
ROOT
ATOM      1  N   UNL     1      34.642 -19.565 -20.855  0.00  0.00    +0.386 N 
ATOM      2  N   UNL     1      33.789 -21.678 -19.075  0.00  0.00    +0.386 N 
ATOM      3  C   UNL     1      35.185 -21.224 -19.107  0.00  0.00    -0.101 C 
ATOM      4  C   UNL     1      32.886 -20.582 -19.444  0.00  0.00    -0.101 C 
ATOM      5  C   UNL     1      35.544 -20.662 -20.486  0.00  0.00    -0.101 C 
ATOM      6  C   UNL     1      33.246 -20.017 -20.823  0.00  0.00    -0.101 C 
ATOM      7  H   UNL     1      34.752 -18.815 -20.174  0.00  0.00    -0.080 HD
ATOM      8  H   UNL     1      33.679 -22.428 -19.759  0.00  0.00    -0.080 HD
ENDROOT
BRANCH   1   9
ATOM      9  C   UNL     1      34.984 -19.032 -22.172  0.00  0.00    -0.043 C 
BRANCH   9  10
ATOM     10  C   UNL     1      35.911 -17.816 -22.045  0.00  0.00    +0.112 C 
BRANCH  10  13
ATOM     11  O   UNL     1      32.732 -12.799 -23.202  0.00  0.00    -0.440 OA
ATOM     12  O   UNL     1      32.568 -12.227 -20.966  0.00  0.00    -0.245 OA
ATOM     13  C   UNL     1      35.126 -16.527 -21.953  0.00  0.00    -0.002 C 
ATOM     14  C   UNL     1      34.645 -15.901 -23.107  0.00  0.00    -0.024 C 
ATOM     15  C   UNL     1      33.933 -14.724 -22.965  0.00  0.00    +0.023 C 
ATOM     16  C   UNL     1      34.890 -15.971 -20.684  0.00  0.00    -0.002 C 
ATOM     17  C   UNL     1      33.710 -14.188 -21.713  0.00  0.00    +0.075 C 
ATOM     18  C   UNL     1      34.171 -14.782 -20.553  0.00  0.00    +0.006 C 
ATOM     19  C   UNL     1      33.318 -13.863 -23.992  0.00  0.00    +0.235 C 
ATOM     20  C   UNL     1      34.888 -16.480 -24.460  0.00  0.00    +0.031 C 
ATOM     21  C   UNL     1      32.944 -12.961 -21.858  0.00  0.00    +0.341 C 
ENDBRANCH  10  13
BRANCH  10  22
ATOM     22  O   UNL     1      36.719 -17.932 -20.874  0.00  0.00    -0.382 OA
ATOM     23  H   UNL     1      37.654 -17.848 -21.116  0.00  0.00    +0.211 HD
ENDBRANCH  10  22
ENDBRANCH   9  10
ENDBRANCH   1   9
BRANCH   2  24
ATOM     24  C   UNL     1      33.446 -22.213 -17.760  0.00  0.00    -0.043 C 
BRANCH  24  25
ATOM     25  C   UNL     1      34.301 -23.444 -17.432  0.00  0.00    +0.112 C 
BRANCH  25  28
ATOM     26  O   UNL     1      36.730 -23.261 -11.892  0.00  0.00    -0.440 OA
ATOM     27  O   UNL     1      34.856 -24.183 -10.895  0.00  0.00    -0.245 OA
ATOM     28  C   UNL     1      34.571 -23.551 -15.947  0.00  0.00    -0.002 C 
ATOM     29  C   UNL     1      35.792 -23.127 -15.412  0.00  0.00    -0.024 C 
ATOM     30  C   UNL     1      35.986 -23.248 -14.048  0.00  0.00    +0.023 C 
ATOM     31  C   UNL     1      33.571 -24.087 -15.117  0.00  0.00    -0.002 C 
ATOM     32  C   UNL     1      34.996 -23.776 -13.245  0.00  0.00    +0.075 C 
ATOM     33  C   UNL     1      33.779 -24.205 -13.742  0.00  0.00    +0.006 C 
ATOM     34  C   UNL     1      37.154 -22.887 -13.227  0.00  0.00    +0.235 C 
ATOM     35  C   UNL     1      36.861 -22.558 -16.281  0.00  0.00    +0.031 C 
ATOM     36  C   UNL     1      35.465 -23.787 -11.868  0.00  0.00    +0.341 C 
ENDBRANCH  25  28
BRANCH  25  37
ATOM     37  O   UNL     1      33.635 -24.635 -17.851  0.00  0.00    -0.382 OA
ATOM     38  H   UNL     1      33.860 -24.823 -18.775  0.00  0.00    +0.211 HD
ENDBRANCH  25  37
ENDBRANCH  24  25
ENDBRANCH   2  24
TORSDOF 8
ENDMDL
MODEL 8
REMARK VINA RESULT:     -10.9      1.306      2.137
REMARK  Name = 59568713
REMARK  8 active torsions:
REMARK  status: ('A' for Active; 'I' for Inactive)
REMARK    1  A    between atoms: N_1  and  C_9
REMARK    2  A    between atoms: N_2  and  C_24
REMARK    3  A    between atoms: C_9  and  C_10
REMARK    4  A    between atoms: C_10  and  C_13
REMARK    5  A    between atoms: C_10  and  O_22
REMARK    6  A    between atoms: C_24  and  C_25
REMARK    7  A    between atoms: C_25  and  C_28
REMARK    8  A    between atoms: C_25  and  O_37
REMARK                            x       y       z     vdW  Elec       q    Type
REMARK                         _______ _______ _______ _____ _____    ______ ____
ROOT
ATOM      1  N   UNL     1      33.927 -14.615 -22.796  0.00  0.00    +0.386 N 
ATOM      2  N   UNL     1      35.642 -16.938 -22.641  0.00  0.00    +0.386 N 
ATOM      3  C   UNL     1      35.112 -16.299 -21.430  0.00  0.00    -0.101 C 
ATOM      4  C   UNL     1      34.721 -16.744 -23.767  0.00  0.00    -0.101 C 
ATOM      5  C   UNL     1      34.848 -14.809 -21.669  0.00  0.00    -0.101 C 
ATOM      6  C   UNL     1      34.457 -15.254 -24.006  0.00  0.00    -0.101 C 
ATOM      7  H   UNL     1      33.038 -15.055 -22.563  0.00  0.00    -0.080 HD
ATOM      8  H   UNL     1      36.531 -16.495 -22.874  0.00  0.00    -0.080 HD
ENDROOT
BRANCH   1   9
ATOM      9  C   UNL     1      33.680 -13.193 -23.025  0.00  0.00    -0.043 C 
BRANCH   9  10
ATOM     10  C   UNL     1      32.555 -12.681 -22.116  0.00  0.00    +0.112 C 
BRANCH  10  13
ATOM     11  O   UNL     1      31.819  -6.834 -20.739  0.00  0.00    -0.440 OA
ATOM     12  O   UNL     1      32.341  -6.128 -22.881  0.00  0.00    -0.245 OA
ATOM     13  C   UNL     1      32.466 -11.171 -22.140  0.00  0.00    -0.002 C 
ATOM     14  C   UNL     1      32.116 -10.459 -20.988  0.00  0.00    -0.024 C 
ATOM     15  C   UNL     1      32.049  -9.080 -21.067  0.00  0.00    +0.023 C 
ATOM     16  C   UNL     1      32.742 -10.499 -23.343  0.00  0.00    -0.002 C 
ATOM     17  C   UNL     1      32.322  -8.433 -22.255  0.00  0.00    +0.075 C 
ATOM     18  C   UNL     1      32.671  -9.107 -23.410  0.00  0.00    +0.006 C 
ATOM     19  C   UNL     1      31.711  -8.092 -20.026  0.00  0.00    +0.235 C 
ATOM     20  C   UNL     1      31.820 -11.160 -19.706  0.00  0.00    +0.031 C 
ATOM     21  C   UNL     1      32.177  -7.000 -22.051  0.00  0.00    +0.341 C 
ENDBRANCH  10  13
BRANCH  10  22
ATOM     22  O   UNL     1      31.299 -13.209 -22.542  0.00  0.00    -0.382 OA
ATOM     23  H   UNL     1      31.099 -12.889 -23.435  0.00  0.00    +0.211 HD
ENDBRANCH  10  22
ENDBRANCH   9  10
ENDBRANCH   1   9
BRANCH   2  24
ATOM     24  C   UNL     1      35.891 -18.359 -22.413  0.00  0.00    -0.043 C 
BRANCH  24  25
ATOM     25  C   UNL     1      36.693 -18.572 -21.122  0.00  0.00    +0.112 C 
BRANCH  25  28
ATOM     26  O   UNL     1      33.031 -22.628 -18.521  0.00  0.00    -0.440 OA
ATOM     27  O   UNL     1      34.693 -23.428 -17.123  0.00  0.00    -0.245 OA
ATOM     28  C   UNL     1      36.094 -19.671 -20.273  0.00  0.00    -0.002 C 
ATOM     29  C   UNL     1      34.750 -20.032 -20.417  0.00  0.00    -0.024 C 
ATOM     30  C   UNL     1      34.254 -21.043 -19.615  0.00  0.00    +0.023 C 
ATOM     31  C   UNL     1      36.915 -20.321 -19.334  0.00  0.00    -0.002 C 
ATOM     32  C   UNL     1      35.071 -21.673 -18.698  0.00  0.00    +0.075 C 
ATOM     33  C   UNL     1      36.402 -21.339 -18.530  0.00  0.00    +0.006 C 
ATOM     34  C   UNL     1      32.900 -21.620 -19.554  0.00  0.00    +0.235 C 
ATOM     35  C   UNL     1      33.869 -19.351 -21.408  0.00  0.00    +0.031 C 
ATOM     36  C   UNL     1      34.296 -22.684 -17.996  0.00  0.00    +0.341 C 
ENDBRANCH  25  28
BRANCH  25  37
ATOM     37  O   UNL     1      38.040 -18.930 -21.431  0.00  0.00    -0.382 OA
ATOM     38  H   UNL     1      38.381 -18.340 -22.121  0.00  0.00    +0.211 HD
ENDBRANCH  25  37
ENDBRANCH  24  25
ENDBRANCH   2  24
TORSDOF 8
ENDMDL
MODEL 9
REMARK VINA RESULT:     -10.9      1.306      2.219
REMARK  Name = 59568713
REMARK  8 active torsions:
REMARK  status: ('A' for Active; 'I' for Inactive)
REMARK    1  A    between atoms: N_1  and  C_9
REMARK    2  A    between atoms: N_2  and  C_24
REMARK    3  A    between atoms: C_9  and  C_10
REMARK    4  A    between atoms: C_10  and  C_13
REMARK    5  A    between atoms: C_10  and  O_22
REMARK    6  A    between atoms: C_24  and  C_25
REMARK    7  A    between atoms: C_25  and  C_28
REMARK    8  A    between atoms: C_25  and  O_37
REMARK                            x       y       z     vdW  Elec       q    Type
REMARK                         _______ _______ _______ _____ _____    ______ ____
ROOT
ATOM      1  N   UNL     1      34.554 -14.180 -22.565  0.00  0.00    +0.386 N 
ATOM      2  N   UNL     1      35.011 -16.881 -21.640  0.00  0.00    +0.386 N 
ATOM      3  C   UNL     1      35.516 -16.425 -22.941  0.00  0.00    -0.101 C 
ATOM      4  C   UNL     1      34.929 -15.758 -20.699  0.00  0.00    -0.101 C 
ATOM      5  C   UNL     1      34.636 -15.304 -23.505  0.00  0.00    -0.101 C 
ATOM      6  C   UNL     1      34.050 -14.636 -21.264  0.00  0.00    -0.101 C 
ATOM      7  H   UNL     1      35.492 -13.803 -22.432  0.00  0.00    -0.080 HD
ATOM      8  H   UNL     1      34.071 -17.256 -21.774  0.00  0.00    -0.080 HD
ENDROOT
BRANCH   1   9
ATOM      9  C   UNL     1      33.712 -13.114 -23.103  0.00  0.00    -0.043 C 
BRANCH   9  10
ATOM     10  C   UNL     1      32.368 -13.055 -22.365  0.00  0.00    +0.112 C 
BRANCH  10  13
ATOM     11  O   UNL     1      32.054  -7.265 -20.634  0.00  0.00    -0.440 OA
ATOM     12  O   UNL     1      31.602  -7.810 -18.430  0.00  0.00    -0.245 OA
ATOM     13  C   UNL     1      32.217 -11.765 -21.590  0.00  0.00    -0.002 C 
ATOM     14  C   UNL     1      32.356 -10.529 -22.230  0.00  0.00    -0.024 C 
ATOM     15  C   UNL     1      32.210  -9.380 -21.473  0.00  0.00    +0.023 C 
ATOM     16  C   UNL     1      31.937 -11.834 -20.215  0.00  0.00    -0.002 C 
ATOM     17  C   UNL     1      31.935  -9.463 -20.123  0.00  0.00    +0.075 C 
ATOM     18  C   UNL     1      31.792 -10.668 -19.462  0.00  0.00    +0.006 C 
ATOM     19  C   UNL     1      32.301  -7.966 -21.878  0.00  0.00    +0.235 C 
ATOM     20  C   UNL     1      32.655 -10.441 -23.688  0.00  0.00    +0.031 C 
ATOM     21  C   UNL     1      31.834  -8.116 -19.583  0.00  0.00    +0.341 C 
ENDBRANCH  10  13
BRANCH  10  22
ATOM     22  O   UNL     1      31.289 -13.146 -23.295  0.00  0.00    -0.382 OA
ATOM     23  H   UNL     1      31.490 -13.822 -23.959  0.00  0.00    +0.211 HD
ENDBRANCH  10  22
ENDBRANCH   9  10
ENDBRANCH   1   9
BRANCH   2  24
ATOM     24  C   UNL     1      35.851 -17.948 -21.102  0.00  0.00    -0.043 C 
BRANCH  24  25
ATOM     25  C   UNL     1      35.421 -19.313 -21.656  0.00  0.00    +0.112 C 
BRANCH  25  28
ATOM     26  O   UNL     1      34.231 -22.995 -17.002  0.00  0.00    -0.440 OA
ATOM     27  O   UNL     1      31.939 -22.815 -17.274  0.00  0.00    -0.245 OA
ATOM     28  C   UNL     1      34.760 -20.160 -20.590  0.00  0.00    -0.002 C 
ATOM     29  C   UNL     1      35.531 -20.876 -19.669  0.00  0.00    -0.024 C 
ATOM     30  C   UNL     1      34.875 -21.634 -18.717  0.00  0.00    +0.023 C 
ATOM     31  C   UNL     1      33.355 -20.214 -20.548  0.00  0.00    -0.002 C 
ATOM     32  C   UNL     1      33.497 -21.679 -18.686  0.00  0.00    +0.075 C 
ATOM     33  C   UNL     1      32.706 -20.985 -19.582  0.00  0.00    +0.006 C 
ATOM     34  C   UNL     1      35.425 -22.475 -17.639  0.00  0.00    +0.235 C 
ATOM     35  C   UNL     1      37.020 -20.828 -19.704  0.00  0.00    +0.031 C 
ATOM     36  C   UNL     1      33.079 -22.546 -17.595  0.00  0.00    +0.341 C 
ENDBRANCH  25  28
BRANCH  25  37
ATOM     37  O   UNL     1      34.494 -19.141 -22.728  0.00  0.00    -0.382 OA
ATOM     38  H   UNL     1      33.824 -19.841 -22.690  0.00  0.00    +0.211 HD
ENDBRANCH  25  37
ENDBRANCH  24  25
ENDBRANCH   2  24
TORSDOF 8
ENDMDL
