MODEL 1
REMARK VINA RESULT:     -11.3      0.000      0.000
REMARK  Name = 447653
REMARK  8 active torsions:
REMARK  status: ('A' for Active; 'I' for Inactive)
REMARK    1  A    between atoms: N_2  and  C_20
REMARK    2  A    between atoms: C_4  and  C_11
REMARK    3  A    between atoms: C_19  and  O_25
REMARK    4  A    between atoms: O_25  and  C_26
REMARK    5  A    between atoms: C_26  and  C_27
REMARK    6  A    between atoms: C_27  and  O_28
REMARK    7  A    between atoms: C_27  and  C_30
REMARK    8  A    between atoms: C_30  and  N_31
REMARK                            x       y       z     vdW  Elec       q    Type
REMARK                         _______ _______ _______ _____ _____    ______ ____
ROOT
ATOM      1  N   UNL     1      34.509 -22.891 -16.643  0.00  0.00    -0.340 NA
ATOM      2  N   UNL     1      32.772 -22.150 -18.035  0.00  0.00    -0.247 N 
ATOM      3  N   UNL     1      32.208 -23.392 -16.126  0.00  0.00    -0.170 NA
ATOM      4  C   UNL     1      34.860 -23.563 -15.530  0.00  0.00    +0.148 C 
ATOM      5  C   UNL     1      33.966 -24.168 -14.676  0.00  0.00    +0.052 C 
ATOM      6  C   UNL     1      33.183 -22.845 -16.878  0.00  0.00    +0.148 C 
ATOM      7  C   UNL     1      32.637 -24.049 -15.029  0.00  0.00    +0.114 C 
ATOM      8  H   UNL     1      31.796 -22.141 -18.166  0.00  0.00    +0.165 HD
ENDROOT
BRANCH   4  11
ATOM      9  N   UNL     1      36.937 -24.662 -14.693  0.00  0.00    -0.251 N 
ATOM     10  N   UNL     1      38.495 -23.125 -15.154  0.00  0.00    -0.393 NA
ATOM     11  C   UNL     1      36.283 -23.611 -15.282  0.00  0.00    +0.181 C 
ATOM     12  C   UNL     1      38.285 -24.318 -14.637  0.00  0.00    +0.187 C 
ATOM     13  C   UNL     1      37.260 -22.682 -15.555  0.00  0.00    +0.114 C 
ATOM     14  C   UNL     1      36.429 -25.868 -14.218  0.00  0.00    +0.068 C 
ATOM     15  C   UNL     1      39.173 -25.271 -14.055  0.00  0.00    +0.048 C 
ATOM     16  C   UNL     1      37.120 -21.360 -16.187  0.00  0.00    +0.064 C 
ATOM     17  C   UNL     1      37.271 -26.760 -13.672  0.00  0.00    +0.016 C 
ATOM     18  C   UNL     1      38.688 -26.440 -13.594  0.00  0.00    +0.005 C 
ENDBRANCH   4  11
BRANCH   2  20
ATOM     19  C   UNL     1      34.892 -20.104 -21.029  0.00  0.00    +0.139 C 
ATOM     20  C   UNL     1      33.483 -21.465 -19.039  0.00  0.00    +0.058 C 
ATOM     21  C   UNL     1      35.564 -20.970 -20.165  0.00  0.00    +0.038 C 
ATOM     22  C   UNL     1      33.516 -19.918 -20.898  0.00  0.00    +0.038 C 
ATOM     23  C   UNL     1      34.860 -21.649 -19.171  0.00  0.00    +0.018 C 
ATOM     24  C   UNL     1      32.812 -20.597 -19.904  0.00  0.00    +0.018 C 
BRANCH  19  25
ATOM     25  O   UNL     1      35.580 -19.441 -21.999  0.00  0.00    -0.473 OA
BRANCH  25  26
ATOM     26  C   UNL     1      34.811 -18.769 -22.995  0.00  0.00    +0.232 C 
BRANCH  26  27
ATOM     27  C   UNL     1      34.973 -17.262 -22.808  0.00  0.00    +0.133 C 
BRANCH  27  28
ATOM     28  O   UNL     1      36.281 -17.002 -22.292  0.00  0.00    -0.383 OA
ATOM     29  H   UNL     1      36.409 -17.496 -21.467  0.00  0.00    +0.210 HD
ENDBRANCH  27  28
BRANCH  27  30
ATOM     30  C   UNL     1      34.806 -16.470 -24.107  0.00  0.00    -0.044 C 
BRANCH  30  31
ATOM     31  N   UNL     1      33.797 -15.426 -23.986  0.00  0.00    +0.386 N 
ATOM     32  C   UNL     1      34.308 -14.303 -23.197  0.00  0.00    -0.101 C 
ATOM     33  C   UNL     1      33.371 -14.964 -25.308  0.00  0.00    -0.101 C 
ATOM     34  H   UNL     1      32.990 -15.821 -23.503  0.00  0.00    -0.080 HD
ENDBRANCH  30  31
ENDBRANCH  27  30
ENDBRANCH  26  27
ENDBRANCH  25  26
ENDBRANCH  19  25
ENDBRANCH   2  20
TORSDOF 8
ENDMDL
MODEL 2
REMARK VINA RESULT:     -10.9      1.584      1.778
REMARK  Name = 447653
REMARK  8 active torsions:
REMARK  status: ('A' for Active; 'I' for Inactive)
REMARK    1  A    between atoms: N_2  and  C_20
REMARK    2  A    between atoms: C_4  and  C_11
REMARK    3  A    between atoms: C_19  and  O_25
REMARK    4  A    between atoms: O_25  and  C_26
REMARK    5  A    between atoms: C_26  and  C_27
REMARK    6  A    between atoms: C_27  and  O_28
REMARK    7  A    between atoms: C_27  and  C_30
REMARK    8  A    between atoms: C_30  and  N_31
REMARK                            x       y       z     vdW  Elec       q    Type
REMARK                         _______ _______ _______ _____ _____    ______ ____
ROOT
ATOM      1  N   UNL     1      33.955 -22.827 -16.205  0.00  0.00    -0.340 NA
ATOM      2  N   UNL     1      32.520 -22.328 -17.993  0.00  0.00    -0.247 N 
ATOM      3  N   UNL     1      31.645 -23.514 -16.167  0.00  0.00    -0.170 NA
ATOM      4  C   UNL     1      34.102 -23.403 -14.997  0.00  0.00    +0.148 C 
ATOM      5  C   UNL     1      33.091 -24.043 -14.317  0.00  0.00    +0.052 C 
ATOM      6  C   UNL     1      32.716 -22.918 -16.726  0.00  0.00    +0.148 C 
ATOM      7  C   UNL     1      31.869 -24.068 -14.958  0.00  0.00    +0.114 C 
ATOM      8  H   UNL     1      31.600 -22.418 -18.334  0.00  0.00    +0.165 HD
ENDROOT
BRANCH   4  11
ATOM      9  N   UNL     1      35.787 -23.724 -13.186  0.00  0.00    -0.251 N 
ATOM     10  N   UNL     1      37.641 -22.894 -14.122  0.00  0.00    -0.393 NA
ATOM     11  C   UNL     1      35.432 -23.303 -14.442  0.00  0.00    +0.181 C 
ATOM     12  C   UNL     1      37.145 -23.453 -13.037  0.00  0.00    +0.187 C 
ATOM     13  C   UNL     1      36.586 -22.799 -14.995  0.00  0.00    +0.114 C 
ATOM     14  C   UNL     1      35.007 -24.315 -12.196  0.00  0.00    +0.068 C 
ATOM     15  C   UNL     1      37.744 -23.809 -11.793  0.00  0.00    +0.048 C 
ATOM     16  C   UNL     1      36.785 -22.210 -16.329  0.00  0.00    +0.064 C 
ATOM     17  C   UNL     1      35.578 -24.648 -11.027  0.00  0.00    +0.016 C 
ATOM     18  C   UNL     1      36.994 -24.381 -10.831  0.00  0.00    +0.005 C 
ENDBRANCH   4  11
BRANCH   2  20
ATOM     19  C   UNL     1      35.086 -20.254 -20.593  0.00  0.00    +0.139 C 
ATOM     20  C   UNL     1      33.380 -21.634 -18.864  0.00  0.00    +0.058 C 
ATOM     21  C   UNL     1      35.573 -21.319 -19.834  0.00  0.00    +0.038 C 
ATOM     22  C   UNL     1      33.747 -19.878 -20.487  0.00  0.00    +0.038 C 
ATOM     23  C   UNL     1      34.720 -22.008 -18.971  0.00  0.00    +0.018 C 
ATOM     24  C   UNL     1      32.895 -20.566 -19.623  0.00  0.00    +0.018 C 
BRANCH  19  25
ATOM     25  O   UNL     1      35.918 -19.582 -21.435  0.00  0.00    -0.473 OA
BRANCH  25  26
ATOM     26  C   UNL     1      36.164 -18.207 -21.144  0.00  0.00    +0.232 C 
BRANCH  26  27
ATOM     27  C   UNL     1      35.714 -17.363 -22.334  0.00  0.00    +0.133 C 
BRANCH  27  28
ATOM     28  O   UNL     1      35.032 -18.209 -23.264  0.00  0.00    -0.383 OA
ATOM     29  H   UNL     1      35.185 -19.137 -23.030  0.00  0.00    +0.210 HD
ENDBRANCH  27  28
BRANCH  27  30
ATOM     30  C   UNL     1      34.771 -16.222 -21.946  0.00  0.00    -0.044 C 
BRANCH  30  31
ATOM     31  N   UNL     1      34.909 -15.073 -22.831  0.00  0.00    +0.386 N 
ATOM     32  C   UNL     1      34.113 -15.259 -24.046  0.00  0.00    -0.101 C 
ATOM     33  C   UNL     1      34.507 -13.843 -22.146  0.00  0.00    -0.101 C 
ATOM     34  H   UNL     1      35.890 -14.993 -23.095  0.00  0.00    -0.080 HD
ENDBRANCH  30  31
ENDBRANCH  27  30
ENDBRANCH  26  27
ENDBRANCH  25  26
ENDBRANCH  19  25
ENDBRANCH   2  20
TORSDOF 8
ENDMDL
MODEL 3
REMARK VINA RESULT:     -10.5      2.821     11.257
REMARK  Name = 447653
REMARK  8 active torsions:
REMARK  status: ('A' for Active; 'I' for Inactive)
REMARK    1  A    between atoms: N_2  and  C_20
REMARK    2  A    between atoms: C_4  and  C_11
REMARK    3  A    between atoms: C_19  and  O_25
REMARK    4  A    between atoms: O_25  and  C_26
REMARK    5  A    between atoms: C_26  and  C_27
REMARK    6  A    between atoms: C_27  and  O_28
REMARK    7  A    between atoms: C_27  and  C_30
REMARK    8  A    between atoms: C_30  and  N_31
REMARK                            x       y       z     vdW  Elec       q    Type
REMARK                         _______ _______ _______ _____ _____    ______ ____
ROOT
ATOM      1  N   UNL     1      34.048 -15.567 -22.784  0.00  0.00    -0.340 NA
ATOM      2  N   UNL     1      34.949 -17.504 -23.754  0.00  0.00    -0.247 N 
ATOM      3  N   UNL     1      34.301 -15.752 -25.174  0.00  0.00    -0.170 NA
ATOM      4  C   UNL     1      33.535 -14.337 -22.977  0.00  0.00    +0.148 C 
ATOM      5  C   UNL     1      33.374 -13.750 -24.211  0.00  0.00    +0.052 C 
ATOM      6  C   UNL     1      34.406 -16.211 -23.912  0.00  0.00    +0.148 C 
ATOM      7  C   UNL     1      33.778 -14.514 -25.287  0.00  0.00    +0.114 C 
ATOM      8  H   UNL     1      35.196 -17.936 -24.604  0.00  0.00    +0.165 HD
ENDROOT
BRANCH   4  11
ATOM      9  N   UNL     1      32.456 -12.469 -21.724  0.00  0.00    -0.251 N 
ATOM     10  N   UNL     1      32.840 -13.051 -19.599  0.00  0.00    -0.393 NA
ATOM     11  C   UNL     1      33.153 -13.650 -21.764  0.00  0.00    +0.181 C 
ATOM     12  C   UNL     1      32.290 -12.144 -20.380  0.00  0.00    +0.187 C 
ATOM     13  C   UNL     1      33.376 -13.985 -20.450  0.00  0.00    +0.114 C 
ATOM     14  C   UNL     1      31.974 -11.688 -22.771  0.00  0.00    +0.068 C 
ATOM     15  C   UNL     1      31.585 -10.940 -20.088  0.00  0.00    +0.048 C 
ATOM     16  C   UNL     1      34.080 -15.158 -19.907  0.00  0.00    +0.064 C 
ATOM     17  C   UNL     1      31.311 -10.556 -22.487  0.00  0.00    +0.016 C 
ATOM     18  C   UNL     1      31.116 -10.180 -21.096  0.00  0.00    +0.005 C 
ENDBRANCH   4  11
BRANCH   2  20
ATOM     19  C   UNL     1      35.719 -19.871 -20.371  0.00  0.00    +0.139 C 
ATOM     20  C   UNL     1      35.207 -18.298 -22.621  0.00  0.00    +0.058 C 
ATOM     21  C   UNL     1      34.517 -20.015 -21.064  0.00  0.00    +0.038 C 
ATOM     22  C   UNL     1      36.665 -18.940 -20.801  0.00  0.00    +0.038 C 
ATOM     23  C   UNL     1      34.261 -19.229 -22.188  0.00  0.00    +0.018 C 
ATOM     24  C   UNL     1      36.409 -18.154 -21.925  0.00  0.00    +0.018 C 
BRANCH  19  25
ATOM     25  O   UNL     1      35.968 -20.638 -19.274  0.00  0.00    -0.473 OA
BRANCH  25  26
ATOM     26  C   UNL     1      35.742 -22.041 -19.399  0.00  0.00    +0.232 C 
BRANCH  26  27
ATOM     27  C   UNL     1      34.505 -22.415 -18.586  0.00  0.00    +0.133 C 
BRANCH  27  28
ATOM     28  O   UNL     1      34.027 -23.686 -19.036  0.00  0.00    -0.383 OA
ATOM     29  H   UNL     1      33.923 -24.280 -18.277  0.00  0.00    +0.210 HD
ENDBRANCH  27  28
BRANCH  27  30
ATOM     30  C   UNL     1      34.774 -22.511 -17.083  0.00  0.00    -0.044 C 
BRANCH  30  31
ATOM     31  N   UNL     1      33.985 -23.561 -16.451  0.00  0.00    +0.386 N 
ATOM     32  C   UNL     1      34.654 -24.056 -15.247  0.00  0.00    -0.101 C 
ATOM     33  C   UNL     1      32.645 -23.071 -16.120  0.00  0.00    -0.101 C 
ATOM     34  H   UNL     1      33.895 -24.331 -17.113  0.00  0.00    -0.080 HD
ENDBRANCH  30  31
ENDBRANCH  27  30
ENDBRANCH  26  27
ENDBRANCH  25  26
ENDBRANCH  19  25
ENDBRANCH   2  20
TORSDOF 8
ENDMDL
MODEL 4
REMARK VINA RESULT:      -9.9      1.725      4.203
REMARK  Name = 447653
REMARK  8 active torsions:
REMARK  status: ('A' for Active; 'I' for Inactive)
REMARK    1  A    between atoms: N_2  and  C_20
REMARK    2  A    between atoms: C_4  and  C_11
REMARK    3  A    between atoms: C_19  and  O_25
REMARK    4  A    between atoms: O_25  and  C_26
REMARK    5  A    between atoms: C_26  and  C_27
REMARK    6  A    between atoms: C_27  and  O_28
REMARK    7  A    between atoms: C_27  and  C_30
REMARK    8  A    between atoms: C_30  and  N_31
REMARK                            x       y       z     vdW  Elec       q    Type
REMARK                         _______ _______ _______ _____ _____    ______ ____
ROOT
ATOM      1  N   UNL     1      34.922 -22.484 -16.810  0.00  0.00    -0.340 NA
ATOM      2  N   UNL     1      36.891 -21.682 -17.802  0.00  0.00    -0.247 N 
ATOM      3  N   UNL     1      37.080 -23.005 -15.872  0.00  0.00    -0.170 NA
ATOM      4  C   UNL     1      34.364 -23.204 -15.818  0.00  0.00    +0.148 C 
ATOM      5  C   UNL     1      35.079 -23.844 -14.831  0.00  0.00    +0.052 C 
ATOM      6  C   UNL     1      36.267 -22.427 -16.778  0.00  0.00    +0.148 C 
ATOM      7  C   UNL     1      36.450 -23.707 -14.909  0.00  0.00    +0.114 C 
ATOM      8  H   UNL     1      37.874 -21.668 -17.738  0.00  0.00    +0.165 HD
ENDROOT
BRANCH   4  11
ATOM      9  N   UNL     1      32.141 -23.897 -14.923  0.00  0.00    -0.251 N 
ATOM     10  N   UNL     1      30.740 -23.024 -16.431  0.00  0.00    -0.393 NA
ATOM     11  C   UNL     1      32.921 -23.263 -15.856  0.00  0.00    +0.181 C 
ATOM     12  C   UNL     1      30.818 -23.724 -15.318  0.00  0.00    +0.187 C 
ATOM     13  C   UNL     1      32.038 -22.735 -16.769  0.00  0.00    +0.114 C 
ATOM     14  C   UNL     1      32.519 -24.598 -13.781  0.00  0.00    +0.068 C 
ATOM     15  C   UNL     1      29.813 -24.306 -14.490  0.00  0.00    +0.048 C 
ATOM     16  C   UNL     1      32.328 -21.952 -17.981  0.00  0.00    +0.064 C 
ATOM     17  C   UNL     1      31.568 -25.143 -13.006  0.00  0.00    +0.016 C 
ATOM     18  C   UNL     1      30.172 -24.985 -13.383  0.00  0.00    +0.005 C 
ENDBRANCH   4  11
BRANCH   2  20
ATOM     19  C   UNL     1      35.382 -19.514 -21.067  0.00  0.00    +0.139 C 
ATOM     20  C   UNL     1      36.385 -20.955 -18.895  0.00  0.00    +0.058 C 
ATOM     21  C   UNL     1      34.605 -20.506 -20.469  0.00  0.00    +0.038 C 
ATOM     22  C   UNL     1      36.661 -19.243 -20.581  0.00  0.00    +0.038 C 
ATOM     23  C   UNL     1      35.105 -21.225 -19.384  0.00  0.00    +0.018 C 
ATOM     24  C   UNL     1      37.162 -19.963 -19.497  0.00  0.00    +0.018 C 
BRANCH  19  25
ATOM     25  O   UNL     1      34.893 -18.812 -22.126  0.00  0.00    -0.473 OA
BRANCH  25  26
ATOM     26  C   UNL     1      35.606 -17.638 -22.511  0.00  0.00    +0.232 C 
BRANCH  26  27
ATOM     27  C   UNL     1      34.753 -16.414 -22.185  0.00  0.00    +0.133 C 
BRANCH  27  28
ATOM     28  O   UNL     1      35.075 -15.969 -20.865  0.00  0.00    -0.383 OA
ATOM     29  H   UNL     1      34.325 -16.138 -20.274  0.00  0.00    +0.210 HD
ENDBRANCH  27  28
BRANCH  27  30
ATOM     30  C   UNL     1      34.976 -15.247 -23.150  0.00  0.00    -0.044 C 
BRANCH  30  31
ATOM     31  N   UNL     1      33.735 -14.549 -23.461  0.00  0.00    +0.386 N 
ATOM     32  C   UNL     1      33.863 -13.118 -23.181  0.00  0.00    -0.101 C 
ATOM     33  C   UNL     1      33.361 -14.760 -24.861  0.00  0.00    -0.101 C 
ATOM     34  H   UNL     1      33.000 -14.931 -22.867  0.00  0.00    -0.080 HD
ENDBRANCH  30  31
ENDBRANCH  27  30
ENDBRANCH  26  27
ENDBRANCH  25  26
ENDBRANCH  19  25
ENDBRANCH   2  20
TORSDOF 8
ENDMDL
MODEL 5
REMARK VINA RESULT:      -9.8      1.801      2.700
REMARK  Name = 447653
REMARK  8 active torsions:
REMARK  status: ('A' for Active; 'I' for Inactive)
REMARK    1  A    between atoms: N_2  and  C_20
REMARK    2  A    between atoms: C_4  and  C_11
REMARK    3  A    between atoms: C_19  and  O_25
REMARK    4  A    between atoms: O_25  and  C_26
REMARK    5  A    between atoms: C_26  and  C_27
REMARK    6  A    between atoms: C_27  and  O_28
REMARK    7  A    between atoms: C_27  and  C_30
REMARK    8  A    between atoms: C_30  and  N_31
REMARK                            x       y       z     vdW  Elec       q    Type
REMARK                         _______ _______ _______ _____ _____    ______ ____
ROOT
ATOM      1  N   UNL     1      34.104 -23.933 -15.251  0.00  0.00    -0.340 NA
ATOM      2  N   UNL     1      32.588 -22.868 -16.691  0.00  0.00    -0.247 N 
ATOM      3  N   UNL     1      31.731 -24.018 -14.833  0.00  0.00    -0.170 NA
ATOM      4  C   UNL     1      34.282 -24.675 -14.142  0.00  0.00    +0.148 C 
ATOM      5  C   UNL     1      33.259 -25.122 -13.337  0.00  0.00    +0.052 C 
ATOM      6  C   UNL     1      32.818 -23.644 -15.535  0.00  0.00    +0.148 C 
ATOM      7  C   UNL     1      31.989 -24.759 -13.737  0.00  0.00    +0.114 C 
ATOM      8  H   UNL     1      31.635 -22.681 -16.859  0.00  0.00    +0.165 HD
ENDROOT
BRANCH   4  11
ATOM      9  N   UNL     1      36.404 -24.364 -12.867  0.00  0.00    -0.251 N 
ATOM     10  N   UNL     1      37.748 -25.873 -13.825  0.00  0.00    -0.393 NA
ATOM     11  C   UNL     1      35.662 -24.982 -13.840  0.00  0.00    +0.181 C 
ATOM     12  C   UNL     1      37.670 -24.941 -12.897  0.00  0.00    +0.187 C 
ATOM     13  C   UNL     1      36.508 -25.903 -14.412  0.00  0.00    +0.114 C 
ATOM     14  C   UNL     1      36.039 -23.351 -11.984  0.00  0.00    +0.068 C 
ATOM     15  C   UNL     1      38.628 -24.450 -11.961  0.00  0.00    +0.048 C 
ATOM     16  C   UNL     1      36.235 -26.846 -15.509  0.00  0.00    +0.064 C 
ATOM     17  C   UNL     1      36.946 -22.894 -11.105  0.00  0.00    +0.016 C 
ATOM     18  C   UNL     1      38.281 -23.471 -11.103  0.00  0.00    +0.005 C 
ENDBRANCH   4  11
BRANCH   2  20
ATOM     19  C   UNL     1      35.167 -21.196 -19.554  0.00  0.00    +0.139 C 
ATOM     20  C   UNL     1      33.452 -22.307 -17.650  0.00  0.00    +0.058 C 
ATOM     21  C   UNL     1      33.785 -21.068 -19.700  0.00  0.00    +0.038 C 
ATOM     22  C   UNL     1      35.691 -21.880 -18.458  0.00  0.00    +0.038 C 
ATOM     23  C   UNL     1      32.929 -21.622 -18.748  0.00  0.00    +0.018 C 
ATOM     24  C   UNL     1      34.835 -22.435 -17.507  0.00  0.00    +0.018 C 
BRANCH  19  25
ATOM     25  O   UNL     1      36.002 -20.654 -20.482  0.00  0.00    -0.473 OA
BRANCH  25  26
ATOM     26  C   UNL     1      35.427 -19.746 -21.420  0.00  0.00    +0.232 C 
BRANCH  26  27
ATOM     27  C   UNL     1      36.050 -18.367 -21.217  0.00  0.00    +0.133 C 
BRANCH  27  28
ATOM     28  O   UNL     1      37.201 -18.255 -22.059  0.00  0.00    -0.383 OA
ATOM     29  H   UNL     1      37.769 -19.032 -21.937  0.00  0.00    +0.210 HD
ENDBRANCH  27  28
BRANCH  27  30
ATOM     30  C   UNL     1      35.099 -17.217 -21.554  0.00  0.00    -0.044 C 
BRANCH  30  31
ATOM     31  N   UNL     1      35.401 -16.616 -22.847  0.00  0.00    +0.386 N 
ATOM     32  C   UNL     1      34.702 -17.324 -23.921  0.00  0.00    -0.101 C 
ATOM     33  C   UNL     1      35.038 -15.198 -22.855  0.00  0.00    -0.101 C 
ATOM     34  H   UNL     1      36.405 -16.696 -23.005  0.00  0.00    -0.080 HD
ENDBRANCH  30  31
ENDBRANCH  27  30
ENDBRANCH  26  27
ENDBRANCH  25  26
ENDBRANCH  19  25
ENDBRANCH   2  20
TORSDOF 8
ENDMDL
MODEL 6
REMARK VINA RESULT:      -9.7      6.038     13.877
REMARK  Name = 447653
REMARK  8 active torsions:
REMARK  status: ('A' for Active; 'I' for Inactive)
REMARK    1  A    between atoms: N_2  and  C_20
REMARK    2  A    between atoms: C_4  and  C_11
REMARK    3  A    between atoms: C_19  and  O_25
REMARK    4  A    between atoms: O_25  and  C_26
REMARK    5  A    between atoms: C_26  and  C_27
REMARK    6  A    between atoms: C_27  and  O_28
REMARK    7  A    between atoms: C_27  and  C_30
REMARK    8  A    between atoms: C_30  and  N_31
REMARK                            x       y       z     vdW  Elec       q    Type
REMARK                         _______ _______ _______ _____ _____    ______ ____
ROOT
ATOM      1  N   UNL     1      32.340 -10.046 -21.421  0.00  0.00    -0.340 NA
ATOM      2  N   UNL     1      32.437 -12.085 -20.265  0.00  0.00    -0.247 N 
ATOM      3  N   UNL     1      31.740 -10.177 -19.090  0.00  0.00    -0.170 NA
ATOM      4  C   UNL     1      32.063  -8.729 -21.373  0.00  0.00    +0.148 C 
ATOM      5  C   UNL     1      31.629  -8.069 -20.246  0.00  0.00    +0.052 C 
ATOM      6  C   UNL     1      32.158 -10.702 -20.258  0.00  0.00    +0.148 C 
ATOM      7  C   UNL     1      31.484  -8.854 -19.120  0.00  0.00    +0.114 C 
ATOM      8  H   UNL     1      32.290 -12.523 -19.395  0.00  0.00    +0.165 HD
ENDROOT
BRANCH   4  11
ATOM      9  N   UNL     1      33.447  -7.480 -23.031  0.00  0.00    -0.251 N 
ATOM     10  N   UNL     1      31.967  -7.066 -24.655  0.00  0.00    -0.393 NA
ATOM     11  C   UNL     1      32.259  -8.029 -22.623  0.00  0.00    +0.181 C 
ATOM     12  C   UNL     1      33.218  -6.902 -24.277  0.00  0.00    +0.187 C 
ATOM     13  C   UNL     1      31.368  -7.762 -23.636  0.00  0.00    +0.114 C 
ATOM     14  C   UNL     1      34.681  -7.459 -22.387  0.00  0.00    +0.068 C 
ATOM     15  C   UNL     1      34.325  -6.261 -24.907  0.00  0.00    +0.048 C 
ATOM     16  C   UNL     1      29.944  -8.122 -23.726  0.00  0.00    +0.064 C 
ATOM     17  C   UNL     1      35.719  -6.853 -22.987  0.00  0.00    +0.016 C 
ATOM     18  C   UNL     1      35.522  -6.238 -24.290  0.00  0.00    +0.005 C 
ENDBRANCH   4  11
BRANCH   2  20
ATOM     19  C   UNL     1      33.767 -14.702 -23.269  0.00  0.00    +0.139 C 
ATOM     20  C   UNL     1      32.883 -12.963 -21.271  0.00  0.00    +0.058 C 
ATOM     21  C   UNL     1      34.361 -14.729 -22.007  0.00  0.00    +0.038 C 
ATOM     22  C   UNL     1      32.732 -13.805 -23.533  0.00  0.00    +0.038 C 
ATOM     23  C   UNL     1      33.919 -13.860 -21.009  0.00  0.00    +0.018 C 
ATOM     24  C   UNL     1      32.290 -12.936 -22.536  0.00  0.00    +0.018 C 
BRANCH  19  25
ATOM     25  O   UNL     1      34.199 -15.550 -24.243  0.00  0.00    -0.473 OA
BRANCH  25  26
ATOM     26  C   UNL     1      35.153 -16.540 -23.864  0.00  0.00    +0.232 C 
BRANCH  26  27
ATOM     27  C   UNL     1      34.425 -17.861 -23.627  0.00  0.00    +0.133 C 
BRANCH  27  28
ATOM     28  O   UNL     1      33.999 -18.383 -24.889  0.00  0.00    -0.383 OA
ATOM     29  H   UNL     1      33.323 -19.063 -24.746  0.00  0.00    +0.210 HD
ENDBRANCH  27  28
BRANCH  27  30
ATOM     30  C   UNL     1      35.295 -18.918 -22.943  0.00  0.00    -0.044 C 
BRANCH  30  31
ATOM     31  N   UNL     1      35.322 -18.753 -21.496  0.00  0.00    +0.386 N 
ATOM     32  C   UNL     1      34.583 -19.833 -20.839  0.00  0.00    -0.101 C 
ATOM     33  C   UNL     1      36.701 -18.712 -21.006  0.00  0.00    -0.101 C 
ATOM     34  H   UNL     1      34.870 -17.867 -21.270  0.00  0.00    -0.080 HD
ENDBRANCH  30  31
ENDBRANCH  27  30
ENDBRANCH  26  27
ENDBRANCH  25  26
ENDBRANCH  19  25
ENDBRANCH   2  20
TORSDOF 8
ENDMDL
MODEL 7
REMARK VINA RESULT:      -9.6      5.973     13.956
REMARK  Name = 447653
REMARK  8 active torsions:
REMARK  status: ('A' for Active; 'I' for Inactive)
REMARK    1  A    between atoms: N_2  and  C_20
REMARK    2  A    between atoms: C_4  and  C_11
REMARK    3  A    between atoms: C_19  and  O_25
REMARK    4  A    between atoms: O_25  and  C_26
REMARK    5  A    between atoms: C_26  and  C_27
REMARK    6  A    between atoms: C_27  and  O_28
REMARK    7  A    between atoms: C_27  and  C_30
REMARK    8  A    between atoms: C_30  and  N_31
REMARK                            x       y       z     vdW  Elec       q    Type
REMARK                         _______ _______ _______ _____ _____    ______ ____
ROOT
ATOM      1  N   UNL     1      32.375 -10.177 -20.870  0.00  0.00    -0.340 NA
ATOM      2  N   UNL     1      32.280 -12.317 -19.911  0.00  0.00    -0.247 N 
ATOM      3  N   UNL     1      31.510 -10.498 -18.643  0.00  0.00    -0.170 NA
ATOM      4  C   UNL     1      32.135  -8.860 -20.727  0.00  0.00    +0.148 C 
ATOM      5  C   UNL     1      31.595  -8.290 -19.597  0.00  0.00    +0.052 C 
ATOM      6  C   UNL     1      32.043 -10.930 -19.802  0.00  0.00    +0.148 C 
ATOM      7  C   UNL     1      31.299  -9.168 -18.575  0.00  0.00    +0.114 C 
ATOM      8  H   UNL     1      32.021 -12.826 -19.109  0.00  0.00    +0.165 HD
ENDROOT
BRANCH   4  11
ATOM      9  N   UNL     1      32.184  -6.729 -22.023  0.00  0.00    -0.251 N 
ATOM     10  N   UNL     1      33.306  -7.329 -23.862  0.00  0.00    -0.393 NA
ATOM     11  C   UNL     1      32.492  -8.057 -21.874  0.00  0.00    +0.181 C 
ATOM     12  C   UNL     1      32.701  -6.330 -23.253  0.00  0.00    +0.187 C 
ATOM     13  C   UNL     1      33.180  -8.400 -23.014  0.00  0.00    +0.114 C 
ATOM     14  C   UNL     1      31.494  -5.878 -21.164  0.00  0.00    +0.068 C 
ATOM     15  C   UNL     1      32.499  -4.969 -23.629  0.00  0.00    +0.048 C 
ATOM     16  C   UNL     1      33.751  -9.705 -23.386  0.00  0.00    +0.064 C 
ATOM     17  C   UNL     1      31.308  -4.598 -21.526  0.00  0.00    +0.016 C 
ATOM     18  C   UNL     1      31.833  -4.140 -22.802  0.00  0.00    +0.005 C 
ENDBRANCH   4  11
BRANCH   2  20
ATOM     19  C   UNL     1      33.865 -14.698 -22.987  0.00  0.00    +0.139 C 
ATOM     20  C   UNL     1      32.811 -13.115 -20.941  0.00  0.00    +0.058 C 
ATOM     21  C   UNL     1      34.372 -14.802 -21.691  0.00  0.00    +0.038 C 
ATOM     22  C   UNL     1      32.831 -13.802 -23.260  0.00  0.00    +0.038 C 
ATOM     23  C   UNL     1      33.845 -14.012 -20.670  0.00  0.00    +0.018 C 
ATOM     24  C   UNL     1      32.305 -13.011 -22.239  0.00  0.00    +0.018 C 
BRANCH  19  25
ATOM     25  O   UNL     1      34.379 -15.469 -23.983  0.00  0.00    -0.473 OA
BRANCH  25  26
ATOM     26  C   UNL     1      35.267 -16.518 -23.599  0.00  0.00    +0.232 C 
BRANCH  26  27
ATOM     27  C   UNL     1      34.486 -17.828 -23.537  0.00  0.00    +0.133 C 
BRANCH  27  28
ATOM     28  O   UNL     1      34.180 -18.243 -24.870  0.00  0.00    -0.383 OA
ATOM     29  H   UNL     1      33.334 -17.857 -25.144  0.00  0.00    +0.210 HD
ENDBRANCH  27  28
BRANCH  27  30
ATOM     30  C   UNL     1      35.254 -18.959 -22.849  0.00  0.00    -0.044 C 
BRANCH  30  31
ATOM     31  N   UNL     1      35.321 -18.776 -21.405  0.00  0.00    +0.386 N 
ATOM     32  C   UNL     1      34.579 -19.835 -20.716  0.00  0.00    -0.101 C 
ATOM     33  C   UNL     1      36.712 -18.755 -20.950  0.00  0.00    -0.101 C 
ATOM     34  H   UNL     1      34.891 -17.880 -21.179  0.00  0.00    -0.080 HD
ENDBRANCH  30  31
ENDBRANCH  27  30
ENDBRANCH  26  27
ENDBRANCH  25  26
ENDBRANCH  19  25
ENDBRANCH   2  20
TORSDOF 8
ENDMDL
MODEL 8
REMARK VINA RESULT:      -9.3      1.965      2.783
REMARK  Name = 447653
REMARK  8 active torsions:
REMARK  status: ('A' for Active; 'I' for Inactive)
REMARK    1  A    between atoms: N_2  and  C_20
REMARK    2  A    between atoms: C_4  and  C_11
REMARK    3  A    between atoms: C_19  and  O_25
REMARK    4  A    between atoms: O_25  and  C_26
REMARK    5  A    between atoms: C_26  and  C_27
REMARK    6  A    between atoms: C_27  and  O_28
REMARK    7  A    between atoms: C_27  and  C_30
REMARK    8  A    between atoms: C_30  and  N_31
REMARK                            x       y       z     vdW  Elec       q    Type
REMARK                         _______ _______ _______ _____ _____    ______ ____
ROOT
ATOM      1  N   UNL     1      33.849 -23.860 -14.928  0.00  0.00    -0.340 NA
ATOM      2  N   UNL     1      32.507 -23.034 -16.667  0.00  0.00    -0.247 N 
ATOM      3  N   UNL     1      31.451 -24.091 -14.858  0.00  0.00    -0.170 NA
ATOM      4  C   UNL     1      33.902 -24.493 -13.741  0.00  0.00    +0.148 C 
ATOM      5  C   UNL     1      32.798 -24.950 -13.057  0.00  0.00    +0.052 C 
ATOM      6  C   UNL     1      32.607 -23.694 -15.423  0.00  0.00    +0.148 C 
ATOM      7  C   UNL     1      31.584 -24.718 -13.671  0.00  0.00    +0.114 C 
ATOM      8  H   UNL     1      31.582 -22.935 -16.989  0.00  0.00    +0.165 HD
ENDROOT
BRANCH   4  11
ATOM      9  N   UNL     1      36.195 -25.475 -13.771  0.00  0.00    -0.251 N 
ATOM     10  N   UNL     1      37.122 -24.548 -11.959  0.00  0.00    -0.393 NA
ATOM     11  C   UNL     1      35.236 -24.669 -13.213  0.00  0.00    +0.181 C 
ATOM     12  C   UNL     1      37.328 -25.368 -12.969  0.00  0.00    +0.187 C 
ATOM     13  C   UNL     1      35.829 -24.112 -12.105  0.00  0.00    +0.114 C 
ATOM     14  C   UNL     1      36.129 -26.273 -14.910  0.00  0.00    +0.068 C 
ATOM     15  C   UNL     1      38.470 -26.129 -13.358  0.00  0.00    +0.048 C 
ATOM     16  C   UNL     1      35.256 -23.167 -11.133  0.00  0.00    +0.064 C 
ATOM     17  C   UNL     1      37.209 -26.987 -15.269  0.00  0.00    +0.016 C 
ATOM     18  C   UNL     1      38.413 -26.903 -14.458  0.00  0.00    +0.005 C 
ENDBRANCH   4  11
BRANCH   2  20
ATOM     19  C   UNL     1      35.383 -21.410 -19.261  0.00  0.00    +0.139 C 
ATOM     20  C   UNL     1      33.471 -22.489 -17.537  0.00  0.00    +0.058 C 
ATOM     21  C   UNL     1      34.026 -21.290 -19.561  0.00  0.00    +0.038 C 
ATOM     22  C   UNL     1      35.785 -22.069 -18.100  0.00  0.00    +0.038 C 
ATOM     23  C   UNL     1      33.071 -21.829 -18.699  0.00  0.00    +0.018 C 
ATOM     24  C   UNL     1      34.830 -22.609 -17.239  0.00  0.00    +0.018 C 
BRANCH  19  25
ATOM     25  O   UNL     1      36.315 -20.883 -20.103  0.00  0.00    -0.473 OA
BRANCH  25  26
ATOM     26  C   UNL     1      36.942 -19.668 -19.698  0.00  0.00    +0.232 C 
BRANCH  26  27
ATOM     27  C   UNL     1      36.890 -18.676 -20.857  0.00  0.00    +0.133 C 
BRANCH  27  28
ATOM     28  O   UNL     1      38.175 -18.637 -21.485  0.00  0.00    -0.383 OA
ATOM     29  H   UNL     1      38.140 -18.051 -22.257  0.00  0.00    +0.210 HD
ENDBRANCH  27  28
BRANCH  27  30
ATOM     30  C   UNL     1      35.851 -19.040 -21.920  0.00  0.00    -0.044 C 
BRANCH  30  31
ATOM     31  N   UNL     1      34.917 -17.950 -22.169  0.00  0.00    +0.386 N 
ATOM     32  C   UNL     1      35.255 -16.784 -21.351  0.00  0.00    -0.101 C 
ATOM     33  C   UNL     1      34.912 -17.589 -23.588  0.00  0.00    -0.101 C 
ATOM     34  H   UNL     1      33.984 -18.268 -21.911  0.00  0.00    -0.080 HD
ENDBRANCH  30  31
ENDBRANCH  27  30
ENDBRANCH  26  27
ENDBRANCH  25  26
ENDBRANCH  19  25
ENDBRANCH   2  20
TORSDOF 8
ENDMDL
MODEL 9
REMARK VINA RESULT:      -9.2      8.470     16.182
REMARK  Name = 447653
REMARK  8 active torsions:
REMARK  status: ('A' for Active; 'I' for Inactive)
REMARK    1  A    between atoms: N_2  and  C_20
REMARK    2  A    between atoms: C_4  and  C_11
REMARK    3  A    between atoms: C_19  and  O_25
REMARK    4  A    between atoms: O_25  and  C_26
REMARK    5  A    between atoms: C_26  and  C_27
REMARK    6  A    between atoms: C_27  and  O_28
REMARK    7  A    between atoms: C_27  and  C_30
REMARK    8  A    between atoms: C_30  and  N_31
REMARK                            x       y       z     vdW  Elec       q    Type
REMARK                         _______ _______ _______ _____ _____    ______ ____
ROOT
ATOM      1  N   UNL     1      32.475  -7.256 -22.605  0.00  0.00    -0.340 NA
ATOM      2  N   UNL     1      31.401  -8.733 -21.132  0.00  0.00    -0.247 N 
ATOM      3  N   UNL     1      30.996  -6.434 -20.888  0.00  0.00    -0.170 NA
ATOM      4  C   UNL     1      32.673  -5.980 -22.985  0.00  0.00    +0.148 C 
ATOM      5  C   UNL     1      32.083  -4.892 -22.383  0.00  0.00    +0.052 C 
ATOM      6  C   UNL     1      31.635  -7.410 -21.562  0.00  0.00    +0.148 C 
ATOM      7  C   UNL     1      31.244  -5.183 -21.326  0.00  0.00    +0.114 C 
ATOM      8  H   UNL     1      30.781  -8.797 -20.369  0.00  0.00    +0.165 HD
ENDROOT
BRANCH   4  11
ATOM      9  N   UNL     1      33.255  -5.186 -25.277  0.00  0.00    -0.251 N 
ATOM     10  N   UNL     1      35.373  -5.874 -25.484  0.00  0.00    -0.393 NA
ATOM     11  C   UNL     1      33.574  -5.820 -24.104  0.00  0.00    +0.181 C 
ATOM     12  C   UNL     1      34.385  -5.246 -26.088  0.00  0.00    +0.187 C 
ATOM     13  C   UNL     1      34.877  -6.232 -24.256  0.00  0.00    +0.114 C 
ATOM     14  C   UNL     1      32.063  -4.578 -25.661  0.00  0.00    +0.068 C 
ATOM     15  C   UNL     1      34.289  -4.643 -27.378  0.00  0.00    +0.048 C 
ATOM     16  C   UNL     1      35.726  -6.964 -23.303  0.00  0.00    +0.064 C 
ATOM     17  C   UNL     1      31.980  -4.013 -26.876  0.00  0.00    +0.016 C 
ATOM     18  C   UNL     1      33.139  -4.054 -27.755  0.00  0.00    +0.005 C 
ENDBRANCH   4  11
BRANCH   2  20
ATOM     19  C   UNL     1      32.821 -12.454 -22.465  0.00  0.00    +0.139 C 
ATOM     20  C   UNL     1      31.878  -9.980 -21.579  0.00  0.00    +0.058 C 
ATOM     21  C   UNL     1      33.130 -11.294 -23.176  0.00  0.00    +0.038 C 
ATOM     22  C   UNL     1      32.041 -12.378 -21.312  0.00  0.00    +0.038 C 
ATOM     23  C   UNL     1      32.659 -10.058 -22.733  0.00  0.00    +0.018 C 
ATOM     24  C   UNL     1      31.569 -11.143 -20.869  0.00  0.00    +0.018 C 
BRANCH  19  25
ATOM     25  O   UNL     1      33.282 -13.660 -22.898  0.00  0.00    -0.473 OA
BRANCH  25  26
ATOM     26  C   UNL     1      33.174 -13.932 -24.295  0.00  0.00    +0.232 C 
BRANCH  26  27
ATOM     27  C   UNL     1      33.519 -15.398 -24.539  0.00  0.00    +0.133 C 
BRANCH  27  28
ATOM     28  O   UNL     1      33.042 -15.772 -25.835  0.00  0.00    -0.383 OA
ATOM     29  H   UNL     1      33.795 -15.898 -26.433  0.00  0.00    +0.210 HD
ENDBRANCH  27  28
BRANCH  27  30
ATOM     30  C   UNL     1      35.021 -15.685 -24.483  0.00  0.00    -0.044 C 
BRANCH  30  31
ATOM     31  N   UNL     1      35.339 -16.766 -23.561  0.00  0.00    +0.386 N 
ATOM     32  C   UNL     1      35.147 -16.336 -22.175  0.00  0.00    -0.101 C 
ATOM     33  C   UNL     1      34.517 -17.945 -23.844  0.00  0.00    -0.101 C 
ATOM     34  H   UNL     1      36.319 -17.015 -23.690  0.00  0.00    -0.080 HD
ENDBRANCH  30  31
ENDBRANCH  27  30
ENDBRANCH  26  27
ENDBRANCH  25  26
ENDBRANCH  19  25
ENDBRANCH   2  20
TORSDOF 8
ENDMDL
