MODEL 1
REMARK VINA RESULT:     -10.1      0.000      0.000
REMARK  Name = 24894158
REMARK  7 active torsions:
REMARK  status: ('A' for Active; 'I' for Inactive)
REMARK    1  A    between atoms: C_5  and  N_22
REMARK    2  A    between atoms: C_12  and  C_15
REMARK    3  A    between atoms: C_23  and  C_25
REMARK    4  A    between atoms: C_25  and  C_27
REMARK    5  A    between atoms: C_25  and  C_33
REMARK    6  A    between atoms: C_33  and  C_34
REMARK    7  A    between atoms: C_34  and  N_35
REMARK                            x       y       z     vdW  Elec       q    Type
REMARK                         _______ _______ _______ _____ _____    ______ ____
ROOT
ATOM      1  O   UNL     1      32.396 -20.333 -20.218  0.00  0.00    -0.270 OA
ATOM      2  N   UNL     1      31.101 -22.795 -17.017  0.00  0.00    -0.275 N 
ATOM      3  N   UNL     1      31.579 -22.043 -18.023  0.00  0.00    -0.157 NA
ATOM      4  N   UNL     1      33.789 -21.440 -18.677  0.00  0.00    -0.264 N 
ATOM      5  C   UNL     1      34.418 -24.072 -14.977  0.00  0.00    +0.050 C 
ATOM      6  C   UNL     1      33.274 -22.875 -16.729  0.00  0.00    +0.052 A 
ATOM      7  C   UNL     1      32.067 -23.325 -16.204  0.00  0.00    +0.077 A 
ATOM      8  C   UNL     1      34.477 -23.250 -16.109  0.00  0.00    +0.019 C 
ATOM      9  C   UNL     1      33.192 -24.510 -14.471  0.00  0.00    +0.016 C 
ATOM     10  C   UNL     1      32.901 -22.092 -17.843  0.00  0.00    +0.155 A 
ATOM     11  C   UNL     1      31.986 -24.144 -15.076  0.00  0.00    +0.020 C 
ATOM     12  C   UNL     1      33.508 -20.619 -19.786  0.00  0.00    +0.251 C 
ATOM     13  H   UNL     1      30.139 -22.952 -16.877  0.00  0.00    +0.189 HD
ATOM     14  H   UNL     1      34.743 -21.564 -18.467  0.00  0.00    +0.157 HD
ENDROOT
BRANCH  12  15
ATOM     15  C   UNL     1      34.688 -20.031 -20.472  0.00  0.00    +0.054 C 
ATOM     16  C   UNL     1      34.533 -19.396 -21.705  0.00  0.00    +0.005 C 
ATOM     17  C   UNL     1      35.950 -20.114 -19.883  0.00  0.00    +0.005 C 
ATOM     18  C   UNL     1      35.642 -18.843 -22.348  0.00  0.00    +0.000 C 
ATOM     19  C   UNL     1      37.058 -19.561 -20.527  0.00  0.00    +0.000 C 
ATOM     20  C   UNL     1      36.903 -18.926 -21.760  0.00  0.00    +0.000 C 
ENDBRANCH  12  15
BRANCH   5  22
ATOM     21  O   UNL     1      36.145 -26.487 -15.402  0.00  0.00    -0.274 OA
ATOM     22  N   UNL     1      35.617 -24.463 -14.337  0.00  0.00    -0.284 N 
ATOM     23  C   UNL     1      36.381 -25.601 -14.585  0.00  0.00    +0.230 C 
ATOM     24  H   UNL     1      35.951 -23.860 -13.634  0.00  0.00    +0.155 HD
BRANCH  23  25
ATOM     25  C   UNL     1      37.615 -25.658 -13.671  0.00  0.00    +0.097 C 
BRANCH  25  27
ATOM     26 CL   UNL     1      35.332 -24.836  -9.044  0.00  0.00    -0.082 Cl
ATOM     27  C   UNL     1      37.414 -24.763 -12.459  0.00  0.00    -0.013 C 
ATOM     28  C   UNL     1      36.566 -25.165 -11.428  0.00  0.00    +0.008 C 
ATOM     29  C   UNL     1      38.077 -23.538 -12.380  0.00  0.00    -0.004 C 
ATOM     30  C   UNL     1      36.380 -24.342 -10.316  0.00  0.00    +0.057 C 
ATOM     31  C   UNL     1      37.893 -22.716 -11.269  0.00  0.00    +0.001 C 
ATOM     32  C   UNL     1      37.044 -23.117 -10.237  0.00  0.00    +0.011 C 
ENDBRANCH  25  27
BRANCH  25  33
ATOM     33  C   UNL     1      38.892 -25.311 -14.467  0.00  0.00    -0.010 C 
BRANCH  33  34
ATOM     34  C   UNL     1      40.171 -25.508 -13.648  0.00  0.00    -0.085 C 
BRANCH  34  35
ATOM     35  N   UNL     1      40.719 -26.839 -13.884  0.00  0.00    +0.380 N 
ATOM     36  H   UNL     1      39.978 -27.460 -14.207  0.00  0.00    -0.089 HD
ATOM     37  H   UNL     1      41.114 -27.203 -13.016  0.00  0.00    -0.089 HD
ATOM     38  H   UNL     1      41.451 -26.785 -14.593  0.00  0.00    -0.089 HD
ENDBRANCH  34  35
ENDBRANCH  33  34
ENDBRANCH  25  33
ENDBRANCH  23  25
ENDBRANCH   5  22
TORSDOF 7
ENDMDL
MODEL 2
REMARK VINA RESULT:      -9.7      4.047      6.994
REMARK  Name = 24894158
REMARK  7 active torsions:
REMARK  status: ('A' for Active; 'I' for Inactive)
REMARK    1  A    between atoms: C_5  and  N_22
REMARK    2  A    between atoms: C_12  and  C_15
REMARK    3  A    between atoms: C_23  and  C_25
REMARK    4  A    between atoms: C_25  and  C_27
REMARK    5  A    between atoms: C_25  and  C_33
REMARK    6  A    between atoms: C_33  and  C_34
REMARK    7  A    between atoms: C_34  and  N_35
REMARK                            x       y       z     vdW  Elec       q    Type
REMARK                         _______ _______ _______ _____ _____    ______ ____
ROOT
ATOM      1  O   UNL     1      37.625 -19.398 -19.858  0.00  0.00    -0.270 OA
ATOM      2  N   UNL     1      37.313 -21.789 -16.369  0.00  0.00    -0.275 N 
ATOM      3  N   UNL     1      37.339 -21.032 -17.480  0.00  0.00    -0.157 NA
ATOM      4  N   UNL     1      35.714 -20.586 -19.165  0.00  0.00    -0.264 N 
ATOM      5  C   UNL     1      33.557 -23.424 -16.283  0.00  0.00    +0.050 C 
ATOM      6  C   UNL     1      35.310 -22.060 -17.219  0.00  0.00    +0.052 A 
ATOM      7  C   UNL     1      36.124 -22.432 -16.155  0.00  0.00    +0.077 A 
ATOM      8  C   UNL     1      34.000 -22.563 -17.293  0.00  0.00    +0.019 C 
ATOM      9  C   UNL     1      34.395 -23.781 -15.225  0.00  0.00    +0.016 C 
ATOM     10  C   UNL     1      36.119 -21.201 -17.995  0.00  0.00    +0.155 A 
ATOM     11  C   UNL     1      35.701 -23.290 -15.137  0.00  0.00    +0.020 C 
ATOM     12  C   UNL     1      36.458 -19.743 -20.014  0.00  0.00    +0.251 C 
ATOM     13  H   UNL     1      38.083 -21.872 -15.761  0.00  0.00    +0.189 HD
ATOM     14  H   UNL     1      34.786 -20.762 -19.442  0.00  0.00    +0.157 HD
ENDROOT
BRANCH  12  15
ATOM     15  C   UNL     1      35.748 -19.255 -21.225  0.00  0.00    +0.054 C 
ATOM     16  C   UNL     1      35.983 -17.964 -21.698  0.00  0.00    +0.005 C 
ATOM     17  C   UNL     1      34.846 -20.088 -21.888  0.00  0.00    +0.005 C 
ATOM     18  C   UNL     1      35.317 -17.507 -22.836  0.00  0.00    +0.000 C 
ATOM     19  C   UNL     1      34.180 -19.630 -23.025  0.00  0.00    +0.000 C 
ATOM     20  C   UNL     1      34.415 -18.339 -23.499  0.00  0.00    +0.000 C 
ENDBRANCH  12  15
BRANCH   5  22
ATOM     21  O   UNL     1      31.060 -22.520 -14.890  0.00  0.00    -0.274 OA
ATOM     22  N   UNL     1      32.241 -23.942 -16.337  0.00  0.00    -0.284 N 
ATOM     23  C   UNL     1      31.115 -23.470 -15.666  0.00  0.00    +0.230 C 
ATOM     24  H   UNL     1      32.106 -24.726 -16.916  0.00  0.00    +0.155 HD
BRANCH  23  25
ATOM     25  C   UNL     1      29.874 -24.314 -15.995  0.00  0.00    +0.097 C 
BRANCH  25  27
ATOM     26 CL   UNL     1      26.035 -21.905 -18.593  0.00  0.00    -0.082 Cl
ATOM     27  C   UNL     1      28.625 -23.449 -15.964  0.00  0.00    -0.013 C 
ATOM     28  C   UNL     1      27.978 -23.116 -17.154  0.00  0.00    +0.008 C 
ATOM     29  C   UNL     1      28.127 -22.986 -14.745  0.00  0.00    -0.004 C 
ATOM     30  C   UNL     1      26.833 -22.319 -17.125  0.00  0.00    +0.057 C 
ATOM     31  C   UNL     1      26.982 -22.191 -14.717  0.00  0.00    +0.001 C 
ATOM     32  C   UNL     1      26.335 -21.857 -15.906  0.00  0.00    +0.011 C 
ENDBRANCH  25  27
BRANCH  25  33
ATOM     33  C   UNL     1      29.783 -25.531 -15.047  0.00  0.00    -0.010 C 
BRANCH  33  34
ATOM     34  C   UNL     1      30.872 -25.525 -13.970  0.00  0.00    -0.085 C 
BRANCH  34  35
ATOM     35  N   UNL     1      30.340 -24.999 -12.719  0.00  0.00    +0.380 N 
ATOM     36  H   UNL     1      31.001 -24.331 -12.322  0.00  0.00    -0.089 HD
ATOM     37  H   UNL     1      30.197 -25.766 -12.061  0.00  0.00    -0.089 HD
ATOM     38  H   UNL     1      29.451 -24.532 -12.896  0.00  0.00    -0.089 HD
ENDBRANCH  34  35
ENDBRANCH  33  34
ENDBRANCH  25  33
ENDBRANCH  23  25
ENDBRANCH   5  22
TORSDOF 7
ENDMDL
MODEL 3
REMARK VINA RESULT:      -9.5     12.327     16.635
REMARK  Name = 24894158
REMARK  7 active torsions:
REMARK  status: ('A' for Active; 'I' for Inactive)
REMARK    1  A    between atoms: C_5  and  N_22
REMARK    2  A    between atoms: C_12  and  C_15
REMARK    3  A    between atoms: C_23  and  C_25
REMARK    4  A    between atoms: C_25  and  C_27
REMARK    5  A    between atoms: C_25  and  C_33
REMARK    6  A    between atoms: C_33  and  C_34
REMARK    7  A    between atoms: C_34  and  N_35
REMARK                            x       y       z     vdW  Elec       q    Type
REMARK                         _______ _______ _______ _____ _____    ______ ____
ROOT
ATOM      1  O   UNL     1      32.312  -2.952 -24.354  0.00  0.00    -0.270 OA
ATOM      2  N   UNL     1      32.227  -5.240 -20.784  0.00  0.00    -0.275 N 
ATOM      3  N   UNL     1      32.233  -4.575 -21.952  0.00  0.00    -0.157 NA
ATOM      4  N   UNL     1      32.249  -5.302 -24.222  0.00  0.00    -0.264 N 
ATOM      5  C   UNL     1      32.233  -9.206 -21.818  0.00  0.00    +0.050 C 
ATOM      6  C   UNL     1      32.236  -6.840 -22.284  0.00  0.00    +0.052 A 
ATOM      7  C   UNL     1      32.228  -6.603 -20.914  0.00  0.00    +0.077 A 
ATOM      8  C   UNL     1      32.241  -8.164 -22.754  0.00  0.00    +0.019 C 
ATOM      9  C   UNL     1      32.224  -8.939 -20.448  0.00  0.00    +0.016 C 
ATOM     10  C   UNL     1      32.241  -5.552 -22.862  0.00  0.00    +0.155 A 
ATOM     11  C   UNL     1      32.221  -7.627 -19.964  0.00  0.00    +0.020 C 
ATOM     12  C   UNL     1      32.283  -4.059 -24.883  0.00  0.00    +0.251 C 
ATOM     13  H   UNL     1      32.222  -4.786 -19.911  0.00  0.00    +0.189 HD
ATOM     14  H   UNL     1      32.230  -6.096 -24.803  0.00  0.00    +0.157 HD
ENDROOT
BRANCH  12  15
ATOM     15  C   UNL     1      32.312  -4.116 -26.368  0.00  0.00    +0.054 C 
ATOM     16  C   UNL     1      31.572  -3.201 -27.116  0.00  0.00    +0.005 C 
ATOM     17  C   UNL     1      33.080  -5.086 -27.013  0.00  0.00    +0.005 C 
ATOM     18  C   UNL     1      31.600  -3.255 -28.510  0.00  0.00    +0.000 C 
ATOM     19  C   UNL     1      33.108  -5.140 -28.407  0.00  0.00    +0.000 C 
ATOM     20  C   UNL     1      32.367  -4.224 -29.156  0.00  0.00    +0.000 C 
ENDBRANCH  12  15
BRANCH   5  22
ATOM     21  O   UNL     1      34.158 -10.641 -23.615  0.00  0.00    -0.274 OA
ATOM     22  N   UNL     1      32.237 -10.546 -22.269  0.00  0.00    -0.284 N 
ATOM     23  C   UNL     1      33.168 -11.159 -23.104  0.00  0.00    +0.230 C 
ATOM     24  H   UNL     1      31.494 -11.112 -21.956  0.00  0.00    +0.155 HD
BRANCH  23  25
ATOM     25  C   UNL     1      32.811 -12.632 -23.355  0.00  0.00    +0.097 C 
BRANCH  25  27
ATOM     26 CL   UNL     1      35.271 -16.403 -20.705  0.00  0.00    -0.082 Cl
ATOM     27  C   UNL     1      32.962 -13.437 -22.075  0.00  0.00    -0.013 C 
ATOM     28  C   UNL     1      33.935 -14.432 -21.988  0.00  0.00    +0.008 C 
ATOM     29  C   UNL     1      32.126 -13.181 -20.988  0.00  0.00    -0.004 C 
ATOM     30  C   UNL     1      34.072 -15.173 -20.813  0.00  0.00    +0.057 C 
ATOM     31  C   UNL     1      32.264 -13.921 -19.814  0.00  0.00    +0.001 C 
ATOM     32  C   UNL     1      33.236 -14.917 -19.726  0.00  0.00    +0.011 C 
ENDBRANCH  25  27
BRANCH  25  33
ATOM     33  C   UNL     1      33.651 -13.199 -24.522  0.00  0.00    -0.010 C 
BRANCH  33  34
ATOM     34  C   UNL     1      32.851 -14.149 -25.418  0.00  0.00    -0.085 C 
BRANCH  34  35
ATOM     35  N   UNL     1      33.270 -15.528 -25.192  0.00  0.00    +0.380 N 
ATOM     36  H   UNL     1      34.192 -15.675 -25.605  0.00  0.00    -0.089 HD
ATOM     37  H   UNL     1      32.598 -16.163 -25.624  0.00  0.00    -0.089 HD
ATOM     38  H   UNL     1      33.314 -15.710 -24.189  0.00  0.00    -0.089 HD
ENDBRANCH  34  35
ENDBRANCH  33  34
ENDBRANCH  25  33
ENDBRANCH  23  25
ENDBRANCH   5  22
TORSDOF 7
ENDMDL
MODEL 4
REMARK VINA RESULT:      -9.4      2.165      3.188
REMARK  Name = 24894158
REMARK  7 active torsions:
REMARK  status: ('A' for Active; 'I' for Inactive)
REMARK    1  A    between atoms: C_5  and  N_22
REMARK    2  A    between atoms: C_12  and  C_15
REMARK    3  A    between atoms: C_23  and  C_25
REMARK    4  A    between atoms: C_25  and  C_27
REMARK    5  A    between atoms: C_25  and  C_33
REMARK    6  A    between atoms: C_33  and  C_34
REMARK    7  A    between atoms: C_34  and  N_35
REMARK                            x       y       z     vdW  Elec       q    Type
REMARK                         _______ _______ _______ _____ _____    ______ ____
ROOT
ATOM      1  O   UNL     1      32.265 -20.777 -19.808  0.00  0.00    -0.270 OA
ATOM      2  N   UNL     1      30.848 -23.075 -16.537  0.00  0.00    -0.275 N 
ATOM      3  N   UNL     1      31.364 -22.372 -17.559  0.00  0.00    -0.157 NA
ATOM      4  N   UNL     1      33.593 -21.747 -18.124  0.00  0.00    -0.264 N 
ATOM      5  C   UNL     1      34.071 -24.130 -14.236  0.00  0.00    +0.050 C 
ATOM      6  C   UNL     1      33.001 -23.075 -16.122  0.00  0.00    +0.052 A 
ATOM      7  C   UNL     1      31.777 -23.526 -15.639  0.00  0.00    +0.077 A 
ATOM      8  C   UNL     1      34.175 -23.377 -15.412  0.00  0.00    +0.019 C 
ATOM      9  C   UNL     1      32.829 -24.570 -13.774  0.00  0.00    +0.016 C 
ATOM     10  C   UNL     1      32.674 -22.373 -17.302  0.00  0.00    +0.155 A 
ATOM     11  C   UNL     1      31.651 -24.277 -14.468  0.00  0.00    +0.020 C 
ATOM     12  C   UNL     1      33.356 -21.004 -19.296  0.00  0.00    +0.251 C 
ATOM     13  H   UNL     1      29.883 -23.250 -16.442  0.00  0.00    +0.189 HD
ATOM     14  H   UNL     1      34.536 -21.831 -17.853  0.00  0.00    +0.157 HD
ENDROOT
BRANCH  12  15
ATOM     15  C   UNL     1      34.560 -20.425 -19.950  0.00  0.00    +0.054 C 
ATOM     16  C   UNL     1      35.832 -20.733 -19.466  0.00  0.00    +0.005 C 
ATOM     17  C   UNL     1      34.416 -19.574 -21.046  0.00  0.00    +0.005 C 
ATOM     18  C   UNL     1      36.960 -20.189 -20.080  0.00  0.00    +0.000 C 
ATOM     19  C   UNL     1      35.546 -19.031 -21.659  0.00  0.00    +0.000 C 
ATOM     20  C   UNL     1      36.818 -19.339 -21.176  0.00  0.00    +0.000 C 
ENDBRANCH  12  15
BRANCH   5  22
ATOM     21  O   UNL     1      36.296 -22.362 -13.280  0.00  0.00    -0.274 OA
ATOM     22  N   UNL     1      35.240 -24.446 -13.506  0.00  0.00    -0.284 N 
ATOM     23  C   UNL     1      36.240 -23.573 -13.084  0.00  0.00    +0.230 C 
ATOM     24  H   UNL     1      35.361 -25.393 -13.269  0.00  0.00    +0.155 HD
BRANCH  23  25
ATOM     25  C   UNL     1      37.344 -24.316 -12.316  0.00  0.00    +0.097 C 
BRANCH  25  27
ATOM     26 CL   UNL     1      41.484 -27.358 -13.268  0.00  0.00    -0.082 Cl
ATOM     27  C   UNL     1      38.441 -24.760 -13.270  0.00  0.00    -0.013 C 
ATOM     28  C   UNL     1      39.351 -25.742 -12.877  0.00  0.00    +0.008 C 
ATOM     29  C   UNL     1      38.539 -24.185 -14.537  0.00  0.00    -0.004 C 
ATOM     30  C   UNL     1      40.360 -26.148 -13.752  0.00  0.00    +0.057 C 
ATOM     31  C   UNL     1      39.546 -24.591 -15.412  0.00  0.00    +0.001 C 
ATOM     32  C   UNL     1      40.456 -25.572 -15.019  0.00  0.00    +0.011 C 
ENDBRANCH  25  27
BRANCH  25  33
ATOM     33  C   UNL     1      36.744 -25.487 -11.507  0.00  0.00    -0.010 C 
BRANCH  33  34
ATOM     34  C   UNL     1      35.922 -25.014 -10.304  0.00  0.00    -0.085 C 
BRANCH  34  35
ATOM     35  N   UNL     1      36.508 -23.804  -9.738  0.00  0.00    +0.380 N 
ATOM     36  H   UNL     1      36.873 -24.007  -8.807  0.00  0.00    -0.089 HD
ATOM     37  H   UNL     1      35.793 -23.079  -9.672  0.00  0.00    -0.089 HD
ATOM     38  H   UNL     1      37.267 -23.481 -10.337  0.00  0.00    -0.089 HD
ENDBRANCH  34  35
ENDBRANCH  33  34
ENDBRANCH  25  33
ENDBRANCH  23  25
ENDBRANCH   5  22
TORSDOF 7
ENDMDL
MODEL 5
REMARK VINA RESULT:      -9.4     12.392     18.065
REMARK  Name = 24894158
REMARK  7 active torsions:
REMARK  status: ('A' for Active; 'I' for Inactive)
REMARK    1  A    between atoms: C_5  and  N_22
REMARK    2  A    between atoms: C_12  and  C_15
REMARK    3  A    between atoms: C_23  and  C_25
REMARK    4  A    between atoms: C_25  and  C_27
REMARK    5  A    between atoms: C_25  and  C_33
REMARK    6  A    between atoms: C_33  and  C_34
REMARK    7  A    between atoms: C_34  and  N_35
REMARK                            x       y       z     vdW  Elec       q    Type
REMARK                         _______ _______ _______ _____ _____    ______ ____
ROOT
ATOM      1  O   UNL     1      32.850 -14.173 -20.355  0.00  0.00    -0.270 OA
ATOM      2  N   UNL     1      31.772 -10.447 -18.640  0.00  0.00    -0.275 N 
ATOM      3  N   UNL     1      32.141 -11.591 -19.241  0.00  0.00    -0.157 NA
ATOM      4  N   UNL     1      32.753 -12.110 -21.485  0.00  0.00    -0.264 N 
ATOM      5  C   UNL     1      31.868  -7.613 -21.598  0.00  0.00    +0.050 C 
ATOM      6  C   UNL     1      32.121  -9.843 -20.719  0.00  0.00    +0.052 A 
ATOM      7  C   UNL     1      31.740  -9.361 -19.472  0.00  0.00    +0.077 A 
ATOM      8  C   UNL     1      32.187  -8.960 -21.809  0.00  0.00    +0.019 C 
ATOM      9  C   UNL     1      31.489  -7.154 -20.335  0.00  0.00    +0.016 C 
ATOM     10  C   UNL     1      32.350 -11.220 -20.506  0.00  0.00    +0.155 A 
ATOM     11  C   UNL     1      31.417  -8.021 -19.240  0.00  0.00    +0.020 C 
ATOM     12  C   UNL     1      32.976 -13.495 -21.370  0.00  0.00    +0.251 C 
ATOM     13  H   UNL     1      31.545 -10.395 -17.683  0.00  0.00    +0.189 HD
ATOM     14  H   UNL     1      32.901 -11.724 -22.378  0.00  0.00    +0.157 HD
ENDROOT
BRANCH  12  15
ATOM     15  C   UNL     1      33.380 -14.191 -22.620  0.00  0.00    +0.054 C 
ATOM     16  C   UNL     1      32.819 -13.814 -23.841  0.00  0.00    +0.005 C 
ATOM     17  C   UNL     1      34.319 -15.222 -22.572  0.00  0.00    +0.005 C 
ATOM     18  C   UNL     1      33.198 -14.467 -25.013  0.00  0.00    +0.000 C 
ATOM     19  C   UNL     1      34.697 -15.875 -23.746  0.00  0.00    +0.000 C 
ATOM     20  C   UNL     1      34.137 -15.498 -24.966  0.00  0.00    +0.000 C 
ENDBRANCH  12  15
BRANCH   5  22
ATOM     21  O   UNL     1      31.598  -8.092 -24.546  0.00  0.00    -0.274 OA
ATOM     22  N   UNL     1      31.929  -6.705 -22.681  0.00  0.00    -0.284 N 
ATOM     23  C   UNL     1      31.789  -6.991 -24.038  0.00  0.00    +0.230 C 
ATOM     24  H   UNL     1      32.088  -5.762 -22.450  0.00  0.00    +0.155 HD
BRANCH  23  25
ATOM     25  C   UNL     1      31.921  -5.722 -24.893  0.00  0.00    +0.097 C 
BRANCH  25  27
ATOM     26 CL   UNL     1      34.470  -6.233 -29.425  0.00  0.00    -0.082 Cl
ATOM     27  C   UNL     1      33.238  -5.732 -25.652  0.00  0.00    -0.013 C 
ATOM     28  C   UNL     1      33.247  -5.950 -27.030  0.00  0.00    +0.008 C 
ATOM     29  C   UNL     1      34.437  -5.527 -24.970  0.00  0.00    -0.004 C 
ATOM     30  C   UNL     1      34.457  -5.963 -27.726  0.00  0.00    +0.057 C 
ATOM     31  C   UNL     1      35.646  -5.538 -25.666  0.00  0.00    +0.001 C 
ATOM     32  C   UNL     1      35.656  -5.756 -27.043  0.00  0.00    +0.011 C 
ENDBRANCH  25  27
BRANCH  25  33
ATOM     33  C   UNL     1      31.745  -4.460 -24.019  0.00  0.00    -0.010 C 
BRANCH  33  34
ATOM     34  C   UNL     1      30.738  -3.468 -24.608  0.00  0.00    -0.085 C 
BRANCH  34  35
ATOM     35  N   UNL     1      30.043  -2.760 -23.539  0.00  0.00    +0.380 N 
ATOM     36  H   UNL     1      30.616  -2.772 -22.695  0.00  0.00    -0.089 HD
ATOM     37  H   UNL     1      29.151  -3.220 -23.351  0.00  0.00    -0.089 HD
ATOM     38  H   UNL     1      29.875  -1.795 -23.823  0.00  0.00    -0.089 HD
ENDBRANCH  34  35
ENDBRANCH  33  34
ENDBRANCH  25  33
ENDBRANCH  23  25
ENDBRANCH   5  22
TORSDOF 7
ENDMDL
MODEL 6
REMARK VINA RESULT:      -9.3     12.836     18.819
REMARK  Name = 24894158
REMARK  7 active torsions:
REMARK  status: ('A' for Active; 'I' for Inactive)
REMARK    1  A    between atoms: C_5  and  N_22
REMARK    2  A    between atoms: C_12  and  C_15
REMARK    3  A    between atoms: C_23  and  C_25
REMARK    4  A    between atoms: C_25  and  C_27
REMARK    5  A    between atoms: C_25  and  C_33
REMARK    6  A    between atoms: C_33  and  C_34
REMARK    7  A    between atoms: C_34  and  N_35
REMARK                            x       y       z     vdW  Elec       q    Type
REMARK                         _______ _______ _______ _____ _____    ______ ____
ROOT
ATOM      1  O   UNL     1      32.523 -13.563 -20.820  0.00  0.00    -0.270 OA
ATOM      2  N   UNL     1      31.504  -9.481 -20.294  0.00  0.00    -0.275 N 
ATOM      3  N   UNL     1      31.868 -10.755 -20.518  0.00  0.00    -0.157 NA
ATOM      4  N   UNL     1      32.849 -11.845 -22.396  0.00  0.00    -0.264 N 
ATOM      5  C   UNL     1      32.447  -7.482 -23.745  0.00  0.00    +0.050 C 
ATOM      6  C   UNL     1      32.305  -9.432 -22.334  0.00  0.00    +0.052 A 
ATOM      7  C   UNL     1      31.740  -8.636 -21.344  0.00  0.00    +0.077 A 
ATOM      8  C   UNL     1      32.667  -8.853 -23.562  0.00  0.00    +0.019 C 
ATOM      9  C   UNL     1      31.878  -6.705 -22.734  0.00  0.00    +0.016 C 
ATOM     10  C   UNL     1      32.354 -10.722 -21.761  0.00  0.00    +0.155 A 
ATOM     11  C   UNL     1      31.511  -7.268 -21.507  0.00  0.00    +0.020 C 
ATOM     12  C   UNL     1      32.909 -13.167 -21.915  0.00  0.00    +0.251 C 
ATOM     13  H   UNL     1      31.102  -9.181 -19.446  0.00  0.00    +0.189 HD
ATOM     14  H   UNL     1      33.204 -11.702 -23.303  0.00  0.00    +0.157 HD
ENDROOT
BRANCH  12  15
ATOM     15  C   UNL     1      33.476 -14.172 -22.853  0.00  0.00    +0.054 C 
ATOM     16  C   UNL     1      33.039 -14.215 -24.177  0.00  0.00    +0.005 C 
ATOM     17  C   UNL     1      34.446 -15.072 -22.409  0.00  0.00    +0.005 C 
ATOM     18  C   UNL     1      33.572 -15.157 -25.057  0.00  0.00    +0.000 C 
ATOM     19  C   UNL     1      34.978 -16.014 -23.289  0.00  0.00    +0.000 C 
ATOM     20  C   UNL     1      34.541 -16.057 -24.614  0.00  0.00    +0.000 C 
ENDBRANCH  12  15
BRANCH   5  22
ATOM     21  O   UNL     1      34.978  -6.093 -24.557  0.00  0.00    -0.274 OA
ATOM     22  N   UNL     1      32.804  -6.877 -24.973  0.00  0.00    -0.284 N 
ATOM     23  C   UNL     1      34.006  -6.249 -25.291  0.00  0.00    +0.230 C 
ATOM     24  H   UNL     1      32.125  -6.903 -25.684  0.00  0.00    +0.155 HD
BRANCH  23  25
ATOM     25  C   UNL     1      33.995  -5.720 -26.734  0.00  0.00    +0.097 C 
BRANCH  25  27
ATOM     26 CL   UNL     1      38.076  -7.011 -29.730  0.00  0.00    -0.082 Cl
ATOM     27  C   UNL     1      35.413  -5.428 -27.199  0.00  0.00    -0.013 C 
ATOM     28  C   UNL     1      36.021  -6.256 -28.143  0.00  0.00    +0.008 C 
ATOM     29  C   UNL     1      36.105  -4.334 -26.680  0.00  0.00    -0.004 C 
ATOM     30  C   UNL     1      37.323  -5.989 -28.567  0.00  0.00    +0.057 C 
ATOM     31  C   UNL     1      37.406  -4.067 -27.106  0.00  0.00    +0.001 C 
ATOM     32  C   UNL     1      38.015  -4.894 -28.049  0.00  0.00    +0.011 C 
ENDBRANCH  25  27
BRANCH  25  33
ATOM     33  C   UNL     1      33.062  -4.495 -26.852  0.00  0.00    -0.010 C 
BRANCH  33  34
ATOM     34  C   UNL     1      32.476  -4.331 -28.258  0.00  0.00    -0.085 C 
BRANCH  34  35
ATOM     35  N   UNL     1      31.465  -3.280 -28.263  0.00  0.00    +0.380 N 
ATOM     36  H   UNL     1      31.619  -2.656 -27.472  0.00  0.00    -0.089 HD
ATOM     37  H   UNL     1      30.538  -3.700 -28.190  0.00  0.00    -0.089 HD
ATOM     38  H   UNL     1      31.530  -2.749 -29.132  0.00  0.00    -0.089 HD
ENDBRANCH  34  35
ENDBRANCH  33  34
ENDBRANCH  25  33
ENDBRANCH  23  25
ENDBRANCH   5  22
TORSDOF 7
ENDMDL
MODEL 7
REMARK VINA RESULT:      -9.2     13.185     19.063
REMARK  Name = 24894158
REMARK  7 active torsions:
REMARK  status: ('A' for Active; 'I' for Inactive)
REMARK    1  A    between atoms: C_5  and  N_22
REMARK    2  A    between atoms: C_12  and  C_15
REMARK    3  A    between atoms: C_23  and  C_25
REMARK    4  A    between atoms: C_25  and  C_27
REMARK    5  A    between atoms: C_25  and  C_33
REMARK    6  A    between atoms: C_33  and  C_34
REMARK    7  A    between atoms: C_34  and  N_35
REMARK                            x       y       z     vdW  Elec       q    Type
REMARK                         _______ _______ _______ _____ _____    ______ ____
ROOT
ATOM      1  O   UNL     1      32.371 -13.362 -20.848  0.00  0.00    -0.270 OA
ATOM      2  N   UNL     1      31.549  -9.216 -20.493  0.00  0.00    -0.275 N 
ATOM      3  N   UNL     1      31.857 -10.514 -20.659  0.00  0.00    -0.157 NA
ATOM      4  N   UNL     1      32.929 -11.705 -22.424  0.00  0.00    -0.264 N 
ATOM      5  C   UNL     1      32.897  -7.361 -23.889  0.00  0.00    +0.050 C 
ATOM      6  C   UNL     1      32.523  -9.264 -22.457  0.00  0.00    +0.052 A 
ATOM      7  C   UNL     1      31.923  -8.413 -21.536  0.00  0.00    +0.077 A 
ATOM      8  C   UNL     1      33.021  -8.737 -23.660  0.00  0.00    +0.019 C 
ATOM      9  C   UNL     1      32.290  -6.528 -22.947  0.00  0.00    +0.016 C 
ATOM     10  C   UNL     1      32.448 -10.539 -21.857  0.00  0.00    +0.155 A 
ATOM     11  C   UNL     1      31.788  -7.038 -21.745  0.00  0.00    +0.020 C 
ATOM     12  C   UNL     1      32.871 -13.016 -21.913  0.00  0.00    +0.251 C 
ATOM     13  H   UNL     1      31.095  -8.874 -19.690  0.00  0.00    +0.189 HD
ATOM     14  H   UNL     1      33.368 -11.605 -23.299  0.00  0.00    +0.157 HD
ENDROOT
BRANCH  12  15
ATOM     15  C   UNL     1      33.457 -14.073 -22.778  0.00  0.00    +0.054 C 
ATOM     16  C   UNL     1      34.399 -14.960 -22.255  0.00  0.00    +0.005 C 
ATOM     17  C   UNL     1      33.065 -14.179 -24.113  0.00  0.00    +0.005 C 
ATOM     18  C   UNL     1      34.948 -15.952 -23.067  0.00  0.00    +0.000 C 
ATOM     19  C   UNL     1      33.615 -15.172 -24.924  0.00  0.00    +0.000 C 
ATOM     20  C   UNL     1      34.557 -16.059 -24.401  0.00  0.00    +0.000 C 
ENDBRANCH  12  15
BRANCH   5  22
ATOM     21  O   UNL     1      35.462  -5.909 -24.444  0.00  0.00    -0.274 OA
ATOM     22  N   UNL     1      33.393  -6.808 -25.093  0.00  0.00    -0.284 N 
ATOM     23  C   UNL     1      34.603  -6.146 -25.289  0.00  0.00    +0.230 C 
ATOM     24  H   UNL     1      32.815  -6.902 -25.884  0.00  0.00    +0.155 HD
BRANCH  23  25
ATOM     25  C   UNL     1      34.764  -5.696 -26.750  0.00  0.00    +0.097 C 
BRANCH  25  27
ATOM     26 CL   UNL     1      39.050  -2.767 -27.343  0.00  0.00    -0.082 Cl
ATOM     27  C   UNL     1      35.400  -4.317 -26.809  0.00  0.00    -0.013 C 
ATOM     28  C   UNL     1      36.772  -4.191 -27.026  0.00  0.00    +0.008 C 
ATOM     29  C   UNL     1      34.612  -3.178 -26.645  0.00  0.00    -0.004 C 
ATOM     30  C   UNL     1      37.356  -2.924 -27.078  0.00  0.00    +0.057 C 
ATOM     31  C   UNL     1      35.195  -1.913 -26.698  0.00  0.00    +0.001 C 
ATOM     32  C   UNL     1      36.567  -1.786 -26.914  0.00  0.00    +0.011 C 
ENDBRANCH  25  27
BRANCH  25  33
ATOM     33  C   UNL     1      33.409  -5.763 -27.488  0.00  0.00    -0.010 C 
BRANCH  33  34
ATOM     34  C   UNL     1      33.560  -5.680 -29.010  0.00  0.00    -0.085 C 
BRANCH  34  35
ATOM     35  N   UNL     1      34.527  -6.668 -29.474  0.00  0.00    +0.380 N 
ATOM     36  H   UNL     1      35.324  -6.192 -29.896  0.00  0.00    -0.089 HD
ATOM     37  H   UNL     1      34.087  -7.274 -30.168  0.00  0.00    -0.089 HD
ATOM     38  H   UNL     1      34.845  -7.230 -28.685  0.00  0.00    -0.089 HD
ENDBRANCH  34  35
ENDBRANCH  33  34
ENDBRANCH  25  33
ENDBRANCH  23  25
ENDBRANCH   5  22
TORSDOF 7
ENDMDL
MODEL 8
REMARK VINA RESULT:      -9.0     12.654     18.169
REMARK  Name = 24894158
REMARK  7 active torsions:
REMARK  status: ('A' for Active; 'I' for Inactive)
REMARK    1  A    between atoms: C_5  and  N_22
REMARK    2  A    between atoms: C_12  and  C_15
REMARK    3  A    between atoms: C_23  and  C_25
REMARK    4  A    between atoms: C_25  and  C_27
REMARK    5  A    between atoms: C_25  and  C_33
REMARK    6  A    between atoms: C_33  and  C_34
REMARK    7  A    between atoms: C_34  and  N_35
REMARK                            x       y       z     vdW  Elec       q    Type
REMARK                         _______ _______ _______ _____ _____    ______ ____
ROOT
ATOM      1  O   UNL     1      32.545 -14.094 -20.476  0.00  0.00    -0.270 OA
ATOM      2  N   UNL     1      31.546 -10.225 -19.057  0.00  0.00    -0.275 N 
ATOM      3  N   UNL     1      31.901 -11.419 -19.560  0.00  0.00    -0.157 NA
ATOM      4  N   UNL     1      32.796 -12.080 -21.668  0.00  0.00    -0.264 N 
ATOM      5  C   UNL     1      32.328  -7.535 -22.048  0.00  0.00    +0.050 C 
ATOM      6  C   UNL     1      32.253  -9.740 -21.075  0.00  0.00    +0.052 A 
ATOM      7  C   UNL     1      31.733  -9.176 -19.916  0.00  0.00    +0.077 A 
ATOM      8  C   UNL     1      32.558  -8.911 -22.168  0.00  0.00    +0.019 C 
ATOM      9  C   UNL     1      31.804  -6.995 -20.872  0.00  0.00    +0.016 C 
ATOM     10  C   UNL     1      32.329 -11.120 -20.789  0.00  0.00    +0.155 A 
ATOM     11  C   UNL     1      31.495  -7.806 -19.776  0.00  0.00    +0.020 C 
ATOM     12  C   UNL     1      32.880 -13.473 -21.480  0.00  0.00    +0.251 C 
ATOM     13  H   UNL     1      31.183 -10.114 -18.149  0.00  0.00    +0.189 HD
ATOM     14  H   UNL     1      33.109 -11.746 -22.540  0.00  0.00    +0.157 HD
ENDROOT
BRANCH  12  15
ATOM     15  C   UNL     1      33.405 -14.251 -22.632  0.00  0.00    +0.054 C 
ATOM     16  C   UNL     1      34.409 -15.199 -22.434  0.00  0.00    +0.005 C 
ATOM     17  C   UNL     1      32.893 -14.033 -23.912  0.00  0.00    +0.005 C 
ATOM     18  C   UNL     1      34.901 -15.929 -23.516  0.00  0.00    +0.000 C 
ATOM     19  C   UNL     1      33.385 -14.764 -24.993  0.00  0.00    +0.000 C 
ATOM     20  C   UNL     1      34.390 -15.712 -24.795  0.00  0.00    +0.000 C 
ENDBRANCH  12  15
BRANCH   5  22
ATOM     21  O   UNL     1      34.972  -6.575 -23.086  0.00  0.00    -0.274 OA
ATOM     22  N   UNL     1      32.628  -6.682 -23.136  0.00  0.00    -0.284 N 
ATOM     23  C   UNL     1      33.886  -6.275 -23.574  0.00  0.00    +0.230 C 
ATOM     24  H   UNL     1      31.858  -6.335 -23.641  0.00  0.00    +0.155 HD
BRANCH  23  25
ATOM     25  C   UNL     1      33.780  -5.343 -24.791  0.00  0.00    +0.097 C 
BRANCH  25  27
ATOM     26 CL   UNL     1      30.633  -2.525 -21.718  0.00  0.00    -0.082 Cl
ATOM     27  C   UNL     1      32.574  -4.430 -24.652  0.00  0.00    -0.013 C 
ATOM     28  C   UNL     1      32.203  -3.951 -23.396  0.00  0.00    +0.008 C 
ATOM     29  C   UNL     1      31.837  -4.072 -25.781  0.00  0.00    -0.004 C 
ATOM     30  C   UNL     1      31.093  -3.114 -23.268  0.00  0.00    +0.057 C 
ATOM     31  C   UNL     1      30.728  -3.235 -25.654  0.00  0.00    +0.001 C 
ATOM     32  C   UNL     1      30.356  -2.756 -24.398  0.00  0.00    +0.011 C 
ENDBRANCH  25  27
BRANCH  25  33
ATOM     33  C   UNL     1      33.762  -6.165 -26.099  0.00  0.00    -0.010 C 
BRANCH  33  34
ATOM     34  C   UNL     1      34.935  -5.829 -27.025  0.00  0.00    -0.085 C 
BRANCH  34  35
ATOM     35  N   UNL     1      34.496  -4.933 -28.089  0.00  0.00    +0.380 N 
ATOM     36  H   UNL     1      34.888  -5.243 -28.978  0.00  0.00    -0.089 HD
ATOM     37  H   UNL     1      34.817  -3.985 -27.888  0.00  0.00    -0.089 HD
ATOM     38  H   UNL     1      33.478  -4.943 -28.144  0.00  0.00    -0.089 HD
ENDBRANCH  34  35
ENDBRANCH  33  34
ENDBRANCH  25  33
ENDBRANCH  23  25
ENDBRANCH   5  22
TORSDOF 7
ENDMDL
MODEL 9
REMARK VINA RESULT:      -8.9     13.028     17.649
REMARK  Name = 24894158
REMARK  7 active torsions:
REMARK  status: ('A' for Active; 'I' for Inactive)
REMARK    1  A    between atoms: C_5  and  N_22
REMARK    2  A    between atoms: C_12  and  C_15
REMARK    3  A    between atoms: C_23  and  C_25
REMARK    4  A    between atoms: C_25  and  C_27
REMARK    5  A    between atoms: C_25  and  C_33
REMARK    6  A    between atoms: C_33  and  C_34
REMARK    7  A    between atoms: C_34  and  N_35
REMARK                            x       y       z     vdW  Elec       q    Type
REMARK                         _______ _______ _______ _____ _____    ______ ____
ROOT
ATOM      1  O   UNL     1      33.957  -3.571 -27.449  0.00  0.00    -0.270 OA
ATOM      2  N   UNL     1      31.985  -3.351 -23.701  0.00  0.00    -0.275 N 
ATOM      3  N   UNL     1      32.608  -3.494 -24.883  0.00  0.00    -0.157 NA
ATOM      4  N   UNL     1      33.720  -5.335 -25.909  0.00  0.00    -0.264 N 
ATOM      5  C   UNL     1      32.311  -7.008 -21.880  0.00  0.00    +0.050 C 
ATOM      6  C   UNL     1      32.664  -5.436 -23.673  0.00  0.00    +0.052 A 
ATOM      7  C   UNL     1      31.983  -4.481 -22.927  0.00  0.00    +0.077 A 
ATOM      8  C   UNL     1      32.837  -6.727 -23.146  0.00  0.00    +0.019 C 
ATOM      9  C   UNL     1      31.631  -6.029 -21.151  0.00  0.00    +0.016 C 
ATOM     10  C   UNL     1      33.021  -4.763 -24.862  0.00  0.00    +0.155 A 
ATOM     11  C   UNL     1      31.452  -4.740 -21.662  0.00  0.00    +0.020 C 
ATOM     12  C   UNL     1      34.141  -4.736 -27.111  0.00  0.00    +0.251 C 
ATOM     13  H   UNL     1      31.567  -2.507 -23.415  0.00  0.00    +0.189 HD
ATOM     14  H   UNL     1      33.954  -6.285 -25.798  0.00  0.00    +0.157 HD
ENDROOT
BRANCH  12  15
ATOM     15  C   UNL     1      34.906  -5.611 -28.037  0.00  0.00    +0.054 C 
ATOM     16  C   UNL     1      36.263  -5.847 -27.813  0.00  0.00    +0.005 C 
ATOM     17  C   UNL     1      34.267  -6.197 -29.131  0.00  0.00    +0.005 C 
ATOM     18  C   UNL     1      36.980  -6.669 -28.683  0.00  0.00    +0.000 C 
ATOM     19  C   UNL     1      34.985  -7.019 -30.000  0.00  0.00    +0.000 C 
ATOM     20  C   UNL     1      36.342  -7.255 -29.776  0.00  0.00    +0.000 C 
ENDBRANCH  12  15
BRANCH   5  22
ATOM     21  O   UNL     1      30.878  -9.569 -22.495  0.00  0.00    -0.274 OA
ATOM     22  N   UNL     1      32.473  -8.301 -21.329  0.00  0.00    -0.284 N 
ATOM     23  C   UNL     1      31.775  -9.460 -21.664  0.00  0.00    +0.230 C 
ATOM     24  H   UNL     1      33.158  -8.393 -20.629  0.00  0.00    +0.155 HD
BRANCH  23  25
ATOM     25  C   UNL     1      32.252 -10.660 -20.832  0.00  0.00    +0.097 C 
BRANCH  25  27
ATOM     26 CL   UNL     1      34.440 -15.376 -21.351  0.00  0.00    -0.082 Cl
ATOM     27  C   UNL     1      32.841 -11.729 -21.738  0.00  0.00    -0.013 C 
ATOM     28  C   UNL     1      33.312 -12.923 -21.192  0.00  0.00    +0.008 C 
ATOM     29  C   UNL     1      32.911 -11.515 -23.114  0.00  0.00    -0.004 C 
ATOM     30  C   UNL     1      33.856 -13.903 -22.023  0.00  0.00    +0.057 C 
ATOM     31  C   UNL     1      33.453 -12.495 -23.945  0.00  0.00    +0.001 C 
ATOM     32  C   UNL     1      33.925 -13.688 -23.401  0.00  0.00    +0.011 C 
ENDBRANCH  25  27
BRANCH  25  33
ATOM     33  C   UNL     1      31.104 -11.192 -19.946  0.00  0.00    -0.010 C 
BRANCH  33  34
ATOM     34  C   UNL     1      30.757 -10.243 -18.794  0.00  0.00    -0.085 C 
BRANCH  34  35
ATOM     35  N   UNL     1      31.915 -10.060 -17.927  0.00  0.00    +0.380 N 
ATOM     36  H   UNL     1      32.728  -9.817 -18.492  0.00  0.00    -0.089 HD
ATOM     37  H   UNL     1      32.100 -10.926 -17.419  0.00  0.00    -0.089 HD
ATOM     38  H   UNL     1      31.727  -9.310 -17.262  0.00  0.00    -0.089 HD
ENDBRANCH  34  35
ENDBRANCH  33  34
ENDBRANCH  25  33
ENDBRANCH  23  25
ENDBRANCH   5  22
TORSDOF 7
ENDMDL
