MODEL 1
REMARK VINA RESULT:     -11.5      0.000      0.000
REMARK  Name = 5288018
REMARK  3 active torsions:
REMARK  status: ('A' for Active; 'I' for Inactive)
REMARK    1  A    between atoms: C_9  and  N_24
REMARK    2  A    between atoms: C_10  and  C_17
REMARK    3  A    between atoms: N_23  and  N_29
REMARK                            x       y       z     vdW  Elec       q    Type
REMARK                         _______ _______ _______ _____ _____    ______ ____
ROOT
ATOM      1  O   UNL     1      32.383 -22.346 -17.737  0.00  0.00    -0.286 OA
ATOM      2  N   UNL     1      32.341 -24.037 -13.608  0.00  0.00    -0.278 N 
ATOM      3  N   UNL     1      33.699 -23.930 -13.578  0.00  0.00    -0.173 NA
ATOM      4  C   UNL     1      34.634 -22.539 -16.781  0.00  0.00    +0.054 C 
ATOM      5  C   UNL     1      32.803 -23.203 -15.547  0.00  0.00    +0.072 A 
ATOM      6  C   UNL     1      35.102 -23.012 -15.523  0.00  0.00    +0.024 C 
ATOM      7  C   UNL     1      33.952 -23.419 -14.774  0.00  0.00    +0.105 A 
ATOM      8  C   UNL     1      33.134 -22.650 -16.832  0.00  0.00    +0.199 C 
ATOM      9  C   UNL     1      35.502 -22.076 -17.728  0.00  0.00    +0.055 C 
ATOM     10  C   UNL     1      31.755 -23.608 -14.783  0.00  0.00    +0.073 A 
ATOM     11  C   UNL     1      36.442 -23.021 -15.210  0.00  0.00    +0.002 C 
ATOM     12  C   UNL     1      36.859 -22.075 -17.435  0.00  0.00    +0.015 C 
ATOM     13  C   UNL     1      37.324 -22.545 -16.185  0.00  0.00    +0.001 C 
ATOM     14  H   UNL     1      31.819 -24.391 -12.852  0.00  0.00    +0.189 HD
ENDROOT
BRANCH  10  17
ATOM     15  S   UNL     1      29.504 -22.217 -15.474  0.00  0.00    -0.075 S 
ATOM     16  N   UNL     1      28.163 -24.414 -15.236  0.00  0.00    -0.407 NA
ATOM     17  C   UNL     1      30.364 -23.633 -15.020  0.00  0.00    +0.141 C 
ATOM     18  C   UNL     1      29.483 -24.696 -14.945  0.00  0.00    +0.103 C 
ATOM     19  C   UNL     1      28.056 -23.137 -15.529  0.00  0.00    +0.135 C 
ATOM     20  C   UNL     1      29.826 -26.090 -14.587  0.00  0.00    +0.063 C 
ATOM     21  C   UNL     1      26.790 -22.465 -15.894  0.00  0.00    +0.074 C 
ENDBRANCH  10  17
BRANCH   9  24
ATOM     22  O   UNL     1      36.537 -19.846 -19.449  0.00  0.00    -0.251 OA
ATOM     23  N   UNL     1      34.844 -20.407 -20.923  0.00  0.00    -0.231 N 
ATOM     24  N   UNL     1      35.052 -21.603 -18.982  0.00  0.00    -0.267 N 
ATOM     25  C   UNL     1      35.576 -20.554 -19.744  0.00  0.00    +0.318 C 
ATOM     26  H   UNL     1      34.081 -20.999 -21.113  0.00  0.00    +0.171 HD
ATOM     27  H   UNL     1      34.275 -22.070 -19.366  0.00  0.00    +0.156 HD
BRANCH  23  29
ATOM     28  N   UNL     1      34.623 -17.071 -23.398  0.00  0.00    +0.387 N 
ATOM     29  N   UNL     1      35.202 -19.418 -21.820  0.00  0.00    -0.209 NA
ATOM     30  C   UNL     1      35.454 -16.991 -22.190  0.00  0.00    -0.058 C 
ATOM     31  C   UNL     1      34.745 -18.396 -24.019  0.00  0.00    -0.058 C 
ATOM     32  C   UNL     1      35.080 -18.097 -21.197  0.00  0.00    +0.069 C 
ATOM     33  C   UNL     1      34.372 -19.501 -23.026  0.00  0.00    +0.069 C 
ATOM     34  C   UNL     1      34.982 -16.018 -24.346  0.00  0.00    -0.101 C 
ATOM     35  H   UNL     1      33.649 -16.933 -23.128  0.00  0.00    -0.080 HD
ENDBRANCH  23  29
ENDBRANCH   9  24
TORSDOF 3
ENDMDL
MODEL 2
REMARK VINA RESULT:     -11.1      2.772      5.585
REMARK  Name = 5288018
REMARK  3 active torsions:
REMARK  status: ('A' for Active; 'I' for Inactive)
REMARK    1  A    between atoms: C_9  and  N_24
REMARK    2  A    between atoms: C_10  and  C_17
REMARK    3  A    between atoms: N_23  and  N_29
REMARK                            x       y       z     vdW  Elec       q    Type
REMARK                         _______ _______ _______ _____ _____    ______ ____
ROOT
ATOM      1  O   UNL     1      35.700 -23.072 -16.429  0.00  0.00    -0.286 OA
ATOM      2  N   UNL     1      34.523 -25.019 -12.592  0.00  0.00    -0.278 N 
ATOM      3  N   UNL     1      33.217 -24.780 -12.901  0.00  0.00    -0.173 NA
ATOM      4  C   UNL     1      33.270 -23.102 -16.102  0.00  0.00    +0.054 C 
ATOM      5  C   UNL     1      34.654 -24.023 -14.504  0.00  0.00    +0.072 A 
ATOM      6  C   UNL     1      32.452 -23.606 -15.052  0.00  0.00    +0.024 C 
ATOM      7  C   UNL     1      33.328 -24.172 -14.072  0.00  0.00    +0.105 A 
ATOM      8  C   UNL     1      34.717 -23.357 -15.777  0.00  0.00    +0.199 C 
ATOM      9  C   UNL     1      32.720 -22.496 -17.196  0.00  0.00    +0.055 C 
ATOM     10  C   UNL     1      35.428 -24.577 -13.535  0.00  0.00    +0.073 A 
ATOM     11  C   UNL     1      31.080 -23.504 -15.095  0.00  0.00    +0.002 C 
ATOM     12  C   UNL     1      31.338 -22.382 -17.261  0.00  0.00    +0.015 C 
ATOM     13  C   UNL     1      30.526 -22.882 -16.218  0.00  0.00    +0.001 C 
ATOM     14  H   UNL     1      34.799 -25.472 -11.762  0.00  0.00    +0.189 HD
ENDROOT
BRANCH  10  17
ATOM     15  S   UNL     1      37.707 -25.818 -14.401  0.00  0.00    -0.075 S 
ATOM     16  N   UNL     1      39.030 -24.439 -12.659  0.00  0.00    -0.407 NA
ATOM     17  C   UNL     1      36.826 -24.725 -13.410  0.00  0.00    +0.141 C 
ATOM     18  C   UNL     1      37.700 -24.085 -12.550  0.00  0.00    +0.103 C 
ATOM     19  C   UNL     1      39.152 -25.346 -13.603  0.00  0.00    +0.135 C 
ATOM     20  C   UNL     1      37.340 -23.068 -11.538  0.00  0.00    +0.063 C 
ATOM     21  C   UNL     1      40.432 -25.967 -14.007  0.00  0.00    +0.074 C 
ENDBRANCH  10  17
BRANCH   9  24
ATOM     22  O   UNL     1      32.187 -20.283 -19.151  0.00  0.00    -0.251 OA
ATOM     23  N   UNL     1      34.276 -20.759 -20.022  0.00  0.00    -0.231 N 
ATOM     24  N   UNL     1      33.520 -21.990 -18.246  0.00  0.00    -0.267 N 
ATOM     25  C   UNL     1      33.219 -20.950 -19.132  0.00  0.00    +0.318 C 
ATOM     26  H   UNL     1      35.083 -21.321 -19.966  0.00  0.00    +0.171 HD
ATOM     27  H   UNL     1      34.395 -22.423 -18.370  0.00  0.00    +0.156 HD
BRANCH  23  29
ATOM     28  N   UNL     1      35.327 -17.991 -22.944  0.00  0.00    +0.387 N 
ATOM     29  N   UNL     1      34.177 -19.773 -20.985  0.00  0.00    -0.209 NA
ATOM     30  C   UNL     1      34.568 -19.181 -23.349  0.00  0.00    -0.058 C 
ATOM     31  C   UNL     1      34.850 -17.493 -21.648  0.00  0.00    -0.058 C 
ATOM     32  C   UNL     1      34.654 -20.274 -22.278  0.00  0.00    +0.069 C 
ATOM     33  C   UNL     1      34.935 -18.586 -20.578  0.00  0.00    +0.069 C 
ATOM     34  C   UNL     1      35.243 -16.949 -23.964  0.00  0.00    -0.101 C 
ATOM     35  H   UNL     1      36.308 -18.255 -22.844  0.00  0.00    -0.080 HD
ENDBRANCH  23  29
ENDBRANCH   9  24
TORSDOF 3
ENDMDL
MODEL 3
REMARK VINA RESULT:     -10.5      2.956      6.098
REMARK  Name = 5288018
REMARK  3 active torsions:
REMARK  status: ('A' for Active; 'I' for Inactive)
REMARK    1  A    between atoms: C_9  and  N_24
REMARK    2  A    between atoms: C_10  and  C_17
REMARK    3  A    between atoms: N_23  and  N_29
REMARK                            x       y       z     vdW  Elec       q    Type
REMARK                         _______ _______ _______ _____ _____    ______ ____
ROOT
ATOM      1  O   UNL     1      34.942 -23.913 -16.269  0.00  0.00    -0.286 OA
ATOM      2  N   UNL     1      35.427 -24.781 -11.920  0.00  0.00    -0.278 N 
ATOM      3  N   UNL     1      34.096 -24.543 -11.750  0.00  0.00    -0.173 NA
ATOM      4  C   UNL     1      32.834 -23.708 -15.032  0.00  0.00    +0.054 C 
ATOM      5  C   UNL     1      34.764 -24.294 -13.918  0.00  0.00    +0.072 A 
ATOM      6  C   UNL     1      32.509 -23.885 -13.659  0.00  0.00    +0.024 C 
ATOM      7  C   UNL     1      33.719 -24.248 -12.985  0.00  0.00    +0.105 A 
ATOM      8  C   UNL     1      34.302 -23.966 -15.239  0.00  0.00    +0.199 C 
ATOM      9  C   UNL     1      31.879 -23.354 -15.943  0.00  0.00    +0.055 C 
ATOM     10  C   UNL     1      35.876 -24.641 -13.218  0.00  0.00    +0.073 A 
ATOM     11  C   UNL     1      31.226 -23.710 -13.192  0.00  0.00    +0.002 C 
ATOM     12  C   UNL     1      30.577 -23.172 -15.496  0.00  0.00    +0.015 C 
ATOM     13  C   UNL     1      30.254 -23.348 -14.132  0.00  0.00    +0.001 C 
ATOM     14  H   UNL     1      36.021 -25.032 -11.176  0.00  0.00    +0.189 HD
ENDROOT
BRANCH  10  17
ATOM     15  S   UNL     1      38.100 -26.231 -13.114  0.00  0.00    -0.075 S 
ATOM     16  N   UNL     1      39.310 -24.507 -14.613  0.00  0.00    -0.407 NA
ATOM     17  C   UNL     1      37.217 -24.843 -13.609  0.00  0.00    +0.141 C 
ATOM     18  C   UNL     1      38.026 -24.046 -14.399  0.00  0.00    +0.103 C 
ATOM     19  C   UNL     1      39.462 -25.651 -13.983  0.00  0.00    +0.135 C 
ATOM     20  C   UNL     1      37.642 -22.762 -15.025  0.00  0.00    +0.063 C 
ATOM     21  C   UNL     1      40.708 -26.447 -13.981  0.00  0.00    +0.074 C 
ENDBRANCH  10  17
BRANCH   9  24
ATOM     22  O   UNL     1      33.904 -21.575 -17.261  0.00  0.00    -0.251 OA
ATOM     23  N   UNL     1      33.135 -22.443 -19.262  0.00  0.00    -0.231 N 
ATOM     24  N   UNL     1      32.186 -23.174 -17.311  0.00  0.00    -0.267 N 
ATOM     25  C   UNL     1      33.147 -22.325 -17.872  0.00  0.00    +0.318 C 
ATOM     26  H   UNL     1      32.507 -23.059 -19.705  0.00  0.00    +0.171 HD
ATOM     27  H   UNL     1      31.659 -23.710 -17.947  0.00  0.00    +0.156 HD
BRANCH  23  29
ATOM     28  N   UNL     1      35.768 -19.419 -20.368  0.00  0.00    +0.387 N 
ATOM     29  N   UNL     1      34.014 -21.684 -20.011  0.00  0.00    -0.209 NA
ATOM     30  C   UNL     1      36.302 -20.772 -20.169  0.00  0.00    -0.058 C 
ATOM     31  C   UNL     1      34.454 -19.475 -21.021  0.00  0.00    -0.058 C 
ATOM     32  C   UNL     1      35.325 -21.630 -19.357  0.00  0.00    +0.069 C 
ATOM     33  C   UNL     1      33.478 -20.333 -20.210  0.00  0.00    +0.069 C 
ATOM     34  C   UNL     1      36.699 -18.602 -21.144  0.00  0.00    -0.101 C 
ATOM     35  H   UNL     1      35.653 -18.981 -19.453  0.00  0.00    -0.080 HD
ENDBRANCH  23  29
ENDBRANCH   9  24
TORSDOF 3
ENDMDL
MODEL 4
REMARK VINA RESULT:     -10.2      8.949     15.051
REMARK  Name = 5288018
REMARK  3 active torsions:
REMARK  status: ('A' for Active; 'I' for Inactive)
REMARK    1  A    between atoms: C_9  and  N_24
REMARK    2  A    between atoms: C_10  and  C_17
REMARK    3  A    between atoms: N_23  and  N_29
REMARK                            x       y       z     vdW  Elec       q    Type
REMARK                         _______ _______ _______ _____ _____    ______ ____
ROOT
ATOM      1  O   UNL     1      33.095  -9.285 -23.481  0.00  0.00    -0.286 OA
ATOM      2  N   UNL     1      31.905  -5.291 -21.888  0.00  0.00    -0.278 N 
ATOM      3  N   UNL     1      31.519  -5.897 -20.730  0.00  0.00    -0.173 NA
ATOM      4  C   UNL     1      32.192  -9.416 -21.204  0.00  0.00    +0.054 C 
ATOM      5  C   UNL     1      32.342  -7.374 -22.263  0.00  0.00    +0.072 A 
ATOM      6  C   UNL     1      31.695  -8.425 -20.313  0.00  0.00    +0.024 C 
ATOM      7  C   UNL     1      31.797  -7.166 -20.988  0.00  0.00    +0.105 A 
ATOM      8  C   UNL     1      32.623  -8.765 -22.491  0.00  0.00    +0.199 C 
ATOM      9  C   UNL     1      32.227 -10.734 -20.845  0.00  0.00    +0.055 C 
ATOM     10  C   UNL     1      32.410  -6.148 -22.846  0.00  0.00    +0.073 A 
ATOM     11  C   UNL     1      31.233  -8.749 -19.058  0.00  0.00    +0.002 C 
ATOM     12  C   UNL     1      31.765 -11.085 -19.584  0.00  0.00    +0.015 C 
ATOM     13  C   UNL     1      31.272 -10.100 -18.699  0.00  0.00    +0.001 C 
ATOM     14  H   UNL     1      31.831  -4.320 -22.031  0.00  0.00    +0.189 HD
ENDROOT
BRANCH  10  17
ATOM     15  S   UNL     1      31.813  -4.980 -25.246  0.00  0.00    -0.075 S 
ATOM     16  N   UNL     1      34.282  -5.311 -25.936  0.00  0.00    -0.407 NA
ATOM     17  C   UNL     1      32.866  -5.727 -24.113  0.00  0.00    +0.141 C 
ATOM     18  C   UNL     1      34.134  -5.815 -24.659  0.00  0.00    +0.103 C 
ATOM     19  C   UNL     1      33.123  -4.845 -26.346  0.00  0.00    +0.135 C 
ATOM     20  C   UNL     1      35.328  -6.392 -24.004  0.00  0.00    +0.063 C 
ATOM     21  C   UNL     1      32.890  -4.226 -27.669  0.00  0.00    +0.074 C 
ENDBRANCH  10  17
BRANCH   9  24
ATOM     22  O   UNL     1      32.872 -13.620 -20.335  0.00  0.00    -0.251 OA
ATOM     23  N   UNL     1      33.465 -13.721 -22.568  0.00  0.00    -0.231 N 
ATOM     24  N   UNL     1      32.716 -11.731 -21.719  0.00  0.00    -0.267 N 
ATOM     25  C   UNL     1      33.001 -13.068 -21.425  0.00  0.00    +0.318 C 
ATOM     26  H   UNL     1      33.551 -13.234 -23.419  0.00  0.00    +0.171 HD
ATOM     27  H   UNL     1      32.878 -11.449 -22.649  0.00  0.00    +0.156 HD
BRANCH  23  29
ATOM     28  N   UNL     1      35.701 -17.227 -22.678  0.00  0.00    +0.387 N 
ATOM     29  N   UNL     1      33.805 -15.058 -22.490  0.00  0.00    -0.209 NA
ATOM     30  C   UNL     1      35.223 -16.743 -21.376  0.00  0.00    -0.058 C 
ATOM     31  C   UNL     1      34.679 -17.016 -23.711  0.00  0.00    -0.058 C 
ATOM     32  C   UNL     1      34.824 -15.265 -21.457  0.00  0.00    +0.069 C 
ATOM     33  C   UNL     1      34.280 -15.539 -23.791  0.00  0.00    +0.069 C 
ATOM     34  C   UNL     1      36.079 -18.636 -22.601  0.00  0.00    -0.101 C 
ATOM     35  H   UNL     1      36.531 -16.692 -22.934  0.00  0.00    -0.080 HD
ENDBRANCH  23  29
ENDBRANCH   9  24
TORSDOF 3
ENDMDL
MODEL 5
REMARK VINA RESULT:     -10.0      8.967     15.157
REMARK  Name = 5288018
REMARK  3 active torsions:
REMARK  status: ('A' for Active; 'I' for Inactive)
REMARK    1  A    between atoms: C_9  and  N_24
REMARK    2  A    between atoms: C_10  and  C_17
REMARK    3  A    between atoms: N_23  and  N_29
REMARK                            x       y       z     vdW  Elec       q    Type
REMARK                         _______ _______ _______ _____ _____    ______ ____
ROOT
ATOM      1  O   UNL     1      33.349  -9.282 -23.464  0.00  0.00    -0.286 OA
ATOM      2  N   UNL     1      32.261  -5.265 -21.856  0.00  0.00    -0.278 N 
ATOM      3  N   UNL     1      31.753  -5.875 -20.748  0.00  0.00    -0.173 NA
ATOM      4  C   UNL     1      32.265  -9.415 -21.267  0.00  0.00    +0.054 C 
ATOM      5  C   UNL     1      32.609  -7.360 -22.254  0.00  0.00    +0.072 A 
ATOM      6  C   UNL     1      31.756  -8.417 -20.389  0.00  0.00    +0.024 C 
ATOM      7  C   UNL     1      31.979  -7.151 -21.019  0.00  0.00    +0.105 A 
ATOM      8  C   UNL     1      32.831  -8.759 -22.498  0.00  0.00    +0.199 C 
ATOM      9  C   UNL     1      32.199 -10.740 -20.943  0.00  0.00    +0.055 C 
ATOM     10  C   UNL     1      32.790  -6.126 -22.795  0.00  0.00    +0.073 A 
ATOM     11  C   UNL     1      31.181  -8.744 -19.183  0.00  0.00    +0.002 C 
ATOM     12  C   UNL     1      31.622 -11.094 -19.731  0.00  0.00    +0.015 C 
ATOM     13  C   UNL     1      31.117 -10.104 -18.859  0.00  0.00    +0.001 C 
ATOM     14  H   UNL     1      32.251  -4.288 -21.976  0.00  0.00    +0.189 HD
ENDROOT
BRANCH  10  17
ATOM     15  S   UNL     1      34.976  -6.124 -24.440  0.00  0.00    -0.075 S 
ATOM     16  N   UNL     1      33.627  -4.677 -26.105  0.00  0.00    -0.407 NA
ATOM     17  C   UNL     1      33.366  -5.702 -24.012  0.00  0.00    +0.141 C 
ATOM     18  C   UNL     1      32.813  -4.933 -25.020  0.00  0.00    +0.103 C 
ATOM     19  C   UNL     1      34.792  -5.255 -25.909  0.00  0.00    +0.135 C 
ATOM     20  C   UNL     1      31.445  -4.371 -25.037  0.00  0.00    +0.063 C 
ATOM     21  C   UNL     1      35.924  -5.200 -26.859  0.00  0.00    +0.074 C 
ENDBRANCH  10  17
BRANCH   9  24
ATOM     22  O   UNL     1      32.847 -13.620 -20.405  0.00  0.00    -0.251 OA
ATOM     23  N   UNL     1      33.461 -13.737 -22.631  0.00  0.00    -0.231 N 
ATOM     24  N   UNL     1      32.699 -11.742 -21.805  0.00  0.00    -0.267 N 
ATOM     25  C   UNL     1      32.985 -13.077 -21.498  0.00  0.00    +0.318 C 
ATOM     26  H   UNL     1      33.554 -13.257 -23.486  0.00  0.00    +0.171 HD
ATOM     27  H   UNL     1      32.869 -11.468 -22.736  0.00  0.00    +0.156 HD
BRANCH  23  29
ATOM     28  N   UNL     1      35.699 -17.243 -22.730  0.00  0.00    +0.387 N 
ATOM     29  N   UNL     1      33.804 -15.073 -22.540  0.00  0.00    -0.209 NA
ATOM     30  C   UNL     1      35.244 -16.740 -21.427  0.00  0.00    -0.058 C 
ATOM     31  C   UNL     1      34.658 -17.048 -23.748  0.00  0.00    -0.058 C 
ATOM     32  C   UNL     1      34.841 -15.264 -21.522  0.00  0.00    +0.069 C 
ATOM     33  C   UNL     1      34.256 -15.573 -23.842  0.00  0.00    +0.069 C 
ATOM     34  C   UNL     1      36.080 -18.651 -22.639  0.00  0.00    -0.101 C 
ATOM     35  H   UNL     1      36.523 -16.711 -23.009  0.00  0.00    -0.080 HD
ENDBRANCH  23  29
ENDBRANCH   9  24
TORSDOF 3
ENDMDL
MODEL 6
REMARK VINA RESULT:      -9.9     11.107     18.244
REMARK  Name = 5288018
REMARK  3 active torsions:
REMARK  status: ('A' for Active; 'I' for Inactive)
REMARK    1  A    between atoms: C_9  and  N_24
REMARK    2  A    between atoms: C_10  and  C_17
REMARK    3  A    between atoms: N_23  and  N_29
REMARK                            x       y       z     vdW  Elec       q    Type
REMARK                         _______ _______ _______ _____ _____    ______ ____
ROOT
ATOM      1  O   UNL     1      32.493  -7.285 -25.260  0.00  0.00    -0.286 OA
ATOM      2  N   UNL     1      33.365  -3.082 -26.476  0.00  0.00    -0.278 N 
ATOM      3  N   UNL     1      32.783  -2.655 -25.319  0.00  0.00    -0.173 NA
ATOM      4  C   UNL     1      31.717  -5.652 -23.604  0.00  0.00    +0.054 C 
ATOM      5  C   UNL     1      32.764  -4.927 -25.525  0.00  0.00    +0.072 A 
ATOM      6  C   UNL     1      31.774  -4.231 -23.561  0.00  0.00    +0.024 C 
ATOM      7  C   UNL     1      32.426  -3.802 -24.761  0.00  0.00    +0.105 A 
ATOM      8  C   UNL     1      32.355  -6.142 -24.875  0.00  0.00    +0.199 C 
ATOM      9  C   UNL     1      31.146  -6.365 -22.589  0.00  0.00    +0.055 C 
ATOM     10  C   UNL     1      33.375  -4.452 -26.642  0.00  0.00    +0.073 A 
ATOM     11  C   UNL     1      31.259  -3.520 -22.502  0.00  0.00    +0.002 C 
ATOM     12  C   UNL     1      30.620  -5.670 -21.509  0.00  0.00    +0.015 C 
ATOM     13  C   UNL     1      30.676  -4.258 -21.467  0.00  0.00    +0.001 C 
ATOM     14  H   UNL     1      33.747  -2.463 -27.139  0.00  0.00    +0.189 HD
ENDROOT
BRANCH  10  17
ATOM     15  S   UNL     1      35.389  -6.001 -27.658  0.00  0.00    -0.075 S 
ATOM     16  N   UNL     1      34.225  -5.870 -29.963  0.00  0.00    -0.407 NA
ATOM     17  C   UNL     1      33.929  -5.101 -27.767  0.00  0.00    +0.141 C 
ATOM     18  C   UNL     1      33.461  -5.148 -29.067  0.00  0.00    +0.103 C 
ATOM     19  C   UNL     1      35.266  -6.365 -29.331  0.00  0.00    +0.135 C 
ATOM     20  C   UNL     1      32.231  -4.502 -29.576  0.00  0.00    +0.063 C 
ATOM     21  C   UNL     1      36.312  -7.196 -29.964  0.00  0.00    +0.074 C 
ENDBRANCH  10  17
BRANCH   9  24
ATOM     22  O   UNL     1      33.268  -8.419 -22.058  0.00  0.00    -0.251 OA
ATOM     23  N   UNL     1      31.633  -9.996 -22.491  0.00  0.00    -0.231 N 
ATOM     24  N   UNL     1      31.081  -7.777 -22.617  0.00  0.00    -0.267 N 
ATOM     25  C   UNL     1      32.109  -8.691 -22.359  0.00  0.00    +0.318 C 
ATOM     26  H   UNL     1      30.693 -10.161 -22.735  0.00  0.00    +0.171 HD
ATOM     27  H   UNL     1      30.205  -8.166 -22.846  0.00  0.00    +0.156 HD
BRANCH  23  29
ATOM     28  N   UNL     1      33.353 -13.777 -22.704  0.00  0.00    +0.387 N 
ATOM     29  N   UNL     1      32.496 -11.053 -22.278  0.00  0.00    -0.209 NA
ATOM     30  C   UNL     1      34.067 -12.649 -23.317  0.00  0.00    -0.058 C 
ATOM     31  C   UNL     1      32.726 -13.364 -21.442  0.00  0.00    -0.058 C 
ATOM     32  C   UNL     1      33.122 -11.462 -23.538  0.00  0.00    +0.069 C 
ATOM     33  C   UNL     1      31.782 -12.178 -21.664  0.00  0.00    +0.069 C 
ATOM     34  C   UNL     1      34.255 -14.907 -22.490  0.00  0.00    -0.101 C 
ATOM     35  H   UNL     1      32.618 -14.078 -23.344  0.00  0.00    -0.080 HD
ENDBRANCH  23  29
ENDBRANCH   9  24
TORSDOF 3
ENDMDL
MODEL 7
REMARK VINA RESULT:      -9.1     10.289     16.902
REMARK  Name = 5288018
REMARK  3 active torsions:
REMARK  status: ('A' for Active; 'I' for Inactive)
REMARK    1  A    between atoms: C_9  and  N_24
REMARK    2  A    between atoms: C_10  and  C_17
REMARK    3  A    between atoms: N_23  and  N_29
REMARK                            x       y       z     vdW  Elec       q    Type
REMARK                         _______ _______ _______ _____ _____    ______ ____
ROOT
ATOM      1  O   UNL     1      33.238  -7.647 -24.806  0.00  0.00    -0.286 OA
ATOM      2  N   UNL     1      32.190  -3.537 -23.420  0.00  0.00    -0.278 N 
ATOM      3  N   UNL     1      31.874  -4.057 -22.201  0.00  0.00    -0.173 NA
ATOM      4  C   UNL     1      32.482  -7.610 -22.473  0.00  0.00    +0.054 C 
ATOM      5  C   UNL     1      32.582  -5.647 -23.677  0.00  0.00    +0.072 A 
ATOM      6  C   UNL     1      32.054  -6.553 -21.622  0.00  0.00    +0.024 C 
ATOM      7  C   UNL     1      32.123  -5.345 -22.388  0.00  0.00    +0.105 A 
ATOM      8  C   UNL     1      32.836  -7.054 -23.826  0.00  0.00    +0.199 C 
ATOM      9  C   UNL     1      32.528  -8.900 -22.026  0.00  0.00    +0.055 C 
ATOM     10  C   UNL     1      32.624  -4.464 -24.347  0.00  0.00    +0.073 A 
ATOM     11  C   UNL     1      31.671  -6.784 -20.321  0.00  0.00    +0.002 C 
ATOM     12  C   UNL     1      32.146  -9.158 -20.717  0.00  0.00    +0.015 C 
ATOM     13  C   UNL     1      31.720  -8.108 -19.872  0.00  0.00    +0.001 C 
ATOM     14  H   UNL     1      32.116  -2.577 -23.625  0.00  0.00    +0.189 HD
ENDROOT
BRANCH  10  17
ATOM     15  S   UNL     1      34.509  -4.635 -26.321  0.00  0.00    -0.075 S 
ATOM     16  N   UNL     1      32.936  -3.256 -27.839  0.00  0.00    -0.407 NA
ATOM     17  C   UNL     1      33.001  -4.137 -25.666  0.00  0.00    +0.141 C 
ATOM     18  C   UNL     1      32.306  -3.417 -26.621  0.00  0.00    +0.103 C 
ATOM     19  C   UNL     1      34.104  -3.856 -27.796  0.00  0.00    +0.135 C 
ATOM     20  C   UNL     1      30.966  -2.814 -26.454  0.00  0.00    +0.063 C 
ATOM     21  C   UNL     1      35.066  -3.898 -28.919  0.00  0.00    +0.074 C 
ENDBRANCH  10  17
BRANCH   9  24
ATOM     22  O   UNL     1      32.357 -11.869 -21.629  0.00  0.00    -0.251 OA
ATOM     23  N   UNL     1      33.382 -12.048 -23.694  0.00  0.00    -0.231 N 
ATOM     24  N   UNL     1      32.951  -9.960 -22.859  0.00  0.00    -0.267 N 
ATOM     25  C   UNL     1      32.845 -11.335 -22.622  0.00  0.00    +0.318 C 
ATOM     26  H   UNL     1      33.763 -11.574 -24.468  0.00  0.00    +0.171 HD
ATOM     27  H   UNL     1      33.372  -9.701 -23.711  0.00  0.00    +0.156 HD
BRANCH  23  29
ATOM     28  N   UNL     1      34.535 -16.007 -24.249  0.00  0.00    +0.387 N 
ATOM     29  N   UNL     1      33.376 -13.430 -23.656  0.00  0.00    -0.209 NA
ATOM     30  C   UNL     1      34.556 -15.457 -22.887  0.00  0.00    -0.058 C 
ATOM     31  C   UNL     1      33.368 -15.508 -24.988  0.00  0.00    -0.058 C 
ATOM     32  C   UNL     1      34.541 -13.924 -22.917  0.00  0.00    +0.069 C 
ATOM     33  C   UNL     1      33.354 -13.976 -25.017  0.00  0.00    +0.069 C 
ATOM     34  C   UNL     1      34.546 -17.468 -24.219  0.00  0.00    -0.101 C 
ATOM     35  H   UNL     1      35.378 -15.695 -24.733  0.00  0.00    -0.080 HD
ENDBRANCH  23  29
ENDBRANCH   9  24
TORSDOF 3
ENDMDL
MODEL 8
REMARK VINA RESULT:      -9.1      9.775     14.771
REMARK  Name = 5288018
REMARK  3 active torsions:
REMARK  status: ('A' for Active; 'I' for Inactive)
REMARK    1  A    between atoms: C_9  and  N_24
REMARK    2  A    between atoms: C_10  and  C_17
REMARK    3  A    between atoms: N_23  and  N_29
REMARK                            x       y       z     vdW  Elec       q    Type
REMARK                         _______ _______ _______ _____ _____    ______ ____
ROOT
ATOM      1  O   UNL     1      34.112  -9.865 -23.602  0.00  0.00    -0.286 OA
ATOM      2  N   UNL     1      31.573 -12.001 -20.619  0.00  0.00    -0.278 N 
ATOM      3  N   UNL     1      31.183 -10.792 -20.125  0.00  0.00    -0.173 NA
ATOM      4  C   UNL     1      32.905  -8.323 -22.125  0.00  0.00    +0.054 C 
ATOM      5  C   UNL     1      32.644 -10.599 -21.867  0.00  0.00    +0.072 A 
ATOM      6  C   UNL     1      32.001  -8.540 -21.049  0.00  0.00    +0.024 C 
ATOM      7  C   UNL     1      31.853  -9.957 -20.905  0.00  0.00    +0.105 A 
ATOM      8  C   UNL     1      33.348  -9.649 -22.684  0.00  0.00    +0.199 C 
ATOM      9  C   UNL     1      33.252  -7.060 -22.511  0.00  0.00    +0.055 C 
ATOM     10  C   UNL     1      32.459 -11.932 -21.676  0.00  0.00    +0.073 A 
ATOM     11  C   UNL     1      31.440  -7.492 -20.356  0.00  0.00    +0.002 C 
ATOM     12  C   UNL     1      32.699  -5.986 -21.826  0.00  0.00    +0.015 C 
ATOM     13  C   UNL     1      31.801  -6.202 -20.757  0.00  0.00    +0.001 C 
ATOM     14  H   UNL     1      31.249 -12.855 -20.253  0.00  0.00    +0.189 HD
ENDROOT
BRANCH  10  17
ATOM     15  S   UNL     1      32.682 -13.361 -23.998  0.00  0.00    -0.075 S 
ATOM     16  N   UNL     1      34.147 -15.065 -22.720  0.00  0.00    -0.407 NA
ATOM     17  C   UNL     1      32.986 -13.064 -22.333  0.00  0.00    +0.141 C 
ATOM     18  C   UNL     1      33.781 -14.077 -21.828  0.00  0.00    +0.103 C 
ATOM     19  C   UNL     1      33.624 -14.792 -23.895  0.00  0.00    +0.135 C 
ATOM     20  C   UNL     1      34.268 -14.191 -20.436  0.00  0.00    +0.063 C 
ATOM     21  C   UNL     1      33.797 -15.627 -25.103  0.00  0.00    +0.074 C 
ENDBRANCH  10  17
BRANCH   9  24
ATOM     22  O   UNL     1      32.904  -5.475 -25.035  0.00  0.00    -0.251 OA
ATOM     23  N   UNL     1      35.074  -6.095 -25.540  0.00  0.00    -0.231 N 
ATOM     24  N   UNL     1      34.150  -6.828 -23.577  0.00  0.00    -0.267 N 
ATOM     25  C   UNL     1      33.933  -6.076 -24.737  0.00  0.00    +0.318 C 
ATOM     26  H   UNL     1      35.875  -6.593 -25.257  0.00  0.00    +0.171 HD
ATOM     27  H   UNL     1      35.038  -7.248 -23.495  0.00  0.00    +0.156 HD
BRANCH  23  29
ATOM     28  N   UNL     1      36.315  -3.739 -28.736  0.00  0.00    +0.387 N 
ATOM     29  N   UNL     1      35.066  -5.409 -26.740  0.00  0.00    -0.209 NA
ATOM     30  C   UNL     1      36.106  -5.174 -28.966  0.00  0.00    -0.058 C 
ATOM     31  C   UNL     1      35.287  -3.207 -27.833  0.00  0.00    -0.058 C 
ATOM     32  C   UNL     1      36.092  -5.943 -27.639  0.00  0.00    +0.069 C 
ATOM     33  C   UNL     1      35.274  -3.976 -26.508  0.00  0.00    +0.069 C 
ATOM     34  C   UNL     1      36.326  -3.006 -30.000  0.00  0.00    -0.101 C 
ATOM     35  H   UNL     1      37.226  -3.615 -28.293  0.00  0.00    -0.080 HD
ENDBRANCH  23  29
ENDBRANCH   9  24
TORSDOF 3
ENDMDL
MODEL 9
REMARK VINA RESULT:      -9.1      1.323      1.811
REMARK  Name = 5288018
REMARK  3 active torsions:
REMARK  status: ('A' for Active; 'I' for Inactive)
REMARK    1  A    between atoms: C_9  and  N_24
REMARK    2  A    between atoms: C_10  and  C_17
REMARK    3  A    between atoms: N_23  and  N_29
REMARK                            x       y       z     vdW  Elec       q    Type
REMARK                         _______ _______ _______ _____ _____    ______ ____
ROOT
ATOM      1  O   UNL     1      33.334 -23.149 -17.057  0.00  0.00    -0.286 OA
ATOM      2  N   UNL     1      31.822 -23.859 -12.919  0.00  0.00    -0.278 N 
ATOM      3  N   UNL     1      33.104 -23.776 -12.465  0.00  0.00    -0.173 NA
ATOM      4  C   UNL     1      35.135 -23.168 -15.392  0.00  0.00    +0.054 C 
ATOM      5  C   UNL     1      32.953 -23.496 -14.724  0.00  0.00    +0.072 A 
ATOM      6  C   UNL     1      35.133 -23.353 -13.981  0.00  0.00    +0.024 C 
ATOM      7  C   UNL     1      33.771 -23.555 -13.588  0.00  0.00    +0.105 A 
ATOM      8  C   UNL     1      33.726 -23.256 -15.912  0.00  0.00    +0.199 C 
ATOM      9  C   UNL     1      36.299 -22.949 -16.072  0.00  0.00    +0.055 C 
ATOM     10  C   UNL     1      31.683 -23.695 -14.283  0.00  0.00    +0.073 A 
ATOM     11  C   UNL     1      36.296 -23.319 -13.247  0.00  0.00    +0.002 C 
ATOM     12  C   UNL     1      37.486 -22.911 -15.354  0.00  0.00    +0.015 C 
ATOM     13  C   UNL     1      37.483 -23.096 -13.952  0.00  0.00    +0.001 C 
ATOM     14  H   UNL     1      31.056 -24.021 -12.323  0.00  0.00    +0.189 HD
ENDROOT
BRANCH  10  17
ATOM     15  S   UNL     1      29.872 -22.415 -15.884  0.00  0.00    -0.075 S 
ATOM     16  N   UNL     1      28.383 -24.525 -15.758  0.00  0.00    -0.407 NA
ATOM     17  C   UNL     1      30.444 -23.743 -14.957  0.00  0.00    +0.141 C 
ATOM     18  C   UNL     1      29.518 -24.769 -15.010  0.00  0.00    +0.103 C 
ATOM     19  C   UNL     1      28.461 -23.314 -16.266  0.00  0.00    +0.135 C 
ATOM     20  C   UNL     1      29.634 -26.086 -14.347  0.00  0.00    +0.063 C 
ATOM     21  C   UNL     1      27.427 -22.699 -17.126  0.00  0.00    +0.074 C 
ENDBRANCH  10  17
BRANCH   9  24
ATOM     22  O   UNL     1      36.010 -20.449 -17.706  0.00  0.00    -0.251 OA
ATOM     23  N   UNL     1      36.255 -21.815 -19.556  0.00  0.00    -0.231 N 
ATOM     24  N   UNL     1      36.318 -22.764 -17.473  0.00  0.00    -0.267 N 
ATOM     25  C   UNL     1      36.177 -21.568 -18.185  0.00  0.00    +0.318 C 
ATOM     26  H   UNL     1      36.390 -22.731 -19.891  0.00  0.00    +0.171 HD
ATOM     27  H   UNL     1      36.445 -23.576 -18.016  0.00  0.00    +0.156 HD
BRANCH  23  29
ATOM     28  N   UNL     1      35.609 -17.987 -21.051  0.00  0.00    +0.387 N 
ATOM     29  N   UNL     1      36.138 -20.758 -20.439  0.00  0.00    -0.209 NA
ATOM     30  C   UNL     1      36.975 -18.525 -21.075  0.00  0.00    -0.058 C 
ATOM     31  C   UNL     1      34.637 -19.038 -21.376  0.00  0.00    -0.058 C 
ATOM     32  C   UNL     1      37.111 -19.711 -20.113  0.00  0.00    +0.069 C 
ATOM     33  C   UNL     1      34.773 -20.223 -20.415  0.00  0.00    +0.069 C 
ATOM     34  C   UNL     1      35.480 -16.857 -21.970  0.00  0.00    -0.101 C 
ATOM     35  H   UNL     1      35.414 -17.649 -20.108  0.00  0.00    -0.080 HD
ENDBRANCH  23  29
ENDBRANCH   9  24
TORSDOF 3
ENDMDL
