MODEL 1
REMARK VINA RESULT:     -12.3      0.000      0.000
REMARK  Name = 5326868
REMARK  6 active torsions:
REMARK  status: ('A' for Active; 'I' for Inactive)
REMARK    1  A    between atoms: C_2  and  C_28
REMARK    2  A    between atoms: C_7  and  N_12
REMARK    3  A    between atoms: C_13  and  C_18
REMARK    4  A    between atoms: C_16  and  N_23
REMARK    5  A    between atoms: C_28  and  C_29
REMARK    6  A    between atoms: C_29  and  C_31
REMARK                            x       y       z     vdW  Elec       q    Type
REMARK                         _______ _______ _______ _____ _____    ______ ____
ROOT
ATOM      1  N   UNL     1      34.896 -17.658 -24.509  0.00  0.00    -0.312 N 
ATOM      2  C   UNL     1      35.320 -17.591 -22.331  0.00  0.00    -0.006 C 
ATOM      3  C   UNL     1      34.678 -16.375 -22.697  0.00  0.00    +0.012 C 
ATOM      4  C   UNL     1      34.424 -16.443 -24.068  0.00  0.00    +0.048 C 
ATOM      5  C   UNL     1      35.440 -18.359 -23.466  0.00  0.00    +0.058 C 
ATOM      6  C   UNL     1      34.290 -15.218 -21.991  0.00  0.00    +0.016 C 
ATOM      7  C   UNL     1      33.661 -14.176 -22.682  0.00  0.00    +0.051 C 
ATOM      8  C   UNL     1      33.796 -15.408 -24.772  0.00  0.00    +0.016 C 
ATOM      9  C   UNL     1      33.418 -14.272 -24.051  0.00  0.00    +0.016 C 
ATOM     10  H   UNL     1      34.850 -17.977 -25.438  0.00  0.00    +0.152 HD
ENDROOT
BRANCH   7  12
ATOM     11  O   UNL     1      31.598 -13.810 -20.537  0.00  0.00    -0.270 OA
ATOM     12  N   UNL     1      33.273 -13.027 -21.990  0.00  0.00    -0.280 N 
ATOM     13  C   UNL     1      32.298 -12.911 -20.992  0.00  0.00    +0.250 C 
ATOM     14  H   UNL     1      33.742 -12.197 -22.235  0.00  0.00    +0.155 HD
BRANCH  13  18
ATOM     15  F   UNL     1      31.973  -9.832 -17.277  0.00  0.00    -0.204 F 
ATOM     16  C   UNL     1      31.676  -9.218 -20.851  0.00  0.00    +0.050 C 
ATOM     17  C   UNL     1      31.869 -10.507 -21.350  0.00  0.00    +0.019 C 
ATOM     18  C   UNL     1      32.091 -11.537 -20.461  0.00  0.00    +0.057 C 
ATOM     19  C   UNL     1      31.711  -8.991 -19.475  0.00  0.00    +0.044 C 
ATOM     20  C   UNL     1      32.131 -11.339 -19.097  0.00  0.00    +0.034 C 
ATOM     21  C   UNL     1      31.938 -10.052 -18.598  0.00  0.00    +0.142 C 
BRANCH  16  23
ATOM     22  O   UNL     1      31.264  -5.955 -23.471  0.00  0.00    -0.350 OA
ATOM     23  N   UNL     1      31.450  -8.154 -21.730  0.00  0.00    -0.303 N 
ATOM     24  C   UNL     1      31.718  -8.320 -23.163  0.00  0.00    +0.123 C 
ATOM     25  C   UNL     1      31.607  -6.786 -21.218  0.00  0.00    +0.123 C 
ATOM     26  C   UNL     1      30.956  -7.262 -23.955  0.00  0.00    +0.164 C 
ATOM     27  C   UNL     1      30.849  -5.811 -22.112  0.00  0.00    +0.164 C 
ENDBRANCH  16  23
ENDBRANCH  13  18
ENDBRANCH   7  12
BRANCH   2  28
ATOM     28  C   UNL     1      35.779 -17.969 -20.979  0.00  0.00    +0.032 C 
BRANCH  28  29
ATOM     29  C   UNL     1      36.185 -19.453 -20.833  0.00  0.00    +0.031 C 
BRANCH  29  31
ATOM     30  N   UNL     1      33.130 -21.874 -19.052  0.00  0.00    -0.242 NA
ATOM     31  C   UNL     1      35.110 -20.305 -20.205  0.00  0.00    -0.019 C 
ATOM     32  C   UNL     1      33.782 -19.989 -20.418  0.00  0.00    +0.016 C 
ATOM     33  C   UNL     1      35.468 -21.389 -19.428  0.00  0.00    +0.016 C 
ATOM     34  C   UNL     1      32.833 -20.802 -19.821  0.00  0.00    +0.099 C 
ATOM     35  C   UNL     1      34.444 -22.140 -18.874  0.00  0.00    +0.099 C 
ENDBRANCH  29  31
ENDBRANCH  28  29
ENDBRANCH   2  28
TORSDOF 6
ENDMDL
MODEL 2
REMARK VINA RESULT:     -12.2      4.448     11.213
REMARK  Name = 5326868
REMARK  6 active torsions:
REMARK  status: ('A' for Active; 'I' for Inactive)
REMARK    1  A    between atoms: C_2  and  C_28
REMARK    2  A    between atoms: C_7  and  N_12
REMARK    3  A    between atoms: C_13  and  C_18
REMARK    4  A    between atoms: C_16  and  N_23
REMARK    5  A    between atoms: C_28  and  C_29
REMARK    6  A    between atoms: C_29  and  C_31
REMARK                            x       y       z     vdW  Elec       q    Type
REMARK                         _______ _______ _______ _____ _____    ______ ____
ROOT
ATOM      1  N   UNL     1      34.955 -16.548 -24.273  0.00  0.00    -0.312 N 
ATOM      2  C   UNL     1      34.900 -15.616 -22.258  0.00  0.00    -0.006 C 
ATOM      3  C   UNL     1      34.901 -17.029 -22.095  0.00  0.00    +0.012 C 
ATOM      4  C   UNL     1      34.935 -17.590 -23.373  0.00  0.00    +0.048 C 
ATOM      5  C   UNL     1      34.934 -15.351 -23.608  0.00  0.00    +0.058 C 
ATOM      6  C   UNL     1      34.873 -17.888 -20.978  0.00  0.00    +0.016 C 
ATOM      7  C   UNL     1      34.883 -19.273 -21.181  0.00  0.00    +0.051 C 
ATOM      8  C   UNL     1      34.944 -18.972 -23.592  0.00  0.00    +0.016 C 
ATOM      9  C   UNL     1      34.919 -19.805 -22.469  0.00  0.00    +0.016 C 
ATOM     10  H   UNL     1      34.981 -16.649 -25.251  0.00  0.00    +0.152 HD
ENDROOT
BRANCH   7  12
ATOM     11  O   UNL     1      32.676 -21.010 -20.134  0.00  0.00    -0.270 OA
ATOM     12  N   UNL     1      34.856 -20.131 -20.080  0.00  0.00    -0.280 N 
ATOM     13  C   UNL     1      33.792 -20.924 -19.632  0.00  0.00    +0.250 C 
ATOM     14  H   UNL     1      35.686 -20.184 -19.554  0.00  0.00    +0.155 HD
BRANCH  13  18
ATOM     15  F   UNL     1      36.886 -22.862 -16.461  0.00  0.00    -0.204 F 
ATOM     16  C   UNL     1      33.250 -22.966 -16.538  0.00  0.00    +0.050 C 
ATOM     17  C   UNL     1      32.995 -22.224 -17.692  0.00  0.00    +0.019 C 
ATOM     18  C   UNL     1      34.062 -21.716 -18.403  0.00  0.00    +0.057 C 
ATOM     19  C   UNL     1      34.564 -23.181 -16.122  0.00  0.00    +0.044 C 
ATOM     20  C   UNL     1      35.370 -21.914 -18.014  0.00  0.00    +0.034 C 
ATOM     21  C   UNL     1      35.624 -22.655 -16.861  0.00  0.00    +0.142 C 
BRANCH  16  23
ATOM     22  O   UNL     1      30.071 -24.326 -14.145  0.00  0.00    -0.350 OA
ATOM     23  N   UNL     1      32.187 -23.493 -15.796  0.00  0.00    -0.303 N 
ATOM     24  C   UNL     1      30.814 -23.060 -16.077  0.00  0.00    +0.123 C 
ATOM     25  C   UNL     1      32.443 -23.896 -14.407  0.00  0.00    +0.123 C 
ATOM     26  C   UNL     1      29.828 -24.087 -15.530  0.00  0.00    +0.164 C 
ATOM     27  C   UNL     1      31.372 -24.880 -13.951  0.00  0.00    +0.164 C 
ENDBRANCH  16  23
ENDBRANCH  13  18
ENDBRANCH   7  12
BRANCH   2  28
ATOM     28  C   UNL     1      34.869 -14.606 -21.181  0.00  0.00    +0.032 C 
BRANCH  28  29
ATOM     29  C   UNL     1      33.533 -14.534 -20.409  0.00  0.00    +0.031 C 
BRANCH  29  31
ATOM     30  N   UNL     1      31.226 -11.045 -21.345  0.00  0.00    -0.242 NA
ATOM     31  C   UNL     1      32.721 -13.306 -20.739  0.00  0.00    -0.019 C 
ATOM     32  C   UNL     1      32.276 -12.492 -19.716  0.00  0.00    +0.016 C 
ATOM     33  C   UNL     1      32.434 -13.015 -22.058  0.00  0.00    +0.016 C 
ATOM     34  C   UNL     1      31.535 -11.376 -20.070  0.00  0.00    +0.099 C 
ATOM     35  C   UNL     1      31.685 -11.876 -22.308  0.00  0.00    +0.099 C 
ENDBRANCH  29  31
ENDBRANCH  28  29
ENDBRANCH   2  28
TORSDOF 6
ENDMDL
MODEL 3
REMARK VINA RESULT:     -12.0      4.593     11.588
REMARK  Name = 5326868
REMARK  6 active torsions:
REMARK  status: ('A' for Active; 'I' for Inactive)
REMARK    1  A    between atoms: C_2  and  C_28
REMARK    2  A    between atoms: C_7  and  N_12
REMARK    3  A    between atoms: C_13  and  C_18
REMARK    4  A    between atoms: C_16  and  N_23
REMARK    5  A    between atoms: C_28  and  C_29
REMARK    6  A    between atoms: C_29  and  C_31
REMARK                            x       y       z     vdW  Elec       q    Type
REMARK                         _______ _______ _______ _____ _____    ______ ____
ROOT
ATOM      1  N   UNL     1      35.145 -16.491 -24.128  0.00  0.00    -0.312 N 
ATOM      2  C   UNL     1      34.928 -15.575 -22.118  0.00  0.00    -0.006 C 
ATOM      3  C   UNL     1      34.866 -16.989 -21.972  0.00  0.00    +0.012 C 
ATOM      4  C   UNL     1      35.004 -17.539 -23.247  0.00  0.00    +0.048 C 
ATOM      5  C   UNL     1      35.100 -15.300 -23.455  0.00  0.00    +0.058 C 
ATOM      6  C   UNL     1      34.703 -17.856 -20.872  0.00  0.00    +0.016 C 
ATOM      7  C   UNL     1      34.687 -19.238 -21.090  0.00  0.00    +0.051 C 
ATOM      8  C   UNL     1      34.989 -18.920 -23.480  0.00  0.00    +0.016 C 
ATOM      9  C   UNL     1      34.828 -19.760 -22.374  0.00  0.00    +0.016 C 
ATOM     10  H   UNL     1      35.261 -16.585 -25.101  0.00  0.00    +0.152 HD
ENDROOT
BRANCH   7  12
ATOM     11  O   UNL     1      36.671 -21.026 -19.728  0.00  0.00    -0.270 OA
ATOM     12  N   UNL     1      34.526 -20.104 -20.006  0.00  0.00    -0.280 N 
ATOM     13  C   UNL     1      35.492 -20.922 -19.406  0.00  0.00    +0.250 C 
ATOM     14  H   UNL     1      33.623 -20.145 -19.617  0.00  0.00    +0.155 HD
BRANCH  13  18
ATOM     15  F   UNL     1      31.939 -23.306 -17.154  0.00  0.00    -0.204 F 
ATOM     16  C   UNL     1      35.439 -22.922 -16.238  0.00  0.00    +0.050 C 
ATOM     17  C   UNL     1      35.896 -22.134 -17.295  0.00  0.00    +0.019 C 
ATOM     18  C   UNL     1      35.005 -21.760 -18.279  0.00  0.00    +0.057 C 
ATOM     19  C   UNL     1      34.102 -23.317 -16.191  0.00  0.00    +0.044 C 
ATOM     20  C   UNL     1      33.679 -22.138 -18.256  0.00  0.00    +0.034 C 
ATOM     21  C   UNL     1      33.222 -22.925 -17.200  0.00  0.00    +0.142 C 
BRANCH  16  23
ATOM     22  O   UNL     1      38.156 -23.840 -13.163  0.00  0.00    -0.350 OA
ATOM     23  N   UNL     1      36.321 -23.316 -15.227  0.00  0.00    -0.303 N 
ATOM     24  C   UNL     1      35.886 -23.292 -13.826  0.00  0.00    +0.123 C 
ATOM     25  C   UNL     1      37.759 -23.102 -15.439  0.00  0.00    +0.123 C 
ATOM     26  C   UNL     1      36.785 -24.200 -12.993  0.00  0.00    +0.164 C 
ATOM     27  C   UNL     1      38.557 -24.021 -14.521  0.00  0.00    +0.164 C 
ENDBRANCH  16  23
ENDBRANCH  13  18
ENDBRANCH   7  12
BRANCH   2  28
ATOM     28  C   UNL     1      34.827 -14.574 -21.037  0.00  0.00    +0.032 C 
BRANCH  28  29
ATOM     29  C   UNL     1      33.448 -14.516 -20.344  0.00  0.00    +0.031 C 
BRANCH  29  31
ATOM     30  N   UNL     1      31.239 -10.961 -21.266  0.00  0.00    -0.242 NA
ATOM     31  C   UNL     1      32.671 -13.265 -20.668  0.00  0.00    -0.019 C 
ATOM     32  C   UNL     1      32.340 -12.992 -21.981  0.00  0.00    +0.016 C 
ATOM     33  C   UNL     1      32.301 -12.410 -19.648  0.00  0.00    +0.016 C 
ATOM     34  C   UNL     1      31.625 -11.830 -22.227  0.00  0.00    +0.099 C 
ATOM     35  C   UNL     1      31.588 -11.274 -19.998  0.00  0.00    +0.099 C 
ENDBRANCH  29  31
ENDBRANCH  28  29
ENDBRANCH   2  28
TORSDOF 6
ENDMDL
MODEL 4
REMARK VINA RESULT:     -11.4      4.736      8.872
REMARK  Name = 5326868
REMARK  6 active torsions:
REMARK  status: ('A' for Active; 'I' for Inactive)
REMARK    1  A    between atoms: C_2  and  C_28
REMARK    2  A    between atoms: C_7  and  N_12
REMARK    3  A    between atoms: C_13  and  C_18
REMARK    4  A    between atoms: C_16  and  N_23
REMARK    5  A    between atoms: C_28  and  C_29
REMARK    6  A    between atoms: C_29  and  C_31
REMARK                            x       y       z     vdW  Elec       q    Type
REMARK                         _______ _______ _______ _____ _____    ______ ____
ROOT
ATOM      1  N   UNL     1      35.973 -23.343 -15.097  0.00  0.00    -0.312 N 
ATOM      2  C   UNL     1      33.919 -23.483 -15.928  0.00  0.00    -0.006 C 
ATOM      3  C   UNL     1      34.709 -22.704 -16.820  0.00  0.00    +0.012 C 
ATOM      4  C   UNL     1      35.992 -22.632 -16.275  0.00  0.00    +0.048 C 
ATOM      5  C   UNL     1      34.724 -23.861 -14.879  0.00  0.00    +0.058 C 
ATOM      6  C   UNL     1      34.452 -22.050 -18.042  0.00  0.00    +0.016 C 
ATOM      7  C   UNL     1      35.488 -21.351 -18.672  0.00  0.00    +0.051 C 
ATOM      8  C   UNL     1      37.038 -21.936 -16.894  0.00  0.00    +0.016 C 
ATOM      9  C   UNL     1      36.760 -21.297 -18.106  0.00  0.00    +0.016 C 
ATOM     10  H   UNL     1      36.745 -23.463 -14.499  0.00  0.00    +0.152 HD
ENDROOT
BRANCH   7  12
ATOM     11  O   UNL     1      36.845 -18.979 -19.906  0.00  0.00    -0.270 OA
ATOM     12  N   UNL     1      35.243 -20.700 -19.883  0.00  0.00    -0.280 N 
ATOM     13  C   UNL     1      35.910 -19.590 -20.414  0.00  0.00    +0.250 C 
ATOM     14  H   UNL     1      34.511 -21.066 -20.430  0.00  0.00    +0.155 HD
BRANCH  13  18
ATOM     15  F   UNL     1      34.515 -20.425 -24.968  0.00  0.00    -0.204 F 
ATOM     16  C   UNL     1      34.647 -17.305 -23.102  0.00  0.00    +0.050 C 
ATOM     17  C   UNL     1      35.131 -17.759 -21.875  0.00  0.00    +0.019 C 
ATOM     18  C   UNL     1      35.396 -19.104 -21.722  0.00  0.00    +0.057 C 
ATOM     19  C   UNL     1      34.439 -18.205 -24.147  0.00  0.00    +0.044 C 
ATOM     20  C   UNL     1      35.199 -20.015 -22.739  0.00  0.00    +0.034 C 
ATOM     21  C   UNL     1      34.716 -19.561 -23.965  0.00  0.00    +0.142 C 
BRANCH  16  23
ATOM     22  O   UNL     1      34.080 -13.182 -23.707  0.00  0.00    -0.350 OA
ATOM     23  N   UNL     1      34.369 -15.946 -23.284  0.00  0.00    -0.303 N 
ATOM     24  C   UNL     1      34.116 -15.425 -24.632  0.00  0.00    +0.123 C 
ATOM     25  C   UNL     1      34.961 -14.985 -22.344  0.00  0.00    +0.123 C 
ATOM     26  C   UNL     1      33.371 -14.098 -24.540  0.00  0.00    +0.164 C 
ATOM     27  C   UNL     1      34.169 -13.682 -22.372  0.00  0.00    +0.164 C 
ENDBRANCH  16  23
ENDBRANCH  13  18
ENDBRANCH   7  12
BRANCH   2  28
ATOM     28  C   UNL     1      32.493 -23.828 -16.090  0.00  0.00    +0.032 C 
BRANCH  28  29
ATOM     29  C   UNL     1      31.610 -23.496 -14.866  0.00  0.00    +0.031 C 
BRANCH  29  31
ATOM     30  N   UNL     1      27.428 -23.339 -15.790  0.00  0.00    -0.242 NA
ATOM     31  C   UNL     1      30.138 -23.440 -15.192  0.00  0.00    -0.019 C 
ATOM     32  C   UNL     1      29.559 -24.477 -15.898  0.00  0.00    +0.016 C 
ATOM     33  C   UNL     1      29.391 -22.354 -14.780  0.00  0.00    +0.016 C 
ATOM     34  C   UNL     1      28.204 -24.379 -16.171  0.00  0.00    +0.099 C 
ATOM     35  C   UNL     1      28.043 -22.351 -15.103  0.00  0.00    +0.099 C 
ENDBRANCH  29  31
ENDBRANCH  28  29
ENDBRANCH   2  28
TORSDOF 6
ENDMDL
MODEL 5
REMARK VINA RESULT:     -10.6      4.755     11.186
REMARK  Name = 5326868
REMARK  6 active torsions:
REMARK  status: ('A' for Active; 'I' for Inactive)
REMARK    1  A    between atoms: C_2  and  C_28
REMARK    2  A    between atoms: C_7  and  N_12
REMARK    3  A    between atoms: C_13  and  C_18
REMARK    4  A    between atoms: C_16  and  N_23
REMARK    5  A    between atoms: C_28  and  C_29
REMARK    6  A    between atoms: C_29  and  C_31
REMARK                            x       y       z     vdW  Elec       q    Type
REMARK                         _______ _______ _______ _____ _____    ______ ____
ROOT
ATOM      1  N   UNL     1      34.630 -17.232 -24.430  0.00  0.00    -0.312 N 
ATOM      2  C   UNL     1      34.731 -16.025 -22.569  0.00  0.00    -0.006 C 
ATOM      3  C   UNL     1      34.833 -17.400 -22.215  0.00  0.00    +0.012 C 
ATOM      4  C   UNL     1      34.767 -18.135 -23.400  0.00  0.00    +0.048 C 
ATOM      5  C   UNL     1      34.607 -15.954 -23.937  0.00  0.00    +0.058 C 
ATOM      6  C   UNL     1      34.975 -18.092 -20.994  0.00  0.00    +0.016 C 
ATOM      7  C   UNL     1      35.046 -19.489 -21.007  0.00  0.00    +0.051 C 
ATOM      8  C   UNL     1      34.836 -19.533 -23.427  0.00  0.00    +0.016 C 
ATOM      9  C   UNL     1      34.978 -20.197 -22.205  0.00  0.00    +0.016 C 
ATOM     10  H   UNL     1      34.559 -17.470 -25.382  0.00  0.00    +0.152 HD
ENDROOT
BRANCH   7  12
ATOM     11  O   UNL     1      37.116 -21.480 -20.147  0.00  0.00    -0.270 OA
ATOM     12  N   UNL     1      35.186 -20.182 -19.802  0.00  0.00    -0.280 N 
ATOM     13  C   UNL     1      36.178 -21.107 -19.451  0.00  0.00    +0.250 C 
ATOM     14  H   UNL     1      34.505 -19.998 -19.116  0.00  0.00    +0.155 HD
BRANCH  13  18
ATOM     15  F   UNL     1      38.130 -22.591 -15.284  0.00  0.00    -0.204 F 
ATOM     16  C   UNL     1      34.661 -22.625 -16.380  0.00  0.00    +0.050 C 
ATOM     17  C   UNL     1      34.788 -22.068 -17.652  0.00  0.00    +0.019 C 
ATOM     18  C   UNL     1      36.042 -21.702 -18.095  0.00  0.00    +0.057 C 
ATOM     19  C   UNL     1      35.790 -22.802 -15.580  0.00  0.00    +0.044 C 
ATOM     20  C   UNL     1      37.173 -21.865 -17.324  0.00  0.00    +0.034 C 
ATOM     21  C   UNL     1      37.047 -22.422 -16.052  0.00  0.00    +0.142 C 
BRANCH  16  23
ATOM     22  O   UNL     1      30.889 -23.989 -15.117  0.00  0.00    -0.350 OA
ATOM     23  N   UNL     1      33.401 -23.005 -15.905  0.00  0.00    -0.303 N 
ATOM     24  C   UNL     1      33.295 -23.961 -14.797  0.00  0.00    +0.123 C 
ATOM     25  C   UNL     1      32.278 -23.018 -16.852  0.00  0.00    +0.123 C 
ATOM     26  C   UNL     1      31.922 -23.841 -14.143  0.00  0.00    +0.164 C 
ATOM     27  C   UNL     1      30.961 -22.946 -16.089  0.00  0.00    +0.164 C 
ENDBRANCH  16  23
ENDBRANCH  13  18
ENDBRANCH   7  12
BRANCH   2  28
ATOM     28  C   UNL     1      34.753 -14.875 -21.643  0.00  0.00    +0.032 C 
BRANCH  28  29
ATOM     29  C   UNL     1      34.522 -13.505 -22.317  0.00  0.00    +0.031 C 
BRANCH  29  31
ATOM     30  N   UNL     1      30.990 -11.512 -20.929  0.00  0.00    -0.242 NA
ATOM     31  C   UNL     1      33.279 -12.803 -21.828  0.00  0.00    -0.019 C 
ATOM     32  C   UNL     1      32.654 -11.881 -22.645  0.00  0.00    +0.016 C 
ATOM     33  C   UNL     1      32.784 -13.093 -20.572  0.00  0.00    +0.016 C 
ATOM     34  C   UNL     1      31.516 -11.265 -22.150  0.00  0.00    +0.099 C 
ATOM     35  C   UNL     1      31.640 -12.422 -20.169  0.00  0.00    +0.099 C 
ENDBRANCH  29  31
ENDBRANCH  28  29
ENDBRANCH   2  28
TORSDOF 6
ENDMDL
MODEL 6
REMARK VINA RESULT:     -10.5      3.717     11.107
REMARK  Name = 5326868
REMARK  6 active torsions:
REMARK  status: ('A' for Active; 'I' for Inactive)
REMARK    1  A    between atoms: C_2  and  C_28
REMARK    2  A    between atoms: C_7  and  N_12
REMARK    3  A    between atoms: C_13  and  C_18
REMARK    4  A    between atoms: C_16  and  N_23
REMARK    5  A    between atoms: C_28  and  C_29
REMARK    6  A    between atoms: C_29  and  C_31
REMARK                            x       y       z     vdW  Elec       q    Type
REMARK                         _______ _______ _______ _____ _____    ______ ____
ROOT
ATOM      1  N   UNL     1      31.887  -3.650 -22.804  0.00  0.00    -0.312 N 
ATOM      2  C   UNL     1      32.484  -4.905 -24.536  0.00  0.00    -0.006 C 
ATOM      3  C   UNL     1      32.354  -5.749 -23.398  0.00  0.00    +0.012 C 
ATOM      4  C   UNL     1      31.979  -4.937 -22.325  0.00  0.00    +0.048 C 
ATOM      5  C   UNL     1      32.191  -3.620 -24.139  0.00  0.00    +0.058 C 
ATOM      6  C   UNL     1      32.521  -7.131 -23.176  0.00  0.00    +0.016 C 
ATOM      7  C   UNL     1      32.305  -7.648 -21.894  0.00  0.00    +0.051 C 
ATOM      8  C   UNL     1      31.761  -5.440 -21.037  0.00  0.00    +0.016 C 
ATOM      9  C   UNL     1      31.931  -6.814 -20.842  0.00  0.00    +0.016 C 
ATOM     10  H   UNL     1      31.639  -2.865 -22.265  0.00  0.00    +0.152 HD
ENDROOT
BRANCH   7  12
ATOM     11  O   UNL     1      30.528  -9.956 -22.605  0.00  0.00    -0.270 OA
ATOM     12  N   UNL     1      32.469  -9.016 -21.666  0.00  0.00    -0.280 N 
ATOM     13  C   UNL     1      31.602 -10.058 -22.021  0.00  0.00    +0.250 C 
ATOM     14  H   UNL     1      33.293  -9.280 -21.199  0.00  0.00    +0.155 HD
BRANCH  13  18
ATOM     15  F   UNL     1      32.229 -13.446 -18.628  0.00  0.00    -0.204 F 
ATOM     16  C   UNL     1      32.963 -13.545 -22.190  0.00  0.00    +0.050 C 
ATOM     17  C   UNL     1      32.552 -12.268 -22.573  0.00  0.00    +0.019 C 
ATOM     18  C   UNL     1      32.043 -11.418 -21.614  0.00  0.00    +0.057 C 
ATOM     19  C   UNL     1      32.854 -13.942 -20.858  0.00  0.00    +0.044 C 
ATOM     20  C   UNL     1      31.923 -11.787 -20.290  0.00  0.00    +0.034 C 
ATOM     21  C   UNL     1      32.334 -13.063 -19.907  0.00  0.00    +0.142 C 
BRANCH  16  23
ATOM     22  O   UNL     1      34.711 -16.002 -25.121  0.00  0.00    -0.350 OA
ATOM     23  N   UNL     1      33.483 -14.427 -23.143  0.00  0.00    -0.303 N 
ATOM     24  C   UNL     1      34.644 -15.261 -22.811  0.00  0.00    +0.123 C 
ATOM     25  C   UNL     1      33.355 -14.070 -24.562  0.00  0.00    +0.123 C 
ATOM     26  C   UNL     1      34.715 -16.448 -23.766  0.00  0.00    +0.164 C 
ATOM     27  C   UNL     1      33.492 -15.321 -25.423  0.00  0.00    +0.164 C 
ENDBRANCH  16  23
ENDBRANCH  13  18
ENDBRANCH   7  12
BRANCH   2  28
ATOM     28  C   UNL     1      32.865  -5.321 -25.900  0.00  0.00    +0.032 C 
BRANCH  28  29
ATOM     29  C   UNL     1      34.363  -5.143 -26.230  0.00  0.00    +0.031 C 
BRANCH  29  31
ATOM     30  N   UNL     1      35.490  -6.895 -29.976  0.00  0.00    -0.242 NA
ATOM     31  C   UNL     1      34.760  -5.759 -27.549  0.00  0.00    -0.019 C 
ATOM     32  C   UNL     1      36.093  -6.014 -27.806  0.00  0.00    +0.016 C 
ATOM     33  C   UNL     1      33.785  -6.059 -28.480  0.00  0.00    +0.016 C 
ATOM     34  C   UNL     1      36.405  -6.582 -29.031  0.00  0.00    +0.099 C 
ATOM     35  C   UNL     1      34.200  -6.624 -29.675  0.00  0.00    +0.099 C 
ENDBRANCH  29  31
ENDBRANCH  28  29
ENDBRANCH   2  28
TORSDOF 6
ENDMDL
MODEL 7
REMARK VINA RESULT:     -10.5      3.208      6.271
REMARK  Name = 5326868
REMARK  6 active torsions:
REMARK  status: ('A' for Active; 'I' for Inactive)
REMARK    1  A    between atoms: C_2  and  C_28
REMARK    2  A    between atoms: C_7  and  N_12
REMARK    3  A    between atoms: C_13  and  C_18
REMARK    4  A    between atoms: C_16  and  N_23
REMARK    5  A    between atoms: C_28  and  C_29
REMARK    6  A    between atoms: C_29  and  C_31
REMARK                            x       y       z     vdW  Elec       q    Type
REMARK                         _______ _______ _______ _____ _____    ______ ____
ROOT
ATOM      1  N   UNL     1      32.177 -13.160 -19.456  0.00  0.00    -0.312 N 
ATOM      2  C   UNL     1      32.378 -13.013 -21.662  0.00  0.00    -0.006 C 
ATOM      3  C   UNL     1      32.138 -11.708 -21.149  0.00  0.00    +0.012 C 
ATOM      4  C   UNL     1      32.015 -11.828 -19.764  0.00  0.00    +0.048 C 
ATOM      5  C   UNL     1      32.397 -13.884 -20.597  0.00  0.00    +0.058 C 
ATOM      6  C   UNL     1      32.011 -10.431 -21.734  0.00  0.00    +0.016 C 
ATOM      7  C   UNL     1      31.769  -9.326 -20.912  0.00  0.00    +0.051 C 
ATOM      8  C   UNL     1      31.772 -10.730 -18.929  0.00  0.00    +0.016 C 
ATOM      9  C   UNL     1      31.652  -9.474 -19.531  0.00  0.00    +0.016 C 
ATOM     10  H   UNL     1      32.140 -13.536 -18.548  0.00  0.00    +0.152 HD
ENDROOT
BRANCH   7  12
ATOM     11  O   UNL     1      33.776  -7.115 -21.186  0.00  0.00    -0.270 OA
ATOM     12  N   UNL     1      31.642  -8.057 -21.483  0.00  0.00    -0.280 N 
ATOM     13  C   UNL     1      32.617  -7.057 -21.585  0.00  0.00    +0.250 C 
ATOM     14  H   UNL     1      30.759  -7.840 -21.860  0.00  0.00    +0.155 HD
BRANCH  13  18
ATOM     15  F   UNL     1      30.524  -2.707 -21.316  0.00  0.00    -0.204 F 
ATOM     16  C   UNL     1      31.969  -4.430 -24.176  0.00  0.00    +0.050 C 
ATOM     17  C   UNL     1      32.389  -5.617 -23.576  0.00  0.00    +0.019 C 
ATOM     18  C   UNL     1      32.168  -5.793 -22.226  0.00  0.00    +0.057 C 
ATOM     19  C   UNL     1      31.339  -3.447 -23.412  0.00  0.00    +0.044 C 
ATOM     20  C   UNL     1      31.548  -4.837 -21.449  0.00  0.00    +0.034 C 
ATOM     21  C   UNL     1      31.128  -3.651 -22.048  0.00  0.00    +0.142 C 
BRANCH  16  23
ATOM     22  O   UNL     1      32.763  -3.593 -28.220  0.00  0.00    -0.350 OA
ATOM     23  N   UNL     1      32.180  -4.224 -25.543  0.00  0.00    -0.303 N 
ATOM     24  C   UNL     1      33.380  -4.769 -26.188  0.00  0.00    +0.123 C 
ATOM     25  C   UNL     1      31.647  -2.997 -26.151  0.00  0.00    +0.123 C 
ATOM     26  C   UNL     1      33.159  -4.860 -27.694  0.00  0.00    +0.164 C 
ATOM     27  C   UNL     1      31.516  -3.184 -27.658  0.00  0.00    +0.164 C 
ENDBRANCH  16  23
ENDBRANCH  13  18
ENDBRANCH   7  12
BRANCH   2  28
ATOM     28  C   UNL     1      32.574 -13.379 -23.080  0.00  0.00    +0.032 C 
BRANCH  28  29
ATOM     29  C   UNL     1      34.042 -13.650 -23.475  0.00  0.00    +0.031 C 
BRANCH  29  31
ATOM     30  N   UNL     1      35.100 -17.800 -23.301  0.00  0.00    -0.242 NA
ATOM     31  C   UNL     1      34.415 -15.110 -23.414  0.00  0.00    -0.019 C 
ATOM     32  C   UNL     1      35.016 -15.611 -22.276  0.00  0.00    +0.016 C 
ATOM     33  C   UNL     1      34.149 -15.926 -24.497  0.00  0.00    +0.016 C 
ATOM     34  C   UNL     1      35.339 -16.959 -22.269  0.00  0.00    +0.099 C 
ATOM     35  C   UNL     1      34.510 -17.260 -24.392  0.00  0.00    +0.099 C 
ENDBRANCH  29  31
ENDBRANCH  28  29
ENDBRANCH   2  28
TORSDOF 6
ENDMDL
MODEL 8
REMARK VINA RESULT:     -10.4      3.527     11.497
REMARK  Name = 5326868
REMARK  6 active torsions:
REMARK  status: ('A' for Active; 'I' for Inactive)
REMARK    1  A    between atoms: C_2  and  C_28
REMARK    2  A    between atoms: C_7  and  N_12
REMARK    3  A    between atoms: C_13  and  C_18
REMARK    4  A    between atoms: C_16  and  N_23
REMARK    5  A    between atoms: C_28  and  C_29
REMARK    6  A    between atoms: C_29  and  C_31
REMARK                            x       y       z     vdW  Elec       q    Type
REMARK                         _______ _______ _______ _____ _____    ______ ____
ROOT
ATOM      1  N   UNL     1      31.415  -8.515 -20.990  0.00  0.00    -0.312 N 
ATOM      2  C   UNL     1      32.914  -8.644 -22.622  0.00  0.00    -0.006 C 
ATOM      3  C   UNL     1      32.686  -9.956 -22.122  0.00  0.00    +0.012 C 
ATOM      4  C   UNL     1      31.742  -9.847 -21.099  0.00  0.00    +0.048 C 
ATOM      5  C   UNL     1      32.119  -7.779 -21.906  0.00  0.00    +0.058 C 
ATOM      6  C   UNL     1      33.195 -11.231 -22.442  0.00  0.00    +0.016 C 
ATOM      7  C   UNL     1      32.740 -12.346 -21.730  0.00  0.00    +0.051 C 
ATOM      8  C   UNL     1      31.278 -10.954 -20.378  0.00  0.00    +0.016 C 
ATOM      9  C   UNL     1      31.796 -12.208 -20.714  0.00  0.00    +0.016 C 
ATOM     10  H   UNL     1      30.769  -8.144 -20.347  0.00  0.00    +0.152 HD
ENDROOT
BRANCH   7  12
ATOM     11  O   UNL     1      34.870 -13.972 -20.384  0.00  0.00    -0.270 OA
ATOM     12  N   UNL     1      33.240 -13.613 -22.041  0.00  0.00    -0.280 N 
ATOM     13  C   UNL     1      34.242 -14.330 -21.375  0.00  0.00    +0.250 C 
ATOM     14  H   UNL     1      32.840 -14.055 -22.824  0.00  0.00    +0.155 HD
BRANCH  13  18
ATOM     15  F   UNL     1      34.821 -17.203 -25.222  0.00  0.00    -0.204 F 
ATOM     16  C   UNL     1      35.238 -17.929 -21.681  0.00  0.00    +0.050 C 
ATOM     17  C   UNL     1      34.922 -16.689 -21.125  0.00  0.00    +0.019 C 
ATOM     18  C   UNL     1      34.577 -15.653 -21.966  0.00  0.00    +0.057 C 
ATOM     19  C   UNL     1      35.204 -18.102 -23.065  0.00  0.00    +0.044 C 
ATOM     20  C   UNL     1      34.537 -15.797 -23.337  0.00  0.00    +0.034 C 
ATOM     21  C   UNL     1      34.853 -17.036 -23.893  0.00  0.00    +0.142 C 
BRANCH  16  23
ATOM     22  O   UNL     1      36.334 -21.298 -19.414  0.00  0.00    -0.350 OA
ATOM     23  N   UNL     1      35.591 -18.999 -20.851  0.00  0.00    -0.303 N 
ATOM     24  C   UNL     1      37.006 -19.276 -20.578  0.00  0.00    +0.123 C 
ATOM     25  C   UNL     1      34.706 -20.170 -20.815  0.00  0.00    +0.123 C 
ATOM     26  C   UNL     1      37.130 -20.118 -19.312  0.00  0.00    +0.164 C 
ATOM     27  C   UNL     1      34.951 -20.962 -19.535  0.00  0.00    +0.164 C 
ENDBRANCH  16  23
ENDBRANCH  13  18
ENDBRANCH   7  12
BRANCH   2  28
ATOM     28  C   UNL     1      33.837  -8.266 -23.712  0.00  0.00    +0.032 C 
BRANCH  28  29
ATOM     29  C   UNL     1      34.670  -6.996 -23.435  0.00  0.00    +0.031 C 
BRANCH  29  31
ATOM     30  N   UNL     1      33.969  -3.862 -26.273  0.00  0.00    -0.242 NA
ATOM     31  C   UNL     1      34.423  -5.892 -24.433  0.00  0.00    -0.019 C 
ATOM     32  C   UNL     1      35.374  -5.626 -25.400  0.00  0.00    +0.016 C 
ATOM     33  C   UNL     1      33.251  -5.165 -24.368  0.00  0.00    +0.016 C 
ATOM     34  C   UNL     1      35.100  -4.603 -26.294  0.00  0.00    +0.099 C 
ATOM     35  C   UNL     1      33.071  -4.163 -25.308  0.00  0.00    +0.099 C 
ENDBRANCH  29  31
ENDBRANCH  28  29
ENDBRANCH   2  28
TORSDOF 6
ENDMDL
MODEL 9
REMARK VINA RESULT:     -10.1      6.356     10.578
REMARK  Name = 5326868
REMARK  6 active torsions:
REMARK  status: ('A' for Active; 'I' for Inactive)
REMARK    1  A    between atoms: C_2  and  C_28
REMARK    2  A    between atoms: C_7  and  N_12
REMARK    3  A    between atoms: C_13  and  C_18
REMARK    4  A    between atoms: C_16  and  N_23
REMARK    5  A    between atoms: C_28  and  C_29
REMARK    6  A    between atoms: C_29  and  C_31
REMARK                            x       y       z     vdW  Elec       q    Type
REMARK                         _______ _______ _______ _____ _____    ______ ____
ROOT
ATOM      1  N   UNL     1      30.784 -24.763 -13.939  0.00  0.00    -0.312 N 
ATOM      2  C   UNL     1      32.937 -24.536 -13.449  0.00  0.00    -0.006 C 
ATOM      3  C   UNL     1      32.684 -23.853 -14.672  0.00  0.00    +0.012 C 
ATOM      4  C   UNL     1      31.327 -24.011 -14.956  0.00  0.00    +0.048 C 
ATOM      5  C   UNL     1      31.750 -25.085 -13.023  0.00  0.00    +0.058 C 
ATOM      6  C   UNL     1      33.484 -23.114 -15.567  0.00  0.00    +0.016 C 
ATOM      7  C   UNL     1      32.896 -22.561 -16.710  0.00  0.00    +0.051 C 
ATOM      8  C   UNL     1      30.725 -23.464 -16.096  0.00  0.00    +0.016 C 
ATOM      9  C   UNL     1      31.537 -22.734 -16.969  0.00  0.00    +0.016 C 
ATOM     10  H   UNL     1      29.839 -25.030 -13.878  0.00  0.00    +0.152 HD
ENDROOT
BRANCH   7  12
ATOM     11  O   UNL     1      32.534 -22.054 -19.643  0.00  0.00    -0.270 OA
ATOM     12  N   UNL     1      33.681 -21.828 -17.602  0.00  0.00    -0.280 N 
ATOM     13  C   UNL     1      33.465 -21.622 -18.970  0.00  0.00    +0.250 C 
ATOM     14  H   UNL     1      34.485 -21.405 -17.223  0.00  0.00    +0.155 HD
BRANCH  13  18
ATOM     15  F   UNL     1      38.008 -20.006 -19.330  0.00  0.00    -0.204 F 
ATOM     16  C   UNL     1      35.122 -19.348 -21.445  0.00  0.00    +0.050 C 
ATOM     17  C   UNL     1      34.148 -20.107 -20.795  0.00  0.00    +0.019 C 
ATOM     18  C   UNL     1      34.501 -20.812 -19.664  0.00  0.00    +0.057 C 
ATOM     19  C   UNL     1      36.426 -19.314 -20.950  0.00  0.00    +0.044 C 
ATOM     20  C   UNL     1      35.783 -20.796 -19.154  0.00  0.00    +0.034 C 
ATOM     21  C   UNL     1      36.756 -20.038 -19.804  0.00  0.00    +0.142 C 
BRANCH  16  23
ATOM     22  O   UNL     1      34.388 -17.208 -24.990  0.00  0.00    -0.350 OA
ATOM     23  N   UNL     1      34.791 -18.623 -22.595  0.00  0.00    -0.303 N 
ATOM     24  C   UNL     1      34.377 -19.330 -23.811  0.00  0.00    +0.123 C 
ATOM     25  C   UNL     1      35.460 -17.334 -22.818  0.00  0.00    +0.123 C 
ATOM     26  C   UNL     1      33.613 -18.377 -24.726  0.00  0.00    +0.164 C 
ATOM     27  C   UNL     1      34.638 -16.487 -23.783  0.00  0.00    +0.164 C 
ENDBRANCH  16  23
ENDBRANCH  13  18
ENDBRANCH   7  12
BRANCH   2  28
ATOM     28  C   UNL     1      34.236 -24.643 -12.754  0.00  0.00    +0.032 C 
BRANCH  28  29
ATOM     29  C   UNL     1      35.433 -24.064 -13.540  0.00  0.00    +0.031 C 
BRANCH  29  31
ATOM     30  N   UNL     1      38.582 -26.904 -14.161  0.00  0.00    -0.242 NA
ATOM     31  C   UNL     1      36.541 -25.064 -13.758  0.00  0.00    -0.019 C 
ATOM     32  C   UNL     1      36.360 -26.093 -14.661  0.00  0.00    +0.016 C 
ATOM     33  C   UNL     1      37.721 -24.936 -13.052  0.00  0.00    +0.016 C 
ATOM     34  C   UNL     1      37.408 -26.985 -14.826  0.00  0.00    +0.099 C 
ATOM     35  C   UNL     1      38.709 -25.879 -13.288  0.00  0.00    +0.099 C 
ENDBRANCH  29  31
ENDBRANCH  28  29
ENDBRANCH   2  28
TORSDOF 6
ENDMDL
