MODEL 1
REMARK VINA RESULT:     -12.2      0.000      0.000
REMARK  Name = 447655
REMARK  6 active torsions:
REMARK  status: ('A' for Active; 'I' for Inactive)
REMARK    1  A    between atoms: N_4  and  C_14
REMARK    2  A    between atoms: C_6  and  O_26
REMARK    3  A    between atoms: C_15  and  S_20
REMARK    4  A    between atoms: S_20  and  N_23
REMARK    5  A    between atoms: O_26  and  C_27
REMARK    6  A    between atoms: C_27  and  C_28
REMARK                            x       y       z     vdW  Elec       q    Type
REMARK                         _______ _______ _______ _____ _____    ______ ____
ROOT
ATOM      1  N   UNL     1      32.373 -23.409 -15.437  0.00  0.00    -0.293 NA
ATOM      2  N   UNL     1      29.073 -22.483 -16.770  0.00  0.00    -0.266 NA
ATOM      3  N   UNL     1      30.515 -23.914 -13.939  0.00  0.00    -0.316 NA
ATOM      4  N   UNL     1      32.724 -24.398 -13.344  0.00  0.00    -0.238 N 
ATOM      5  N   UNL     1      28.338 -23.299 -14.830  0.00  0.00    -0.296 N 
ATOM      6  C   UNL     1      31.538 -22.903 -16.371  0.00  0.00    +0.288 C 
ATOM      7  C   UNL     1      30.186 -22.897 -16.097  0.00  0.00    +0.215 C 
ATOM      8  C   UNL     1      29.704 -23.400 -14.896  0.00  0.00    +0.196 C 
ATOM      9  C   UNL     1      31.817 -23.878 -14.294  0.00  0.00    +0.207 C 
ATOM     10  C   UNL     1      27.990 -22.743 -15.971  0.00  0.00    +0.164 C 
ATOM     11  H   UNL     1      29.051 -22.073 -17.664  0.00  0.00    +0.126 HD
ATOM     12  H   UNL     1      32.293 -24.732 -12.524  0.00  0.00    +0.166 HD
ATOM     13  H   UNL     1      27.748 -23.578 -14.093  0.00  0.00    +0.150 HD
ENDROOT
BRANCH   4  14
ATOM     14  C   UNL     1      34.125 -24.534 -13.341  0.00  0.00    +0.060 C 
ATOM     15  C   UNL     1      36.255 -24.269 -12.226  0.00  0.00    +0.123 C 
ATOM     16  C   UNL     1      34.867 -24.134 -12.228  0.00  0.00    +0.035 C 
ATOM     17  C   UNL     1      34.778 -25.073 -14.453  0.00  0.00    +0.015 C 
ATOM     18  C   UNL     1      36.905 -24.807 -13.338  0.00  0.00    +0.020 C 
ATOM     19  C   UNL     1      36.166 -25.209 -14.451  0.00  0.00    +0.003 C 
BRANCH  15  20
ATOM     20  S   UNL     1      37.180 -23.768 -10.834  0.00  0.00    +0.057 S 
ATOM     21  O   UNL     1      38.385 -24.582 -10.766  0.00  0.00    -0.153 OA
ATOM     22  O   UNL     1      37.288 -22.315 -10.849  0.00  0.00    -0.153 OA
BRANCH  20  23
ATOM     23  N   UNL     1      36.133 -24.226  -9.564  0.00  0.00    -0.203 NA
ATOM     24  H   UNL     1      36.465 -25.096  -9.147  0.00  0.00    +0.144 HD
ATOM     25  H   UNL     1      35.192 -24.363  -9.933  0.00  0.00    +0.144 HD
ENDBRANCH  20  23
ENDBRANCH  15  20
ENDBRANCH   4  14
BRANCH   6  26
ATOM     26  O   UNL     1      32.069 -22.419 -17.542  0.00  0.00    -0.453 OA
BRANCH  26  27
ATOM     27  C   UNL     1      33.421 -22.738 -17.815  0.00  0.00    +0.208 C 
BRANCH  27  28
ATOM     28  C   UNL     1      33.839 -22.018 -19.096  0.00  0.00    +0.044 C 
ATOM     29  C   UNL     1      32.897 -20.842 -19.389  0.00  0.00    +0.004 C 
ATOM     30  C   UNL     1      35.294 -21.540 -18.998  0.00  0.00    +0.004 C 
ATOM     31  C   UNL     1      33.326 -20.074 -20.637  0.00  0.00    +0.000 C 
ATOM     32  C   UNL     1      35.718 -20.770 -20.246  0.00  0.00    +0.000 C 
ATOM     33  C   UNL     1      34.775 -19.608 -20.540  0.00  0.00    +0.000 C 
ENDBRANCH  27  28
ENDBRANCH  26  27
ENDBRANCH   6  26
TORSDOF 6
ENDMDL
MODEL 2
REMARK VINA RESULT:     -12.2      2.306      2.746
REMARK  Name = 447655
REMARK  6 active torsions:
REMARK  status: ('A' for Active; 'I' for Inactive)
REMARK    1  A    between atoms: N_4  and  C_14
REMARK    2  A    between atoms: C_6  and  O_26
REMARK    3  A    between atoms: C_15  and  S_20
REMARK    4  A    between atoms: S_20  and  N_23
REMARK    5  A    between atoms: O_26  and  C_27
REMARK    6  A    between atoms: C_27  and  C_28
REMARK                            x       y       z     vdW  Elec       q    Type
REMARK                         _______ _______ _______ _____ _____    ______ ____
ROOT
ATOM      1  N   UNL     1      33.351 -23.021 -16.102  0.00  0.00    -0.293 NA
ATOM      2  N   UNL     1      29.729 -22.590 -16.576  0.00  0.00    -0.266 NA
ATOM      3  N   UNL     1      32.021 -23.499 -14.114  0.00  0.00    -0.316 NA
ATOM      4  N   UNL     1      34.352 -23.692 -14.094  0.00  0.00    -0.238 N 
ATOM      5  N   UNL     1      29.629 -23.212 -14.438  0.00  0.00    -0.296 N 
ATOM      6  C   UNL     1      32.246 -22.721 -16.821  0.00  0.00    +0.288 C 
ATOM      7  C   UNL     1      31.022 -22.807 -16.192  0.00  0.00    +0.215 C 
ATOM      8  C   UNL     1      30.933 -23.192 -14.861  0.00  0.00    +0.196 C 
ATOM      9  C   UNL     1      33.172 -23.387 -14.810  0.00  0.00    +0.207 C 
ATOM     10  C   UNL     1      28.931 -22.845 -15.492  0.00  0.00    +0.164 C 
ATOM     11  H   UNL     1      29.427 -22.304 -17.467  0.00  0.00    +0.126 HD
ATOM     12  H   UNL     1      34.192 -23.956 -13.159  0.00  0.00    +0.166 HD
ATOM     13  H   UNL     1      29.289 -23.447 -13.544  0.00  0.00    +0.150 HD
ENDROOT
BRANCH   4  14
ATOM     14  C   UNL     1      35.711 -23.695 -14.458  0.00  0.00    +0.060 C 
ATOM     15  C   UNL     1      37.867 -24.792 -14.508  0.00  0.00    +0.123 C 
ATOM     16  C   UNL     1      36.519 -24.790 -14.146  0.00  0.00    +0.035 C 
ATOM     17  C   UNL     1      36.257 -22.601 -15.136  0.00  0.00    +0.015 C 
ATOM     18  C   UNL     1      38.409 -23.698 -15.184  0.00  0.00    +0.020 C 
ATOM     19  C   UNL     1      37.603 -22.603 -15.498  0.00  0.00    +0.003 C 
BRANCH  15  20
ATOM     20  S   UNL     1      38.875 -26.162 -14.116  0.00  0.00    +0.057 S 
ATOM     21  O   UNL     1      39.327 -26.021 -12.740  0.00  0.00    -0.153 OA
ATOM     22  O   UNL     1      38.185 -27.376 -14.531  0.00  0.00    -0.153 OA
BRANCH  20  23
ATOM     23  N   UNL     1      40.201 -25.901 -15.162  0.00  0.00    -0.203 NA
ATOM     24  H   UNL     1      40.053 -25.040 -15.689  0.00  0.00    +0.144 HD
ATOM     25  H   UNL     1      40.282 -26.685 -15.809  0.00  0.00    +0.144 HD
ENDBRANCH  20  23
ENDBRANCH  15  20
ENDBRANCH   4  14
BRANCH   6  26
ATOM     26  O   UNL     1      32.393 -22.346 -18.134  0.00  0.00    -0.453 OA
BRANCH  26  27
ATOM     27  C   UNL     1      33.629 -22.645 -18.754  0.00  0.00    +0.208 C 
BRANCH  27  28
ATOM     28  C   UNL     1      34.333 -21.331 -19.088  0.00  0.00    +0.044 C 
ATOM     29  C   UNL     1      35.818 -21.571 -19.388  0.00  0.00    +0.004 C 
ATOM     30  C   UNL     1      33.644 -20.632 -20.269  0.00  0.00    +0.004 C 
ATOM     31  C   UNL     1      36.532 -20.279 -19.776  0.00  0.00    +0.000 C 
ATOM     32  C   UNL     1      34.362 -19.341 -20.655  0.00  0.00    +0.000 C 
ATOM     33  C   UNL     1      35.840 -19.583 -20.944  0.00  0.00    +0.000 C 
ENDBRANCH  27  28
ENDBRANCH  26  27
ENDBRANCH   6  26
TORSDOF 6
ENDMDL
MODEL 3
REMARK VINA RESULT:     -12.2      2.030      2.623
REMARK  Name = 447655
REMARK  6 active torsions:
REMARK  status: ('A' for Active; 'I' for Inactive)
REMARK    1  A    between atoms: N_4  and  C_14
REMARK    2  A    between atoms: C_6  and  O_26
REMARK    3  A    between atoms: C_15  and  S_20
REMARK    4  A    between atoms: S_20  and  N_23
REMARK    5  A    between atoms: O_26  and  C_27
REMARK    6  A    between atoms: C_27  and  C_28
REMARK                            x       y       z     vdW  Elec       q    Type
REMARK                         _______ _______ _______ _____ _____    ______ ____
ROOT
ATOM      1  N   UNL     1      33.405 -23.890 -14.316  0.00  0.00    -0.293 NA
ATOM      2  N   UNL     1      30.020 -24.077 -15.742  0.00  0.00    -0.266 NA
ATOM      3  N   UNL     1      31.813 -25.127 -12.945  0.00  0.00    -0.316 NA
ATOM      4  N   UNL     1      34.037 -24.853 -12.277  0.00  0.00    -0.238 N 
ATOM      5  N   UNL     1      29.578 -25.246 -13.896  0.00  0.00    -0.296 N 
ATOM      6  C   UNL     1      32.466 -23.637 -15.254  0.00  0.00    +0.288 C 
ATOM      7  C   UNL     1      31.193 -24.126 -15.045  0.00  0.00    +0.215 C 
ATOM      8  C   UNL     1      30.894 -24.857 -13.903  0.00  0.00    +0.196 C 
ATOM      9  C   UNL     1      33.025 -24.610 -13.234  0.00  0.00    +0.207 C 
ATOM     10  C   UNL     1      29.081 -24.761 -15.014  0.00  0.00    +0.164 C 
ATOM     11  H   UNL     1      29.875 -23.632 -16.608  0.00  0.00    +0.126 HD
ATOM     12  H   UNL     1      33.733 -25.379 -11.503  0.00  0.00    +0.166 HD
ATOM     13  H   UNL     1      29.109 -25.770 -13.208  0.00  0.00    +0.150 HD
ENDROOT
BRANCH   4  14
ATOM     14  C   UNL     1      35.395 -24.489 -12.217  0.00  0.00    +0.060 C 
ATOM     15  C   UNL     1      37.666 -24.724 -13.016  0.00  0.00    +0.123 C 
ATOM     16  C   UNL     1      36.320 -25.086 -13.076  0.00  0.00    +0.035 C 
ATOM     17  C   UNL     1      35.823 -23.528 -11.297  0.00  0.00    +0.015 C 
ATOM     18  C   UNL     1      38.090 -23.765 -12.097  0.00  0.00    +0.020 C 
ATOM     19  C   UNL     1      37.168 -23.167 -11.237  0.00  0.00    +0.003 C 
BRANCH  15  20
ATOM     20  S   UNL     1      38.820 -25.471 -14.092  0.00  0.00    +0.057 S 
ATOM     21  O   UNL     1      39.525 -24.420 -14.810  0.00  0.00    -0.153 OA
ATOM     22  O   UNL     1      39.574 -26.466 -13.342  0.00  0.00    -0.153 OA
BRANCH  20  23
ATOM     23  N   UNL     1      37.778 -26.279 -15.179  0.00  0.00    -0.203 NA
ATOM     24  H   UNL     1      37.615 -27.230 -14.849  0.00  0.00    +0.144 HD
ATOM     25  H   UNL     1      38.209 -26.309 -16.103  0.00  0.00    +0.144 HD
ENDBRANCH  20  23
ENDBRANCH  15  20
ENDBRANCH   4  14
BRANCH   6  26
ATOM     26  O   UNL     1      32.818 -22.908 -16.364  0.00  0.00    -0.453 OA
BRANCH  26  27
ATOM     27  C   UNL     1      34.112 -23.128 -16.894  0.00  0.00    +0.208 C 
BRANCH  27  28
ATOM     28  C   UNL     1      34.167 -22.530 -18.298  0.00  0.00    +0.044 C 
ATOM     29  C   UNL     1      32.974 -21.595 -18.538  0.00  0.00    +0.004 C 
ATOM     30  C   UNL     1      35.493 -21.790 -18.520  0.00  0.00    +0.004 C 
ATOM     31  C   UNL     1      33.036 -20.944 -19.917  0.00  0.00    +0.000 C 
ATOM     32  C   UNL     1      35.551 -21.137 -19.899  0.00  0.00    +0.000 C 
ATOM     33  C   UNL     1      34.358 -20.216 -20.137  0.00  0.00    +0.000 C 
ENDBRANCH  27  28
ENDBRANCH  26  27
ENDBRANCH   6  26
TORSDOF 6
ENDMDL
MODEL 4
REMARK VINA RESULT:     -11.8      2.424      5.130
REMARK  Name = 447655
REMARK  6 active torsions:
REMARK  status: ('A' for Active; 'I' for Inactive)
REMARK    1  A    between atoms: N_4  and  C_14
REMARK    2  A    between atoms: C_6  and  O_26
REMARK    3  A    between atoms: C_15  and  S_20
REMARK    4  A    between atoms: S_20  and  N_23
REMARK    5  A    between atoms: O_26  and  C_27
REMARK    6  A    between atoms: C_27  and  C_28
REMARK                            x       y       z     vdW  Elec       q    Type
REMARK                         _______ _______ _______ _____ _____    ______ ____
ROOT
ATOM      1  N   UNL     1      35.185 -23.408 -16.012  0.00  0.00    -0.293 NA
ATOM      2  N   UNL     1      33.097 -22.040 -18.713  0.00  0.00    -0.266 NA
ATOM      3  N   UNL     1      36.395 -21.996 -17.590  0.00  0.00    -0.316 NA
ATOM      4  N   UNL     1      37.478 -22.997 -15.775  0.00  0.00    -0.238 N 
ATOM      5  N   UNL     1      35.006 -21.096 -19.371  0.00  0.00    -0.296 N 
ATOM      6  C   UNL     1      34.023 -23.232 -16.680  0.00  0.00    +0.288 C 
ATOM      7  C   UNL     1      34.038 -22.437 -17.807  0.00  0.00    +0.215 C 
ATOM      8  C   UNL     1      35.215 -21.839 -18.237  0.00  0.00    +0.196 C 
ATOM      9  C   UNL     1      36.284 -22.787 -16.502  0.00  0.00    +0.207 C 
ATOM     10  C   UNL     1      33.723 -21.238 -19.631  0.00  0.00    +0.164 C 
ATOM     11  H   UNL     1      32.143 -22.283 -18.708  0.00  0.00    +0.126 HD
ATOM     12  H   UNL     1      38.259 -22.533 -16.153  0.00  0.00    +0.166 HD
ATOM     13  H   UNL     1      35.668 -20.573 -19.879  0.00  0.00    +0.150 HD
ENDROOT
BRANCH   4  14
ATOM     14  C   UNL     1      37.766 -23.739 -14.615  0.00  0.00    +0.060 C 
ATOM     15  C   UNL     1      37.281 -24.305 -12.313  0.00  0.00    +0.123 C 
ATOM     16  C   UNL     1      36.995 -23.568 -13.463  0.00  0.00    +0.035 C 
ATOM     17  C   UNL     1      38.825 -24.651 -14.611  0.00  0.00    +0.015 C 
ATOM     18  C   UNL     1      38.339 -25.214 -12.313  0.00  0.00    +0.020 C 
ATOM     19  C   UNL     1      39.111 -25.387 -13.462  0.00  0.00    +0.003 C 
BRANCH  15  20
ATOM     20  S   UNL     1      36.315 -24.090 -10.875  0.00  0.00    +0.057 S 
ATOM     21  O   UNL     1      36.069 -25.399 -10.288  0.00  0.00    -0.153 OA
ATOM     22  O   UNL     1      36.916 -23.036 -10.068  0.00  0.00    -0.153 OA
BRANCH  20  23
ATOM     23  N   UNL     1      34.857 -23.503 -11.546  0.00  0.00    -0.203 NA
ATOM     24  H   UNL     1      34.302 -24.286 -11.889  0.00  0.00    +0.144 HD
ATOM     25  H   UNL     1      35.069 -22.872 -12.318  0.00  0.00    +0.144 HD
ENDBRANCH  20  23
ENDBRANCH  15  20
ENDBRANCH   4  14
BRANCH   6  26
ATOM     26  O   UNL     1      32.889 -23.848 -16.210  0.00  0.00    -0.453 OA
BRANCH  26  27
ATOM     27  C   UNL     1      32.509 -23.566 -14.876  0.00  0.00    +0.208 C 
BRANCH  27  28
ATOM     28  C   UNL     1      30.984 -23.512 -14.809  0.00  0.00    +0.044 C 
ATOM     29  C   UNL     1      30.411 -22.795 -16.038  0.00  0.00    +0.004 C 
ATOM     30  C   UNL     1      30.397 -24.924 -14.678  0.00  0.00    +0.004 C 
ATOM     31  C   UNL     1      28.885 -22.775 -16.020  0.00  0.00    +0.000 C 
ATOM     32  C   UNL     1      28.871 -24.901 -14.662  0.00  0.00    +0.000 C 
ATOM     33  C   UNL     1      28.306 -24.179 -15.881  0.00  0.00    +0.000 C 
ENDBRANCH  27  28
ENDBRANCH  26  27
ENDBRANCH   6  26
TORSDOF 6
ENDMDL
MODEL 5
REMARK VINA RESULT:     -11.3      3.975      7.975
REMARK  Name = 447655
REMARK  6 active torsions:
REMARK  status: ('A' for Active; 'I' for Inactive)
REMARK    1  A    between atoms: N_4  and  C_14
REMARK    2  A    between atoms: C_6  and  O_26
REMARK    3  A    between atoms: C_15  and  S_20
REMARK    4  A    between atoms: S_20  and  N_23
REMARK    5  A    between atoms: O_26  and  C_27
REMARK    6  A    between atoms: C_27  and  C_28
REMARK                            x       y       z     vdW  Elec       q    Type
REMARK                         _______ _______ _______ _____ _____    ______ ____
ROOT
ATOM      1  N   UNL     1      35.061 -23.168 -15.976  0.00  0.00    -0.293 NA
ATOM      2  N   UNL     1      35.801 -25.042 -12.899  0.00  0.00    -0.266 NA
ATOM      3  N   UNL     1      37.421 -23.181 -15.360  0.00  0.00    -0.316 NA
ATOM      4  N   UNL     1      36.669 -22.063 -17.272  0.00  0.00    -0.238 N 
ATOM      5  N   UNL     1      37.900 -24.424 -13.325  0.00  0.00    -0.296 N 
ATOM      6  C   UNL     1      34.732 -23.919 -14.901  0.00  0.00    +0.288 C 
ATOM      7  C   UNL     1      35.745 -24.307 -14.048  0.00  0.00    +0.215 C 
ATOM      8  C   UNL     1      37.059 -23.933 -14.292  0.00  0.00    +0.196 C 
ATOM      9  C   UNL     1      36.368 -22.850 -16.136  0.00  0.00    +0.207 C 
ATOM     10  C   UNL     1      37.113 -25.085 -12.504  0.00  0.00    +0.164 C 
ATOM     11  H   UNL     1      35.041 -25.466 -12.440  0.00  0.00    +0.126 HD
ATOM     12  H   UNL     1      37.625 -21.849 -17.363  0.00  0.00    +0.166 HD
ATOM     13  H   UNL     1      38.875 -24.306 -13.259  0.00  0.00    +0.150 HD
ENDROOT
BRANCH   4  14
ATOM     14  C   UNL     1      35.868 -21.529 -18.297  0.00  0.00    +0.060 C 
ATOM     15  C   UNL     1      35.591 -20.032 -20.178  0.00  0.00    +0.123 C 
ATOM     16  C   UNL     1      36.386 -20.561 -19.161  0.00  0.00    +0.035 C 
ATOM     17  C   UNL     1      34.550 -21.966 -18.457  0.00  0.00    +0.015 C 
ATOM     18  C   UNL     1      34.276 -20.471 -20.335  0.00  0.00    +0.020 C 
ATOM     19  C   UNL     1      33.756 -21.438 -19.474  0.00  0.00    +0.003 C 
BRANCH  15  20
ATOM     20  S   UNL     1      36.241 -18.823 -21.256  0.00  0.00    +0.057 S 
ATOM     21  O   UNL     1      37.673 -18.715 -21.015  0.00  0.00    -0.153 OA
ATOM     22  O   UNL     1      35.753 -19.093 -22.601  0.00  0.00    -0.153 OA
BRANCH  20  23
ATOM     23  N   UNL     1      35.474 -17.414 -20.667  0.00  0.00    -0.203 NA
ATOM     24  H   UNL     1      36.142 -16.644 -20.657  0.00  0.00    +0.144 HD
ATOM     25  H   UNL     1      35.135 -17.583 -19.720  0.00  0.00    +0.144 HD
ENDBRANCH  20  23
ENDBRANCH  15  20
ENDBRANCH   4  14
BRANCH   6  26
ATOM     26  O   UNL     1      33.415 -24.259 -14.709  0.00  0.00    -0.453 OA
BRANCH  26  27
ATOM     27  C   UNL     1      32.705 -23.543 -13.717  0.00  0.00    +0.208 C 
BRANCH  27  28
ATOM     28  C   UNL     1      31.220 -23.559 -14.079  0.00  0.00    +0.044 C 
ATOM     29  C   UNL     1      31.006 -23.052 -15.511  0.00  0.00    +0.004 C 
ATOM     30  C   UNL     1      30.636 -24.967 -13.905  0.00  0.00    +0.004 C 
ATOM     31  C   UNL     1      29.535 -23.108 -15.915  0.00  0.00    +0.000 C 
ATOM     32  C   UNL     1      29.165 -25.020 -14.311  0.00  0.00    +0.000 C 
ATOM     33  C   UNL     1      28.954 -24.507 -15.732  0.00  0.00    +0.000 C 
ENDBRANCH  27  28
ENDBRANCH  26  27
ENDBRANCH   6  26
TORSDOF 6
ENDMDL
MODEL 6
REMARK VINA RESULT:     -10.9      3.323      6.168
REMARK  Name = 447655
REMARK  6 active torsions:
REMARK  status: ('A' for Active; 'I' for Inactive)
REMARK    1  A    between atoms: N_4  and  C_14
REMARK    2  A    between atoms: C_6  and  O_26
REMARK    3  A    between atoms: C_15  and  S_20
REMARK    4  A    between atoms: S_20  and  N_23
REMARK    5  A    between atoms: O_26  and  C_27
REMARK    6  A    between atoms: C_27  and  C_28
REMARK                            x       y       z     vdW  Elec       q    Type
REMARK                         _______ _______ _______ _____ _____    ______ ____
ROOT
ATOM      1  N   UNL     1      33.559 -23.706 -15.605  0.00  0.00    -0.293 NA
ATOM      2  N   UNL     1      37.070 -22.802 -16.220  0.00  0.00    -0.266 NA
ATOM      3  N   UNL     1      34.905 -23.502 -13.582  0.00  0.00    -0.316 NA
ATOM      4  N   UNL     1      32.638 -24.067 -13.483  0.00  0.00    -0.238 N 
ATOM      5  N   UNL     1      37.224 -22.903 -13.999  0.00  0.00    -0.296 N 
ATOM      6  C   UNL     1      34.614 -23.396 -16.390  0.00  0.00    +0.288 C 
ATOM      7  C   UNL     1      35.823 -23.137 -15.778  0.00  0.00    +0.215 C 
ATOM      8  C   UNL     1      35.944 -23.194 -14.395  0.00  0.00    +0.196 C 
ATOM      9  C   UNL     1      33.767 -23.739 -14.267  0.00  0.00    +0.207 C 
ATOM     10  C   UNL     1      37.876 -22.673 -15.119  0.00  0.00    +0.164 C 
ATOM     11  H   UNL     1      37.341 -22.676 -17.158  0.00  0.00    +0.126 HD
ATOM     12  H   UNL     1      32.818 -24.083 -12.515  0.00  0.00    +0.166 HD
ATOM     13  H   UNL     1      37.579 -22.875 -13.081  0.00  0.00    +0.150 HD
ENDROOT
BRANCH   4  14
ATOM     14  C   UNL     1      31.306 -24.375 -13.815  0.00  0.00    +0.060 C 
ATOM     15  C   UNL     1      29.258 -23.834 -14.984  0.00  0.00    +0.123 C 
ATOM     16  C   UNL     1      30.578 -23.528 -14.654  0.00  0.00    +0.035 C 
ATOM     17  C   UNL     1      30.706 -25.531 -13.309  0.00  0.00    +0.015 C 
ATOM     18  C   UNL     1      28.662 -24.989 -14.477  0.00  0.00    +0.020 C 
ATOM     19  C   UNL     1      29.386 -25.837 -13.639  0.00  0.00    +0.003 C 
BRANCH  15  20
ATOM     20  S   UNL     1      28.351 -22.773 -16.033  0.00  0.00    +0.057 S 
ATOM     21  O   UNL     1      27.295 -22.147 -15.251  0.00  0.00    -0.153 OA
ATOM     22  O   UNL     1      29.291 -21.945 -16.776  0.00  0.00    -0.153 OA
BRANCH  20  23
ATOM     23  N   UNL     1      27.647 -23.901 -17.108  0.00  0.00    -0.203 NA
ATOM     24  H   UNL     1      27.890 -23.653 -18.067  0.00  0.00    +0.144 HD
ATOM     25  H   UNL     1      26.633 -23.886 -16.999  0.00  0.00    +0.144 HD
ENDBRANCH  20  23
ENDBRANCH  15  20
ENDBRANCH   4  14
BRANCH   6  26
ATOM     26  O   UNL     1      34.437 -23.354 -17.752  0.00  0.00    -0.453 OA
BRANCH  26  27
ATOM     27  C   UNL     1      33.516 -22.404 -18.252  0.00  0.00    +0.208 C 
BRANCH  27  28
ATOM     28  C   UNL     1      34.155 -21.689 -19.441  0.00  0.00    +0.044 C 
ATOM     29  C   UNL     1      33.263 -20.538 -19.926  0.00  0.00    +0.004 C 
ATOM     30  C   UNL     1      35.555 -21.178 -19.077  0.00  0.00    +0.004 C 
ATOM     31  C   UNL     1      33.905 -19.775 -21.081  0.00  0.00    +0.000 C 
ATOM     32  C   UNL     1      36.194 -20.414 -20.234  0.00  0.00    +0.000 C 
ATOM     33  C   UNL     1      35.301 -19.276 -20.719  0.00  0.00    +0.000 C 
ENDBRANCH  27  28
ENDBRANCH  26  27
ENDBRANCH   6  26
TORSDOF 6
ENDMDL
MODEL 7
REMARK VINA RESULT:     -10.9      3.729      7.518
REMARK  Name = 447655
REMARK  6 active torsions:
REMARK  status: ('A' for Active; 'I' for Inactive)
REMARK    1  A    between atoms: N_4  and  C_14
REMARK    2  A    between atoms: C_6  and  O_26
REMARK    3  A    between atoms: C_15  and  S_20
REMARK    4  A    between atoms: S_20  and  N_23
REMARK    5  A    between atoms: O_26  and  C_27
REMARK    6  A    between atoms: C_27  and  C_28
REMARK                            x       y       z     vdW  Elec       q    Type
REMARK                         _______ _______ _______ _____ _____    ______ ____
ROOT
ATOM      1  N   UNL     1      33.645 -22.778 -16.388  0.00  0.00    -0.293 NA
ATOM      2  N   UNL     1      31.461 -24.338 -13.874  0.00  0.00    -0.266 NA
ATOM      3  N   UNL     1      31.299 -22.899 -17.043  0.00  0.00    -0.316 NA
ATOM      4  N   UNL     1      32.909 -21.955 -18.453  0.00  0.00    -0.238 N 
ATOM      5  N   UNL     1      29.864 -23.931 -15.374  0.00  0.00    -0.296 N 
ATOM      6  C   UNL     1      33.389 -23.373 -15.202  0.00  0.00    +0.288 C 
ATOM      7  C   UNL     1      32.087 -23.736 -14.927  0.00  0.00    +0.215 C 
ATOM      8  C   UNL     1      31.074 -23.493 -15.846  0.00  0.00    +0.196 C 
ATOM      9  C   UNL     1      32.598 -22.580 -17.223  0.00  0.00    +0.207 C 
ATOM     10  C   UNL     1      30.130 -24.433 -14.187  0.00  0.00    +0.164 C 
ATOM     11  H   UNL     1      31.887 -24.646 -13.042  0.00  0.00    +0.126 HD
ATOM     12  H   UNL     1      32.129 -21.823 -19.039  0.00  0.00    +0.166 HD
ATOM     13  H   UNL     1      28.988 -23.881 -15.823  0.00  0.00    +0.150 HD
ENDROOT
BRANCH   4  14
ATOM     14  C   UNL     1      34.115 -21.483 -19.001  0.00  0.00    +0.060 C 
ATOM     15  C   UNL     1      35.305 -19.940 -20.435  0.00  0.00    +0.123 C 
ATOM     16  C   UNL     1      34.108 -20.408 -19.892  0.00  0.00    +0.035 C 
ATOM     17  C   UNL     1      35.327 -22.088 -18.653  0.00  0.00    +0.015 C 
ATOM     18  C   UNL     1      36.513 -20.546 -20.086  0.00  0.00    +0.020 C 
ATOM     19  C   UNL     1      36.523 -21.620 -19.196  0.00  0.00    +0.003 C 
BRANCH  15  20
ATOM     20  S   UNL     1      35.294 -18.596 -21.549  0.00  0.00    +0.057 S 
ATOM     21  O   UNL     1      34.524 -18.979 -22.723  0.00  0.00    -0.153 OA
ATOM     22  O   UNL     1      34.939 -17.390 -20.813  0.00  0.00    -0.153 OA
BRANCH  20  23
ATOM     23  N   UNL     1      36.946 -18.511 -21.975  0.00  0.00    -0.203 NA
ATOM     24  H   UNL     1      37.261 -17.543 -21.922  0.00  0.00    +0.144 HD
ATOM     25  H   UNL     1      37.069 -18.857 -22.927  0.00  0.00    +0.144 HD
ENDBRANCH  20  23
ENDBRANCH  15  20
ENDBRANCH   4  14
BRANCH   6  26
ATOM     26  O   UNL     1      34.429 -23.589 -14.331  0.00  0.00    -0.453 OA
BRANCH  26  27
ATOM     27  C   UNL     1      35.726 -23.245 -14.781  0.00  0.00    +0.208 C 
BRANCH  27  28
ATOM     28  C   UNL     1      36.736 -24.162 -14.092  0.00  0.00    +0.044 C 
ATOM     29  C   UNL     1      36.812 -23.855 -12.590  0.00  0.00    +0.004 C 
ATOM     30  C   UNL     1      36.380 -25.636 -14.330  0.00  0.00    +0.004 C 
ATOM     31  C   UNL     1      37.776 -24.795 -11.871  0.00  0.00    +0.000 C 
ATOM     32  C   UNL     1      37.345 -26.572 -13.608  0.00  0.00    +0.000 C 
ATOM     33  C   UNL     1      37.424 -26.258 -12.117  0.00  0.00    +0.000 C 
ENDBRANCH  27  28
ENDBRANCH  26  27
ENDBRANCH   6  26
TORSDOF 6
ENDMDL
MODEL 8
REMARK VINA RESULT:     -10.7      3.183      5.601
REMARK  Name = 447655
REMARK  6 active torsions:
REMARK  status: ('A' for Active; 'I' for Inactive)
REMARK    1  A    between atoms: N_4  and  C_14
REMARK    2  A    between atoms: C_6  and  O_26
REMARK    3  A    between atoms: C_15  and  S_20
REMARK    4  A    between atoms: S_20  and  N_23
REMARK    5  A    between atoms: O_26  and  C_27
REMARK    6  A    between atoms: C_27  and  C_28
REMARK                            x       y       z     vdW  Elec       q    Type
REMARK                         _______ _______ _______ _____ _____    ______ ____
ROOT
ATOM      1  N   UNL     1      34.938 -22.878 -16.569  0.00  0.00    -0.293 NA
ATOM      2  N   UNL     1      32.832 -21.675 -19.334  0.00  0.00    -0.266 NA
ATOM      3  N   UNL     1      36.088 -21.396 -18.127  0.00  0.00    -0.316 NA
ATOM      4  N   UNL     1      37.190 -22.308 -16.276  0.00  0.00    -0.238 N 
ATOM      5  N   UNL     1      34.687 -20.606 -19.950  0.00  0.00    -0.296 N 
ATOM      6  C   UNL     1      33.784 -22.787 -17.268  0.00  0.00    +0.288 C 
ATOM      7  C   UNL     1      33.774 -22.001 -18.401  0.00  0.00    +0.215 C 
ATOM      8  C   UNL     1      34.918 -21.325 -18.805  0.00  0.00    +0.196 C 
ATOM      9  C   UNL     1      36.004 -22.186 -17.036  0.00  0.00    +0.207 C 
ATOM     10  C   UNL     1      33.425 -20.838 -20.242  0.00  0.00    +0.164 C 
ATOM     11  H   UNL     1      31.897 -21.984 -19.350  0.00  0.00    +0.126 HD
ATOM     12  H   UNL     1      37.948 -21.793 -16.638  0.00  0.00    +0.166 HD
ATOM     13  H   UNL     1      35.325 -20.042 -20.446  0.00  0.00    +0.150 HD
ENDROOT
BRANCH   4  14
ATOM     14  C   UNL     1      37.499 -23.020 -15.103  0.00  0.00    +0.060 C 
ATOM     15  C   UNL     1      38.594 -24.875 -14.003  0.00  0.00    +0.123 C 
ATOM     16  C   UNL     1      38.288 -24.170 -15.167  0.00  0.00    +0.035 C 
ATOM     17  C   UNL     1      37.017 -22.577 -13.868  0.00  0.00    +0.015 C 
ATOM     18  C   UNL     1      38.112 -24.431 -12.771  0.00  0.00    +0.020 C 
ATOM     19  C   UNL     1      37.323 -23.282 -12.704  0.00  0.00    +0.003 C 
BRANCH  15  20
ATOM     20  S   UNL     1      39.582 -26.312 -14.085  0.00  0.00    +0.057 S 
ATOM     21  O   UNL     1      40.498 -26.305 -12.954  0.00  0.00    -0.153 OA
ATOM     22  O   UNL     1      38.711 -27.459 -14.304  0.00  0.00    -0.153 OA
BRANCH  20  23
ATOM     23  N   UNL     1      40.469 -26.016 -15.516  0.00  0.00    -0.203 NA
ATOM     24  H   UNL     1      40.555 -25.010 -15.660  0.00  0.00    +0.144 HD
ATOM     25  H   UNL     1      39.983 -26.434 -16.309  0.00  0.00    +0.144 HD
ENDBRANCH  20  23
ENDBRANCH  15  20
ENDBRANCH   4  14
BRANCH   6  26
ATOM     26  O   UNL     1      32.684 -23.478 -16.821  0.00  0.00    -0.453 OA
BRANCH  26  27
ATOM     27  C   UNL     1      32.511 -23.576 -15.420  0.00  0.00    +0.208 C 
BRANCH  27  28
ATOM     28  C   UNL     1      31.017 -23.509 -15.111  0.00  0.00    +0.044 C 
ATOM     29  C   UNL     1      30.278 -22.693 -16.181  0.00  0.00    +0.004 C 
ATOM     30  C   UNL     1      30.423 -24.919 -14.994  0.00  0.00    +0.004 C 
ATOM     31  C   UNL     1      28.774 -22.656 -15.922  0.00  0.00    +0.000 C 
ATOM     32  C   UNL     1      28.919 -24.878 -14.738  0.00  0.00    +0.000 C 
ATOM     33  C   UNL     1      28.189 -24.059 -15.798  0.00  0.00    +0.000 C 
ENDBRANCH  27  28
ENDBRANCH  26  27
ENDBRANCH   6  26
TORSDOF 6
ENDMDL
MODEL 9
REMARK VINA RESULT:     -10.6      6.890     10.040
REMARK  Name = 447655
REMARK  6 active torsions:
REMARK  status: ('A' for Active; 'I' for Inactive)
REMARK    1  A    between atoms: N_4  and  C_14
REMARK    2  A    between atoms: C_6  and  O_26
REMARK    3  A    between atoms: C_15  and  S_20
REMARK    4  A    between atoms: S_20  and  N_23
REMARK    5  A    between atoms: O_26  and  C_27
REMARK    6  A    between atoms: C_27  and  C_28
REMARK                            x       y       z     vdW  Elec       q    Type
REMARK                         _______ _______ _______ _____ _____    ______ ____
ROOT
ATOM      1  N   UNL     1      34.891 -16.772 -21.625  0.00  0.00    -0.293 NA
ATOM      2  N   UNL     1      33.867 -13.935 -23.730  0.00  0.00    -0.266 NA
ATOM      3  N   UNL     1      34.557 -17.342 -23.974  0.00  0.00    -0.316 NA
ATOM      4  N   UNL     1      35.211 -18.955 -22.411  0.00  0.00    -0.238 N 
ATOM      5  N   UNL     1      33.882 -15.459 -25.356  0.00  0.00    -0.296 N 
ATOM      6  C   UNL     1      34.568 -15.479 -21.849  0.00  0.00    +0.288 C 
ATOM      7  C   UNL     1      34.237 -15.107 -23.136  0.00  0.00    +0.215 C 
ATOM      8  C   UNL     1      34.238 -16.039 -24.165  0.00  0.00    +0.196 C 
ATOM      9  C   UNL     1      34.866 -17.612 -22.688  0.00  0.00    +0.207 C 
ATOM     10  C   UNL     1      33.664 -14.195 -25.060  0.00  0.00    +0.164 C 
ATOM     11  H   UNL     1      33.764 -13.063 -23.285  0.00  0.00    +0.126 HD
ATOM     12  H   UNL     1      35.186 -19.542 -23.201  0.00  0.00    +0.166 HD
ATOM     13  H   UNL     1      33.804 -15.892 -26.237  0.00  0.00    +0.150 HD
ENDROOT
BRANCH   4  14
ATOM     14  C   UNL     1      35.584 -19.616 -21.227  0.00  0.00    +0.060 C 
ATOM     15  C   UNL     1      35.107 -21.223 -19.482  0.00  0.00    +0.123 C 
ATOM     16  C   UNL     1      34.736 -20.567 -20.657  0.00  0.00    +0.035 C 
ATOM     17  C   UNL     1      36.808 -19.324 -20.618  0.00  0.00    +0.015 C 
ATOM     18  C   UNL     1      36.330 -20.929 -18.877  0.00  0.00    +0.020 C 
ATOM     19  C   UNL     1      37.179 -19.980 -19.445  0.00  0.00    +0.003 C 
BRANCH  15  20
ATOM     20  S   UNL     1      34.045 -22.411 -18.771  0.00  0.00    +0.057 S 
ATOM     21  O   UNL     1      32.728 -21.813 -18.612  0.00  0.00    -0.153 OA
ATOM     22  O   UNL     1      34.188 -23.659 -19.509  0.00  0.00    -0.153 OA
BRANCH  20  23
ATOM     23  N   UNL     1      34.755 -22.602 -17.229  0.00  0.00    -0.203 NA
ATOM     24  H   UNL     1      34.427 -21.861 -16.610  0.00  0.00    +0.144 HD
ATOM     25  H   UNL     1      35.770 -22.551 -17.314  0.00  0.00    +0.144 HD
ENDBRANCH  20  23
ENDBRANCH  15  20
ENDBRANCH   4  14
BRANCH   6  26
ATOM     26  O   UNL     1      34.582 -14.601 -20.793  0.00  0.00    -0.453 OA
BRANCH  26  27
ATOM     27  C   UNL     1      33.357 -14.388 -20.117  0.00  0.00    +0.208 C 
BRANCH  27  28
ATOM     28  C   UNL     1      32.899 -12.956 -20.386  0.00  0.00    +0.044 C 
ATOM     29  C   UNL     1      31.841 -12.924 -21.498  0.00  0.00    +0.004 C 
ATOM     30  C   UNL     1      32.361 -12.308 -19.103  0.00  0.00    +0.004 C 
ATOM     31  C   UNL     1      31.328 -11.509 -21.749  0.00  0.00    +0.000 C 
ATOM     32  C   UNL     1      31.848 -10.893 -19.359  0.00  0.00    +0.000 C 
ATOM     33  C   UNL     1      30.803 -10.865 -20.470  0.00  0.00    +0.000 C 
ENDBRANCH  27  28
ENDBRANCH  26  27
ENDBRANCH   6  26
TORSDOF 6
ENDMDL
