MODEL 1
REMARK VINA RESULT:     -11.7      0.000      0.000
REMARK  Name = 24963046
REMARK  6 active torsions:
REMARK  status: ('A' for Active; 'I' for Inactive)
REMARK    1  A    between atoms: N_1  and  C_27
REMARK    2  A    between atoms: C_4  and  C_16
REMARK    3  A    between atoms: C_13  and  C_22
REMARK    4  A    between atoms: N_21  and  C_24
REMARK    5  A    between atoms: C_27  and  C_28
REMARK    6  A    between atoms: C_28  and  N_30
REMARK                            x       y       z     vdW  Elec       q    Type
REMARK                         _______ _______ _______ _____ _____    ______ ____
ROOT
ATOM      1  N   UNL     1      33.974 -23.819 -16.320  0.00  0.00    -0.270 N 
ATOM      2  N   UNL     1      35.088 -22.353 -17.738  0.00  0.00    -0.338 NA
ATOM      3  N   UNL     1      32.688 -22.568 -17.790  0.00  0.00    -0.170 NA
ATOM      4  C   UNL     1      34.947 -19.497 -20.771  0.00  0.00    -0.000 C 
ATOM      5  C   UNL     1      33.768 -20.069 -20.303  0.00  0.00    +0.004 C 
ATOM      6  C   UNL     1      33.811 -21.033 -19.281  0.00  0.00    +0.050 C 
ATOM      7  C   UNL     1      33.912 -22.871 -17.328  0.00  0.00    +0.145 C 
ATOM      8  C   UNL     1      36.163 -19.884 -20.220  0.00  0.00    +0.003 C 
ATOM      9  C   UNL     1      35.034 -21.432 -18.717  0.00  0.00    +0.146 C 
ATOM     10  C   UNL     1      36.198 -20.843 -19.203  0.00  0.00    +0.033 C 
ATOM     11  C   UNL     1      32.670 -21.643 -18.769  0.00  0.00    +0.114 C 
ATOM     12  H   UNL     1      33.130 -24.213 -16.000  0.00  0.00    +0.159 HD
ENDROOT
BRANCH   4  16
ATOM     13  C   UNL     1      34.778 -16.184 -22.479  0.00  0.00    +0.053 C 
ATOM     14  C   UNL     1      34.817 -17.157 -21.480  0.00  0.00    +0.004 C 
ATOM     15  C   UNL     1      34.828 -16.559 -23.820  0.00  0.00    +0.004 C 
ATOM     16  C   UNL     1      34.907 -18.506 -21.824  0.00  0.00    -0.004 C 
ATOM     17  C   UNL     1      34.957 -18.881 -23.167  0.00  0.00    -0.022 C 
ATOM     18  C   UNL     1      34.918 -17.908 -24.166  0.00  0.00    -0.004 C 
ATOM     19  C   UNL     1      35.054 -20.317 -23.574  0.00  0.00    +0.031 C 
BRANCH  13  22
ATOM     20  O   UNL     1      34.924 -14.401 -20.959  0.00  0.00    -0.270 OA
ATOM     21  N   UNL     1      34.297 -13.887 -23.130  0.00  0.00    -0.302 N 
ATOM     22  C   UNL     1      34.684 -14.777 -22.121  0.00  0.00    +0.246 C 
ATOM     23  H   UNL     1      34.122 -14.248 -24.030  0.00  0.00    +0.150 HD
BRANCH  21  24
ATOM     24  C   UNL     1      34.143 -12.474 -22.920  0.00  0.00    +0.072 C 
ATOM     25  C   UNL     1      33.573 -11.588 -23.988  0.00  0.00    +0.021 C 
ATOM     26  C   UNL     1      32.786 -11.861 -22.739  0.00  0.00    +0.021 C 
ENDBRANCH  21  24
ENDBRANCH  13  22
ENDBRANCH   4  16
BRANCH   1  27
ATOM     27  C   UNL     1      35.206 -24.260 -15.709  0.00  0.00    +0.075 C 
BRANCH  27  28
ATOM     28  C   UNL     1      35.049 -24.277 -14.194  0.00  0.00    -0.055 C 
BRANCH  28  30
ATOM     29  O   UNL     1      38.467 -26.435 -13.063  0.00  0.00    -0.358 OA
ATOM     30  N   UNL     1      35.915 -25.297 -13.605  0.00  0.00    +0.391 N 
ATOM     31  C   UNL     1      36.829 -24.699 -12.621  0.00  0.00    -0.045 C 
ATOM     32  C   UNL     1      36.682 -25.996 -14.646  0.00  0.00    -0.045 C 
ATOM     33  C   UNL     1      37.730 -25.779 -12.029  0.00  0.00    +0.119 C 
ATOM     34  C   UNL     1      37.585 -27.046 -14.005  0.00  0.00    +0.119 C 
ATOM     35  H   UNL     1      35.320 -25.973 -13.127  0.00  0.00    -0.079 HD
ENDBRANCH  28  30
ENDBRANCH  27  28
ENDBRANCH   1  27
TORSDOF 6
ENDMDL
MODEL 2
REMARK VINA RESULT:     -11.2      2.259     11.333
REMARK  Name = 24963046
REMARK  6 active torsions:
REMARK  status: ('A' for Active; 'I' for Inactive)
REMARK    1  A    between atoms: N_1  and  C_27
REMARK    2  A    between atoms: C_4  and  C_16
REMARK    3  A    between atoms: C_13  and  C_22
REMARK    4  A    between atoms: N_21  and  C_24
REMARK    5  A    between atoms: C_27  and  C_28
REMARK    6  A    between atoms: C_28  and  N_30
REMARK                            x       y       z     vdW  Elec       q    Type
REMARK                         _______ _______ _______ _____ _____    ______ ____
ROOT
ATOM      1  N   UNL     1      35.818 -18.144 -22.954  0.00  0.00    -0.270 N 
ATOM      2  N   UNL     1      34.752 -19.528 -21.421  0.00  0.00    -0.338 NA
ATOM      3  N   UNL     1      37.083 -18.961 -21.190  0.00  0.00    -0.170 NA
ATOM      4  C   UNL     1      34.922 -21.850 -17.964  0.00  0.00    -0.000 C 
ATOM      5  C   UNL     1      36.062 -21.188 -18.410  0.00  0.00    +0.004 C 
ATOM      6  C   UNL     1      36.009 -20.404 -19.576  0.00  0.00    +0.050 C 
ATOM      7  C   UNL     1      35.890 -18.912 -21.803  0.00  0.00    +0.145 C 
ATOM      8  C   UNL     1      33.735 -21.730 -18.678  0.00  0.00    +0.003 C 
ATOM      9  C   UNL     1      34.815 -20.275 -20.306  0.00  0.00    +0.146 C 
ATOM     10  C   UNL     1      33.690 -20.948 -19.836  0.00  0.00    +0.033 C 
ATOM     11  C   UNL     1      37.111 -19.717 -20.075  0.00  0.00    +0.114 C 
ATOM     12  H   UNL     1      36.634 -17.682 -23.255  0.00  0.00    +0.159 HD
ENDROOT
BRANCH   4  16
ATOM     13  C   UNL     1      36.273 -23.626 -14.973  0.00  0.00    +0.053 C 
ATOM     14  C   UNL     1      36.200 -22.850 -16.131  0.00  0.00    +0.004 C 
ATOM     15  C   UNL     1      35.119 -24.208 -14.451  0.00  0.00    +0.004 C 
ATOM     16  C   UNL     1      34.973 -22.658 -16.766  0.00  0.00    -0.004 C 
ATOM     17  C   UNL     1      33.819 -23.242 -16.243  0.00  0.00    -0.022 C 
ATOM     18  C   UNL     1      33.891 -24.017 -15.085  0.00  0.00    -0.004 C 
ATOM     19  C   UNL     1      32.485 -23.059 -16.895  0.00  0.00    +0.031 C 
BRANCH  13  22
ATOM     20  O   UNL     1      37.791 -23.283 -13.217  0.00  0.00    -0.270 OA
ATOM     21  N   UNL     1      38.490 -24.631 -14.967  0.00  0.00    -0.302 N 
ATOM     22  C   UNL     1      37.552 -23.826 -14.311  0.00  0.00    +0.246 C 
ATOM     23  H   UNL     1      38.239 -25.033 -15.831  0.00  0.00    +0.150 HD
BRANCH  21  24
ATOM     24  C   UNL     1      39.802 -24.902 -14.445  0.00  0.00    +0.072 C 
ATOM     25  C   UNL     1      40.048 -26.061 -13.525  0.00  0.00    +0.021 C 
ATOM     26  C   UNL     1      40.598 -26.080 -14.921  0.00  0.00    +0.021 C 
ENDBRANCH  21  24
ENDBRANCH  13  22
ENDBRANCH   4  16
BRANCH   1  27
ATOM     27  C   UNL     1      34.616 -17.981 -23.736  0.00  0.00    +0.075 C 
BRANCH  27  28
ATOM     28  C   UNL     1      34.691 -16.682 -24.527  0.00  0.00    -0.055 C 
BRANCH  28  30
ATOM     29  O   UNL     1      33.770 -12.877 -23.012  0.00  0.00    -0.358 OA
ATOM     30  N   UNL     1      34.034 -15.601 -23.794  0.00  0.00    +0.391 N 
ATOM     31  C   UNL     1      33.515 -14.584 -24.719  0.00  0.00    -0.045 C 
ATOM     32  C   UNL     1      34.958 -14.985 -22.833  0.00  0.00    -0.045 C 
ATOM     33  C   UNL     1      32.845 -13.462 -23.932  0.00  0.00    +0.119 C 
ATOM     34  C   UNL     1      34.253 -13.854 -22.089  0.00  0.00    +0.119 C 
ATOM     35  H   UNL     1      33.249 -16.004 -23.281  0.00  0.00    -0.079 HD
ENDBRANCH  28  30
ENDBRANCH  27  28
ENDBRANCH   1  27
TORSDOF 6
ENDMDL
MODEL 3
REMARK VINA RESULT:     -10.6      3.210     11.278
REMARK  Name = 24963046
REMARK  6 active torsions:
REMARK  status: ('A' for Active; 'I' for Inactive)
REMARK    1  A    between atoms: N_1  and  C_27
REMARK    2  A    between atoms: C_4  and  C_16
REMARK    3  A    between atoms: C_13  and  C_22
REMARK    4  A    between atoms: N_21  and  C_24
REMARK    5  A    between atoms: C_27  and  C_28
REMARK    6  A    between atoms: C_28  and  N_30
REMARK                            x       y       z     vdW  Elec       q    Type
REMARK                         _______ _______ _______ _____ _____    ______ ____
ROOT
ATOM      1  N   UNL     1      33.594 -12.675 -24.716  0.00  0.00    -0.270 N 
ATOM      2  N   UNL     1      34.209 -13.974 -22.889  0.00  0.00    -0.338 NA
ATOM      3  N   UNL     1      33.898 -14.947 -25.072  0.00  0.00    -0.170 NA
ATOM      4  C   UNL     1      35.180 -17.707 -21.308  0.00  0.00    -0.000 C 
ATOM      5  C   UNL     1      34.867 -17.587 -22.659  0.00  0.00    +0.004 C 
ATOM      6  C   UNL     1      34.538 -16.329 -23.195  0.00  0.00    +0.050 C 
ATOM      7  C   UNL     1      33.914 -13.922 -24.204  0.00  0.00    +0.145 C 
ATOM      8  C   UNL     1      35.167 -16.576 -20.498  0.00  0.00    +0.003 C 
ATOM      9  C   UNL     1      34.521 -15.181 -22.387  0.00  0.00    +0.146 C 
ATOM     10  C   UNL     1      34.840 -15.330 -21.039  0.00  0.00    +0.033 C 
ATOM     11  C   UNL     1      34.216 -16.141 -24.536  0.00  0.00    +0.114 C 
ATOM     12  H   UNL     1      33.375 -12.608 -25.674  0.00  0.00    +0.159 HD
ENDROOT
BRANCH   4  16
ATOM     13  C   UNL     1      34.805 -21.033 -19.662  0.00  0.00    +0.053 C 
ATOM     14  C   UNL     1      34.503 -19.784 -20.204  0.00  0.00    +0.004 C 
ATOM     15  C   UNL     1      36.120 -21.497 -19.668  0.00  0.00    +0.004 C 
ATOM     16  C   UNL     1      35.517 -18.998 -20.752  0.00  0.00    -0.004 C 
ATOM     17  C   UNL     1      36.833 -19.463 -20.758  0.00  0.00    -0.022 C 
ATOM     18  C   UNL     1      37.134 -20.712 -20.216  0.00  0.00    -0.004 C 
ATOM     19  C   UNL     1      37.946 -18.649 -21.337  0.00  0.00    +0.031 C 
BRANCH  13  22
ATOM     20  O   UNL     1      32.639 -21.937 -19.647  0.00  0.00    -0.270 OA
ATOM     21  N   UNL     1      34.034 -22.516 -17.890  0.00  0.00    -0.302 N 
ATOM     22  C   UNL     1      33.748 -21.853 -19.090  0.00  0.00    +0.246 C 
ATOM     23  H   UNL     1      34.932 -22.408 -17.499  0.00  0.00    +0.150 HD
BRANCH  21  24
ATOM     24  C   UNL     1      33.084 -23.343 -17.199  0.00  0.00    +0.072 C 
ATOM     25  C   UNL     1      33.068 -23.423 -15.701  0.00  0.00    +0.021 C 
ATOM     26  C   UNL     1      31.947 -22.741 -16.429  0.00  0.00    +0.021 C 
ENDBRANCH  21  24
ENDBRANCH  13  22
ENDBRANCH   4  16
BRANCH   1  27
ATOM     27  C   UNL     1      33.563 -11.468 -23.925  0.00  0.00    +0.075 C 
BRANCH  27  28
ATOM     28  C   UNL     1      32.190 -11.308 -23.286  0.00  0.00    -0.055 C 
BRANCH  28  30
ATOM     29  O   UNL     1      31.242 -10.141 -19.367  0.00  0.00    -0.358 OA
ATOM     30  N   UNL     1      32.323 -10.892 -21.892  0.00  0.00    +0.391 N 
ATOM     31  C   UNL     1      31.715 -11.882 -20.991  0.00  0.00    -0.045 C 
ATOM     32  C   UNL     1      31.709  -9.574 -21.680  0.00  0.00    -0.045 C 
ATOM     33  C   UNL     1      31.855 -11.420 -19.544  0.00  0.00    +0.119 C 
ATOM     34  C   UNL     1      31.851  -9.166 -20.216  0.00  0.00    +0.119 C 
ATOM     35  H   UNL     1      33.318 -10.827 -21.679  0.00  0.00    -0.079 HD
ENDBRANCH  28  30
ENDBRANCH  27  28
ENDBRANCH   1  27
TORSDOF 6
ENDMDL
MODEL 4
REMARK VINA RESULT:     -10.6      2.970     10.821
REMARK  Name = 24963046
REMARK  6 active torsions:
REMARK  status: ('A' for Active; 'I' for Inactive)
REMARK    1  A    between atoms: N_1  and  C_27
REMARK    2  A    between atoms: C_4  and  C_16
REMARK    3  A    between atoms: C_13  and  C_22
REMARK    4  A    between atoms: N_21  and  C_24
REMARK    5  A    between atoms: C_27  and  C_28
REMARK    6  A    between atoms: C_28  and  N_30
REMARK                            x       y       z     vdW  Elec       q    Type
REMARK                         _______ _______ _______ _____ _____    ______ ____
ROOT
ATOM      1  N   UNL     1      35.753 -17.960 -23.283  0.00  0.00    -0.270 N 
ATOM      2  N   UNL     1      34.509 -19.241 -21.795  0.00  0.00    -0.338 NA
ATOM      3  N   UNL     1      36.878 -18.911 -21.491  0.00  0.00    -0.170 NA
ATOM      4  C   UNL     1      34.344 -21.591 -18.356  0.00  0.00    -0.000 C 
ATOM      5  C   UNL     1      35.557 -21.043 -18.763  0.00  0.00    +0.004 C 
ATOM      6  C   UNL     1      35.617 -20.250 -19.922  0.00  0.00    +0.050 C 
ATOM      7  C   UNL     1      35.714 -18.739 -22.138  0.00  0.00    +0.145 C 
ATOM      8  C   UNL     1      33.197 -21.347 -19.102  0.00  0.00    +0.003 C 
ATOM      9  C   UNL     1      34.464 -19.998 -20.685  0.00  0.00    +0.146 C 
ATOM     10  C   UNL     1      33.264 -20.557 -20.254  0.00  0.00    +0.033 C 
ATOM     11  C   UNL     1      36.797 -19.674 -20.383  0.00  0.00    +0.114 C 
ATOM     12  H   UNL     1      36.620 -17.580 -23.556  0.00  0.00    +0.159 HD
ENDROOT
BRANCH   4  16
ATOM     13  C   UNL     1      32.948 -23.649 -15.575  0.00  0.00    +0.053 C 
ATOM     14  C   UNL     1      33.036 -22.860 -16.722  0.00  0.00    +0.004 C 
ATOM     15  C   UNL     1      34.104 -23.987 -14.872  0.00  0.00    +0.004 C 
ATOM     16  C   UNL     1      34.279 -22.407 -17.164  0.00  0.00    -0.004 C 
ATOM     17  C   UNL     1      35.435 -22.746 -16.459  0.00  0.00    -0.022 C 
ATOM     18  C   UNL     1      35.347 -23.536 -15.313  0.00  0.00    -0.004 C 
ATOM     19  C   UNL     1      36.785 -22.280 -16.903  0.00  0.00    +0.031 C 
BRANCH  13  22
ATOM     20  O   UNL     1      31.571 -25.085 -14.331  0.00  0.00    -0.270 OA
ATOM     21  N   UNL     1      30.521 -23.459 -15.605  0.00  0.00    -0.302 N 
ATOM     22  C   UNL     1      31.652 -24.122 -15.114  0.00  0.00    +0.246 C 
ATOM     23  H   UNL     1      30.653 -22.703 -16.222  0.00  0.00    +0.150 HD
BRANCH  21  24
ATOM     24  C   UNL     1      29.177 -23.826 -15.254  0.00  0.00    +0.072 C 
ATOM     25  C   UNL     1      28.010 -22.967 -15.644  0.00  0.00    +0.021 C 
ATOM     26  C   UNL     1      28.208 -24.306 -16.293  0.00  0.00    +0.021 C 
ENDBRANCH  21  24
ENDBRANCH  13  22
ENDBRANCH   4  16
BRANCH   1  27
ATOM     27  C   UNL     1      34.597 -17.673 -24.097  0.00  0.00    +0.075 C 
BRANCH  27  28
ATOM     28  C   UNL     1      34.647 -16.224 -24.566  0.00  0.00    -0.055 C 
BRANCH  28  30
ATOM     29  O   UNL     1      33.547 -12.898 -22.256  0.00  0.00    -0.358 OA
ATOM     30  N   UNL     1      33.932 -15.361 -23.629  0.00  0.00    +0.391 N 
ATOM     31  C   UNL     1      33.400 -14.175 -24.315  0.00  0.00    -0.045 C 
ATOM     32  C   UNL     1      34.808 -14.953 -22.522  0.00  0.00    -0.045 C 
ATOM     33  C   UNL     1      32.669 -13.284 -23.315  0.00  0.00    +0.119 C 
ATOM     34  C   UNL     1      34.043 -14.045 -21.564  0.00  0.00    +0.119 C 
ATOM     35  H   UNL     1      33.150 -15.895 -23.248  0.00  0.00    -0.079 HD
ENDBRANCH  28  30
ENDBRANCH  27  28
ENDBRANCH   1  27
TORSDOF 6
ENDMDL
MODEL 5
REMARK VINA RESULT:     -10.5      2.816     11.018
REMARK  Name = 24963046
REMARK  6 active torsions:
REMARK  status: ('A' for Active; 'I' for Inactive)
REMARK    1  A    between atoms: N_1  and  C_27
REMARK    2  A    between atoms: C_4  and  C_16
REMARK    3  A    between atoms: C_13  and  C_22
REMARK    4  A    between atoms: N_21  and  C_24
REMARK    5  A    between atoms: C_27  and  C_28
REMARK    6  A    between atoms: C_28  and  N_30
REMARK                            x       y       z     vdW  Elec       q    Type
REMARK                         _______ _______ _______ _____ _____    ______ ____
ROOT
ATOM      1  N   UNL     1      34.429 -19.118 -22.431  0.00  0.00    -0.270 N 
ATOM      2  N   UNL     1      35.524 -20.035 -20.598  0.00  0.00    -0.338 NA
ATOM      3  N   UNL     1      33.149 -20.308 -20.906  0.00  0.00    -0.170 NA
ATOM      4  C   UNL     1      35.370 -22.242 -17.065  0.00  0.00    -0.000 C 
ATOM      5  C   UNL     1      34.205 -22.020 -17.794  0.00  0.00    +0.004 C 
ATOM      6  C   UNL     1      34.253 -21.276 -18.986  0.00  0.00    +0.050 C 
ATOM      7  C   UNL     1      34.362 -19.853 -21.259  0.00  0.00    +0.145 C 
ATOM      8  C   UNL     1      36.576 -21.724 -17.524  0.00  0.00    +0.003 C 
ATOM      9  C   UNL     1      35.466 -20.748 -19.460  0.00  0.00    +0.146 C 
ATOM     10  C   UNL     1      36.615 -20.986 -18.710  0.00  0.00    +0.033 C 
ATOM     11  C   UNL     1      33.127 -21.018 -19.761  0.00  0.00    +0.114 C 
ATOM     12  H   UNL     1      33.595 -18.971 -22.935  0.00  0.00    +0.159 HD
ENDROOT
BRANCH   4  16
ATOM     13  C   UNL     1      34.019 -24.132 -14.146  0.00  0.00    +0.053 C 
ATOM     14  C   UNL     1      34.087 -23.394 -15.328  0.00  0.00    +0.004 C 
ATOM     15  C   UNL     1      35.190 -24.482 -13.475  0.00  0.00    +0.004 C 
ATOM     16  C   UNL     1      35.325 -23.006 -15.838  0.00  0.00    -0.004 C 
ATOM     17  C   UNL     1      36.496 -23.356 -15.166  0.00  0.00    -0.022 C 
ATOM     18  C   UNL     1      36.429 -24.095 -13.984  0.00  0.00    -0.004 C 
ATOM     19  C   UNL     1      37.843 -22.958 -15.682  0.00  0.00    +0.031 C 
BRANCH  13  22
ATOM     20  O   UNL     1      32.656 -25.243 -12.592  0.00  0.00    -0.270 OA
ATOM     21  N   UNL     1      31.589 -24.116 -14.312  0.00  0.00    -0.302 N 
ATOM     22  C   UNL     1      32.727 -24.538 -13.614  0.00  0.00    +0.246 C 
ATOM     23  H   UNL     1      31.713 -23.558 -15.115  0.00  0.00    +0.150 HD
BRANCH  21  24
ATOM     24  C   UNL     1      30.250 -24.455 -13.918  0.00  0.00    +0.072 C 
ATOM     25  C   UNL     1      29.118 -24.423 -14.903  0.00  0.00    +0.021 C 
ATOM     26  C   UNL     1      29.611 -25.736 -14.366  0.00  0.00    +0.021 C 
ENDBRANCH  21  24
ENDBRANCH  13  22
ENDBRANCH   4  16
BRANCH   1  27
ATOM     27  C   UNL     1      35.650 -18.557 -22.957  0.00  0.00    +0.075 C 
BRANCH  27  28
ATOM     28  C   UNL     1      35.776 -17.103 -22.519  0.00  0.00    -0.055 C 
BRANCH  28  30
ATOM     29  O   UNL     1      33.580 -14.142 -24.527  0.00  0.00    -0.358 OA
ATOM     30  N   UNL     1      34.660 -16.316 -23.040  0.00  0.00    +0.391 N 
ATOM     31  C   UNL     1      34.666 -16.313 -24.510  0.00  0.00    -0.045 C 
ATOM     32  C   UNL     1      34.710 -14.939 -22.533  0.00  0.00    -0.045 C 
ATOM     33  C   UNL     1      33.500 -15.477 -25.030  0.00  0.00    +0.119 C 
ATOM     34  C   UNL     1      33.542 -14.136 -23.099  0.00  0.00    +0.119 C 
ATOM     35  H   UNL     1      33.794 -16.752 -22.720  0.00  0.00    -0.079 HD
ENDBRANCH  28  30
ENDBRANCH  27  28
ENDBRANCH   1  27
TORSDOF 6
ENDMDL
MODEL 6
REMARK VINA RESULT:     -10.4      2.099     11.337
REMARK  Name = 24963046
REMARK  6 active torsions:
REMARK  status: ('A' for Active; 'I' for Inactive)
REMARK    1  A    between atoms: N_1  and  C_27
REMARK    2  A    between atoms: C_4  and  C_16
REMARK    3  A    between atoms: C_13  and  C_22
REMARK    4  A    between atoms: N_21  and  C_24
REMARK    5  A    between atoms: C_27  and  C_28
REMARK    6  A    between atoms: C_28  and  N_30
REMARK                            x       y       z     vdW  Elec       q    Type
REMARK                         _______ _______ _______ _____ _____    ______ ____
ROOT
ATOM      1  N   UNL     1      34.350 -19.085 -22.407  0.00  0.00    -0.270 N 
ATOM      2  N   UNL     1      35.277 -20.170 -20.572  0.00  0.00    -0.338 NA
ATOM      3  N   UNL     1      32.906 -20.228 -20.997  0.00  0.00    -0.170 NA
ATOM      4  C   UNL     1      34.773 -22.507 -17.158  0.00  0.00    -0.000 C 
ATOM      5  C   UNL     1      33.667 -22.156 -17.927  0.00  0.00    +0.004 C 
ATOM      6  C   UNL     1      33.833 -21.368 -19.079  0.00  0.00    +0.050 C 
ATOM      7  C   UNL     1      34.168 -19.862 -21.275  0.00  0.00    +0.145 C 
ATOM      8  C   UNL     1      36.038 -22.073 -17.538  0.00  0.00    +0.003 C 
ATOM      9  C   UNL     1      35.106 -20.924 -19.472  0.00  0.00    +0.146 C 
ATOM     10  C   UNL     1      36.195 -21.290 -18.685  0.00  0.00    +0.033 C 
ATOM     11  C   UNL     1      32.770 -20.983 -19.890  0.00  0.00    +0.114 C 
ATOM     12  H   UNL     1      33.557 -18.846 -22.939  0.00  0.00    +0.159 HD
ENDROOT
BRANCH   4  16
ATOM     13  C   UNL     1      35.585 -24.735 -14.278  0.00  0.00    +0.053 C 
ATOM     14  C   UNL     1      35.721 -23.949 -15.422  0.00  0.00    +0.004 C 
ATOM     15  C   UNL     1      34.333 -24.888 -13.683  0.00  0.00    +0.004 C 
ATOM     16  C   UNL     1      34.606 -23.317 -15.971  0.00  0.00    -0.004 C 
ATOM     17  C   UNL     1      33.354 -23.471 -15.376  0.00  0.00    -0.022 C 
ATOM     18  C   UNL     1      33.217 -24.256 -14.231  0.00  0.00    -0.004 C 
ATOM     19  C   UNL     1      32.135 -22.808 -15.936  0.00  0.00    +0.031 C 
BRANCH  13  22
ATOM     20  O   UNL     1      36.749 -25.755 -12.513  0.00  0.00    -0.270 OA
ATOM     21  N   UNL     1      37.853 -25.579 -14.543  0.00  0.00    -0.302 N 
ATOM     22  C   UNL     1      36.747 -25.394 -13.704  0.00  0.00    +0.246 C 
ATOM     23  H   UNL     1      37.789 -25.271 -15.476  0.00  0.00    +0.150 HD
BRANCH  21  24
ATOM     24  C   UNL     1      39.077 -26.195 -14.111  0.00  0.00    +0.072 C 
ATOM     25  C   UNL     1      40.386 -25.867 -14.767  0.00  0.00    +0.021 C 
ATOM     26  C   UNL     1      40.116 -25.416 -13.361  0.00  0.00    +0.021 C 
ENDBRANCH  21  24
ENDBRANCH  13  22
ENDBRANCH   4  16
BRANCH   1  27
ATOM     27  C   UNL     1      35.638 -18.606 -22.851  0.00  0.00    +0.075 C 
BRANCH  27  28
ATOM     28  C   UNL     1      35.797 -17.139 -22.472  0.00  0.00    -0.055 C 
BRANCH  28  30
ATOM     29  O   UNL     1      33.611 -14.152 -24.451  0.00  0.00    -0.358 OA
ATOM     30  N   UNL     1      34.683 -16.354 -23.001  0.00  0.00    +0.391 N 
ATOM     31  C   UNL     1      34.730 -16.305 -24.469  0.00  0.00    -0.045 C 
ATOM     32  C   UNL     1      34.697 -14.991 -22.451  0.00  0.00    -0.045 C 
ATOM     33  C   UNL     1      33.566 -15.471 -24.996  0.00  0.00    +0.119 C 
ATOM     34  C   UNL     1      33.533 -14.189 -23.025  0.00  0.00    +0.119 C 
ATOM     35  H   UNL     1      33.816 -16.812 -22.718  0.00  0.00    -0.079 HD
ENDBRANCH  28  30
ENDBRANCH  27  28
ENDBRANCH   1  27
TORSDOF 6
ENDMDL
MODEL 7
REMARK VINA RESULT:     -10.3      4.307      8.404
REMARK  Name = 24963046
REMARK  6 active torsions:
REMARK  status: ('A' for Active; 'I' for Inactive)
REMARK    1  A    between atoms: N_1  and  C_27
REMARK    2  A    between atoms: C_4  and  C_16
REMARK    3  A    between atoms: C_13  and  C_22
REMARK    4  A    between atoms: N_21  and  C_24
REMARK    5  A    between atoms: C_27  and  C_28
REMARK    6  A    between atoms: C_28  and  N_30
REMARK                            x       y       z     vdW  Elec       q    Type
REMARK                         _______ _______ _______ _____ _____    ______ ____
ROOT
ATOM      1  N   UNL     1      34.894 -18.178 -23.936  0.00  0.00    -0.270 N 
ATOM      2  N   UNL     1      34.669 -16.146 -22.830  0.00  0.00    -0.338 NA
ATOM      3  N   UNL     1      33.991 -16.405 -25.128  0.00  0.00    -0.170 NA
ATOM      4  C   UNL     1      33.498 -12.146 -22.882  0.00  0.00    -0.000 C 
ATOM      5  C   UNL     1      33.348 -12.927 -24.025  0.00  0.00    +0.004 C 
ATOM      6  C   UNL     1      33.742 -14.276 -24.011  0.00  0.00    +0.050 C 
ATOM      7  C   UNL     1      34.500 -16.850 -23.968  0.00  0.00    +0.145 C 
ATOM      8  C   UNL     1      34.037 -12.711 -21.731  0.00  0.00    +0.003 C 
ATOM      9  C   UNL     1      34.289 -14.857 -22.854  0.00  0.00    +0.146 C 
ATOM     10  C   UNL     1      34.426 -14.053 -21.726  0.00  0.00    +0.033 C 
ATOM     11  C   UNL     1      33.620 -15.110 -25.118  0.00  0.00    +0.114 C 
ATOM     12  H   UNL     1      34.780 -18.716 -24.753  0.00  0.00    +0.159 HD
ENDROOT
BRANCH   4  16
ATOM     13  C   UNL     1      33.650  -8.442 -23.303  0.00  0.00    +0.053 C 
ATOM     14  C   UNL     1      34.016  -9.788 -23.285  0.00  0.00    +0.004 C 
ATOM     15  C   UNL     1      32.360  -8.066 -22.929  0.00  0.00    +0.004 C 
ATOM     16  C   UNL     1      33.094 -10.757 -22.892  0.00  0.00    -0.004 C 
ATOM     17  C   UNL     1      31.804 -10.380 -22.517  0.00  0.00    -0.022 C 
ATOM     18  C   UNL     1      31.437  -9.035 -22.536  0.00  0.00    -0.004 C 
ATOM     19  C   UNL     1      30.788 -11.391 -22.091  0.00  0.00    +0.031 C 
BRANCH  13  22
ATOM     20  O   UNL     1      35.677  -7.280 -23.090  0.00  0.00    -0.270 OA
ATOM     21  N   UNL     1      34.270  -6.636 -24.814  0.00  0.00    -0.302 N 
ATOM     22  C   UNL     1      34.611  -7.431 -23.713  0.00  0.00    +0.246 C 
ATOM     23  H   UNL     1      33.410  -6.806 -25.264  0.00  0.00    +0.150 HD
BRANCH  21  24
ATOM     24  C   UNL     1      35.109  -5.585 -25.320  0.00  0.00    +0.072 C 
ATOM     25  C   UNL     1      35.539  -5.558 -26.757  0.00  0.00    +0.021 C 
ATOM     26  C   UNL     1      34.566  -4.536 -26.244  0.00  0.00    +0.021 C 
ENDBRANCH  21  24
ENDBRANCH  13  22
ENDBRANCH   4  16
BRANCH   1  27
ATOM     27  C   UNL     1      35.459 -18.818 -22.772  0.00  0.00    +0.075 C 
BRANCH  27  28
ATOM     28  C   UNL     1      34.352 -19.145 -21.778  0.00  0.00    -0.055 C 
BRANCH  28  30
ATOM     29  O   UNL     1      35.315 -21.553 -18.478  0.00  0.00    -0.358 OA
ATOM     30  N   UNL     1      34.724 -20.301 -20.965  0.00  0.00    +0.391 N 
ATOM     31  C   UNL     1      33.667 -20.616 -19.993  0.00  0.00    -0.045 C 
ATOM     32  C   UNL     1      35.995 -20.063 -20.268  0.00  0.00    -0.045 C 
ATOM     33  C   UNL     1      34.082 -21.817 -19.149  0.00  0.00    +0.119 C 
ATOM     34  C   UNL     1      36.355 -21.278 -19.418  0.00  0.00    +0.119 C 
ATOM     35  H   UNL     1      34.838 -21.098 -21.591  0.00  0.00    -0.079 HD
ENDBRANCH  28  30
ENDBRANCH  27  28
ENDBRANCH   1  27
TORSDOF 6
ENDMDL
MODEL 8
REMARK VINA RESULT:     -10.3      3.331     12.090
REMARK  Name = 24963046
REMARK  6 active torsions:
REMARK  status: ('A' for Active; 'I' for Inactive)
REMARK    1  A    between atoms: N_1  and  C_27
REMARK    2  A    between atoms: C_4  and  C_16
REMARK    3  A    between atoms: C_13  and  C_22
REMARK    4  A    between atoms: N_21  and  C_24
REMARK    5  A    between atoms: C_27  and  C_28
REMARK    6  A    between atoms: C_28  and  N_30
REMARK                            x       y       z     vdW  Elec       q    Type
REMARK                         _______ _______ _______ _____ _____    ______ ____
ROOT
ATOM      1  N   UNL     1      33.539 -11.829 -22.700  0.00  0.00    -0.270 N 
ATOM      2  N   UNL     1      34.215 -14.033 -22.996  0.00  0.00    -0.338 NA
ATOM      3  N   UNL     1      33.790 -13.136 -20.800  0.00  0.00    -0.170 NA
ATOM      4  C   UNL     1      35.195 -17.735 -21.350  0.00  0.00    -0.000 C 
ATOM      5  C   UNL     1      34.823 -16.684 -20.517  0.00  0.00    +0.004 C 
ATOM      6  C   UNL     1      34.492 -15.434 -21.069  0.00  0.00    +0.050 C 
ATOM      7  C   UNL     1      33.863 -13.054 -22.138  0.00  0.00    +0.145 C 
ATOM      8  C   UNL     1      35.236 -17.539 -22.726  0.00  0.00    +0.003 C 
ATOM      9  C   UNL     1      34.529 -15.224 -22.458  0.00  0.00    +0.146 C 
ATOM     10  C   UNL     1      34.905 -16.294 -23.266  0.00  0.00    +0.033 C 
ATOM     11  C   UNL     1      34.112 -14.343 -20.294  0.00  0.00    +0.114 C 
ATOM     12  H   UNL     1      33.278 -11.096 -22.096  0.00  0.00    +0.159 HD
ENDROOT
BRANCH   4  16
ATOM     13  C   UNL     1      34.836 -21.049 -19.675  0.00  0.00    +0.053 C 
ATOM     14  C   UNL     1      34.530 -19.804 -20.224  0.00  0.00    +0.004 C 
ATOM     15  C   UNL     1      36.151 -21.512 -19.689  0.00  0.00    +0.004 C 
ATOM     16  C   UNL     1      35.538 -19.022 -20.786  0.00  0.00    -0.004 C 
ATOM     17  C   UNL     1      36.854 -19.486 -20.800  0.00  0.00    -0.022 C 
ATOM     18  C   UNL     1      37.161 -20.732 -20.252  0.00  0.00    -0.004 C 
ATOM     19  C   UNL     1      37.962 -18.677 -21.396  0.00  0.00    +0.031 C 
BRANCH  13  22
ATOM     20  O   UNL     1      32.668 -21.945 -19.629  0.00  0.00    -0.270 OA
ATOM     21  N   UNL     1      34.086 -22.527 -17.891  0.00  0.00    -0.302 N 
ATOM     22  C   UNL     1      33.785 -21.865 -19.088  0.00  0.00    +0.246 C 
ATOM     23  H   UNL     1      34.990 -22.423 -17.513  0.00  0.00    +0.150 HD
BRANCH  21  24
ATOM     24  C   UNL     1      33.143 -23.351 -17.186  0.00  0.00    +0.072 C 
ATOM     25  C   UNL     1      33.128 -23.406 -15.687  0.00  0.00    +0.021 C 
ATOM     26  C   UNL     1      32.001 -22.745 -16.425  0.00  0.00    +0.021 C 
ENDBRANCH  21  24
ENDBRANCH  13  22
ENDBRANCH   4  16
BRANCH   1  27
ATOM     27  C   UNL     1      33.563 -11.567 -24.119  0.00  0.00    +0.075 C 
BRANCH  27  28
ATOM     28  C   UNL     1      32.927 -10.211 -24.400  0.00  0.00    -0.055 C 
BRANCH  28  30
ATOM     29  O   UNL     1      32.540  -6.927 -21.816  0.00  0.00    -0.358 OA
ATOM     30  N   UNL     1      32.937  -9.385 -23.194  0.00  0.00    +0.391 N 
ATOM     31  C   UNL     1      31.589  -8.880 -22.897  0.00  0.00    -0.045 C 
ATOM     32  C   UNL     1      33.875  -8.264 -23.338  0.00  0.00    -0.045 C 
ATOM     33  C   UNL     1      31.626  -8.012 -21.644  0.00  0.00    +0.119 C 
ATOM     34  C   UNL     1      33.859  -7.411 -22.073  0.00  0.00    +0.119 C 
ATOM     35  H   UNL     1      33.244  -9.971 -22.417  0.00  0.00    -0.079 HD
ENDBRANCH  28  30
ENDBRANCH  27  28
ENDBRANCH   1  27
TORSDOF 6
ENDMDL
MODEL 9
REMARK VINA RESULT:     -10.2      2.624      3.596
REMARK  Name = 24963046
REMARK  6 active torsions:
REMARK  status: ('A' for Active; 'I' for Inactive)
REMARK    1  A    between atoms: N_1  and  C_27
REMARK    2  A    between atoms: C_4  and  C_16
REMARK    3  A    between atoms: C_13  and  C_22
REMARK    4  A    between atoms: N_21  and  C_24
REMARK    5  A    between atoms: C_27  and  C_28
REMARK    6  A    between atoms: C_28  and  N_30
REMARK                            x       y       z     vdW  Elec       q    Type
REMARK                         _______ _______ _______ _____ _____    ______ ____
ROOT
ATOM      1  N   UNL     1      34.950 -23.569 -16.362  0.00  0.00    -0.270 N 
ATOM      2  N   UNL     1      34.000 -22.219 -17.998  0.00  0.00    -0.338 NA
ATOM      3  N   UNL     1      36.374 -22.204 -17.582  0.00  0.00    -0.170 NA
ATOM      4  C   UNL     1      34.459 -19.367 -21.003  0.00  0.00    -0.000 C 
ATOM      5  C   UNL     1      35.573 -19.824 -20.306  0.00  0.00    +0.004 C 
ATOM      6  C   UNL     1      35.422 -20.785 -19.291  0.00  0.00    +0.050 C 
ATOM      7  C   UNL     1      35.117 -22.621 -17.358  0.00  0.00    +0.145 C 
ATOM      8  C   UNL     1      33.200 -19.869 -20.690  0.00  0.00    +0.003 C 
ATOM      9  C   UNL     1      34.156 -21.299 -18.966  0.00  0.00    +0.146 C 
ATOM     10  C   UNL     1      33.059 -20.825 -19.680  0.00  0.00    +0.033 C 
ATOM     11  C   UNL     1      36.494 -21.283 -18.558  0.00  0.00    +0.114 C 
ATOM     12  H   UNL     1      35.749 -23.882 -15.879  0.00  0.00    +0.159 HD
ENDROOT
BRANCH   4  16
ATOM     13  C   UNL     1      34.710 -16.052 -22.697  0.00  0.00    +0.053 C 
ATOM     14  C   UNL     1      34.567 -17.025 -21.708  0.00  0.00    +0.004 C 
ATOM     15  C   UNL     1      34.896 -16.432 -24.026  0.00  0.00    +0.004 C 
ATOM     16  C   UNL     1      34.609 -18.377 -22.047  0.00  0.00    -0.004 C 
ATOM     17  C   UNL     1      34.796 -18.756 -23.377  0.00  0.00    -0.022 C 
ATOM     18  C   UNL     1      34.940 -17.784 -24.366  0.00  0.00    -0.004 C 
ATOM     19  C   UNL     1      34.847 -20.196 -23.778  0.00  0.00    +0.031 C 
BRANCH  13  22
ATOM     20  O   UNL     1      34.986 -14.264 -21.203  0.00  0.00    -0.270 OA
ATOM     21  N   UNL     1      34.231 -13.751 -23.333  0.00  0.00    -0.302 N 
ATOM     22  C   UNL     1      34.666 -14.642 -22.344  0.00  0.00    +0.246 C 
ATOM     23  H   UNL     1      33.991 -14.114 -24.217  0.00  0.00    +0.150 HD
BRANCH  21  24
ATOM     24  C   UNL     1      34.116 -12.334 -23.124  0.00  0.00    +0.072 C 
ATOM     25  C   UNL     1      33.374 -11.463 -24.094  0.00  0.00    +0.021 C 
ATOM     26  C   UNL     1      32.811 -11.712 -22.726  0.00  0.00    +0.021 C 
ENDBRANCH  21  24
ENDBRANCH  13  22
ENDBRANCH   4  16
BRANCH   1  27
ATOM     27  C   UNL     1      33.670 -24.126 -15.993  0.00  0.00    +0.075 C 
BRANCH  27  28
ATOM     28  C   UNL     1      33.204 -23.511 -14.679  0.00  0.00    -0.055 C 
BRANCH  28  30
ATOM     29  O   UNL     1      29.161 -24.283 -15.501  0.00  0.00    -0.358 OA
ATOM     30  N   UNL     1      31.744 -23.464 -14.630  0.00  0.00    +0.391 N 
ATOM     31  C   UNL     1      31.191 -24.776 -14.266  0.00  0.00    -0.045 C 
ATOM     32  C   UNL     1      31.192 -23.024 -15.919  0.00  0.00    -0.045 C 
ATOM     33  C   UNL     1      29.667 -24.705 -14.234  0.00  0.00    +0.119 C 
ATOM     34  C   UNL     1      29.668 -22.993 -15.847  0.00  0.00    +0.119 C 
ATOM     35  H   UNL     1      31.477 -22.788 -13.913  0.00  0.00    -0.079 HD
ENDBRANCH  28  30
ENDBRANCH  27  28
ENDBRANCH   1  27
TORSDOF 6
ENDMDL
