MODEL 1
REMARK VINA RESULT:     -10.9      0.000      0.000
REMARK  Name = 46209133
REMARK  4 active torsions:
REMARK  status: ('A' for Active; 'I' for Inactive)
REMARK    1  A    between atoms: C_2  and  N_7
REMARK    2  A    between atoms: C_4  and  N_28
REMARK    3  A    between atoms: C_6  and  C_22
REMARK    4  A    between atoms: N_8  and  S_16
REMARK                            x       y       z     vdW  Elec       q    Type
REMARK                         _______ _______ _______ _____ _____    ______ ____
ROOT
ATOM      1  O   UNL     1      36.501 -19.874 -19.940  0.00  0.00    -0.356 OA
ATOM      2  C   UNL     1      35.694 -21.225 -18.094  0.00  0.00    -0.029 C 
ATOM      3  C   UNL     1      34.370 -21.454 -18.827  0.00  0.00    -0.038 C 
ATOM      4  C   UNL     1      34.096 -20.304 -19.808  0.00  0.00    -0.036 C 
ATOM      5  C   UNL     1      36.815 -20.987 -19.102  0.00  0.00    +0.122 C 
ATOM      6  C   UNL     1      35.318 -20.085 -20.727  0.00  0.00    +0.120 C 
ENDROOT
BRANCH   2   7
ATOM      7  N   UNL     1      36.009 -22.364 -17.246  0.00  0.00    +0.396 N 
ATOM      8  N   UNL     1      36.546 -23.964 -13.426  0.00  0.00    -0.092 N 
ATOM      9  N   UNL     1      37.511 -23.292 -14.109  0.00  0.00    -0.165 NA
ATOM     10  C   UNL     1      34.840 -22.806 -16.415  0.00  0.00    -0.047 C 
ATOM     11  C   UNL     1      37.204 -22.122 -16.374  0.00  0.00    -0.028 C 
ATOM     12  C   UNL     1      35.512 -23.284 -15.204  0.00  0.00    -0.012 C 
ATOM     13  C   UNL     1      36.843 -22.897 -15.184  0.00  0.00    +0.053 C 
ATOM     14  C   UNL     1      35.318 -23.983 -14.051  0.00  0.00    +0.104 C 
ATOM     15  H   UNL     1      36.239 -23.121 -17.889  0.00  0.00    -0.078 HD
BRANCH   8  16
ATOM     16  S   UNL     1      36.796 -24.721 -11.949  0.00  0.00    +0.077 S 
ATOM     17  O   UNL     1      37.774 -23.981 -11.122  0.00  0.00    -0.153 OA
ATOM     18  O   UNL     1      35.503 -25.054 -11.314  0.00  0.00    -0.153 OA
ATOM     19  C   UNL     1      37.588 -26.293 -12.310  0.00  0.00    +0.202 C 
ENDBRANCH   8  16
ENDBRANCH   2   7
BRANCH   6  22
ATOM     20  F   UNL     1      34.931 -20.186 -23.524  0.00  0.00    -0.204 F 
ATOM     21  F   UNL     1      35.131 -15.242 -21.193  0.00  0.00    -0.204 F 
ATOM     22  C   UNL     1      35.170 -18.861 -21.569  0.00  0.00    +0.032 C 
ATOM     23  C   UNL     1      34.980 -18.977 -22.946  0.00  0.00    +0.138 C 
ATOM     24  C   UNL     1      35.221 -17.599 -20.977  0.00  0.00    +0.030 C 
ATOM     25  C   UNL     1      35.082 -16.454 -21.762  0.00  0.00    +0.140 C 
ATOM     26  C   UNL     1      34.842 -17.832 -23.731  0.00  0.00    +0.032 C 
ATOM     27  C   UNL     1      34.892 -16.571 -23.139  0.00  0.00    +0.032 C 
ENDBRANCH   6  22
BRANCH   4  28
ATOM     28  N   UNL     1      32.880 -20.606 -20.566  0.00  0.00    +0.384 N 
ATOM     29  H   UNL     1      32.248 -19.806 -20.527  0.00  0.00    -0.089 HD
ATOM     30  H   UNL     1      32.422 -21.423 -20.163  0.00  0.00    -0.089 HD
ATOM     31  H   UNL     1      33.126 -20.798 -21.537  0.00  0.00    -0.089 HD
ENDBRANCH   4  28
TORSDOF 4
ENDMDL
MODEL 2
REMARK VINA RESULT:     -10.5      2.260      2.742
REMARK  Name = 46209133
REMARK  4 active torsions:
REMARK  status: ('A' for Active; 'I' for Inactive)
REMARK    1  A    between atoms: C_2  and  N_7
REMARK    2  A    between atoms: C_4  and  N_28
REMARK    3  A    between atoms: C_6  and  C_22
REMARK    4  A    between atoms: N_8  and  S_16
REMARK                            x       y       z     vdW  Elec       q    Type
REMARK                         _______ _______ _______ _____ _____    ______ ____
ROOT
ATOM      1  O   UNL     1      33.838 -19.853 -20.805  0.00  0.00    -0.356 OA
ATOM      2  C   UNL     1      34.892 -21.714 -19.661  0.00  0.00    -0.029 C 
ATOM      3  C   UNL     1      36.173 -20.894 -19.484  0.00  0.00    -0.038 C 
ATOM      4  C   UNL     1      36.275 -19.820 -20.578  0.00  0.00    -0.036 C 
ATOM      5  C   UNL     1      33.683 -20.785 -19.734  0.00  0.00    +0.122 C 
ATOM      6  C   UNL     1      34.974 -18.989 -20.632  0.00  0.00    +0.120 C 
ENDROOT
BRANCH   2   7
ATOM      7  N   UNL     1      34.739 -22.658 -18.565  0.00  0.00    +0.396 N 
ATOM      8  N   UNL     1      33.468 -23.474 -14.671  0.00  0.00    -0.092 N 
ATOM      9  N   UNL     1      34.672 -22.921 -14.975  0.00  0.00    -0.165 NA
ATOM     10  C   UNL     1      33.301 -22.964 -18.262  0.00  0.00    -0.047 C 
ATOM     11  C   UNL     1      35.449 -22.219 -17.320  0.00  0.00    -0.028 C 
ATOM     12  C   UNL     1      33.351 -23.180 -16.814  0.00  0.00    -0.012 C 
ATOM     13  C   UNL     1      34.561 -22.759 -16.287  0.00  0.00    +0.053 C 
ATOM     14  C   UNL     1      32.634 -23.649 -15.755  0.00  0.00    +0.104 C 
ATOM     15  H   UNL     1      35.179 -23.519 -18.890  0.00  0.00    -0.078 HD
BRANCH   8  16
ATOM     16  S   UNL     1      33.007 -23.925 -13.122  0.00  0.00    +0.077 S 
ATOM     17  O   UNL     1      34.150 -24.465 -12.353  0.00  0.00    -0.153 OA
ATOM     18  O   UNL     1      32.224 -22.847 -12.482  0.00  0.00    -0.153 OA
ATOM     19  C   UNL     1      31.878 -25.311 -13.309  0.00  0.00    +0.202 C 
ENDBRANCH   8  16
ENDBRANCH   2   7
BRANCH   6  22
ATOM     20  F   UNL     1      34.768 -19.886 -23.304  0.00  0.00    -0.204 F 
ATOM     21  F   UNL     1      35.104 -14.488 -22.484  0.00  0.00    -0.204 F 
ATOM     22  C   UNL     1      34.954 -18.059 -21.799  0.00  0.00    +0.032 C 
ATOM     23  C   UNL     1      34.850 -18.564 -23.096  0.00  0.00    +0.138 C 
ATOM     24  C   UNL     1      35.040 -16.682 -21.592  0.00  0.00    +0.030 C 
ATOM     25  C   UNL     1      35.022 -15.810 -22.682  0.00  0.00    +0.140 C 
ATOM     26  C   UNL     1      34.832 -17.692 -24.185  0.00  0.00    +0.032 C 
ATOM     27  C   UNL     1      34.917 -16.316 -23.978  0.00  0.00    +0.032 C 
ENDBRANCH   6  22
BRANCH   4  28
ATOM     28  N   UNL     1      37.452 -18.989 -20.319  0.00  0.00    +0.384 N 
ATOM     29  H   UNL     1      37.692 -18.469 -21.163  0.00  0.00    -0.089 HD
ATOM     30  H   UNL     1      38.236 -19.583 -20.051  0.00  0.00    -0.089 HD
ATOM     31  H   UNL     1      37.246 -18.336 -19.564  0.00  0.00    -0.089 HD
ENDBRANCH   4  28
TORSDOF 4
ENDMDL
MODEL 3
REMARK VINA RESULT:      -9.7     10.533     15.120
REMARK  Name = 46209133
REMARK  4 active torsions:
REMARK  status: ('A' for Active; 'I' for Inactive)
REMARK    1  A    between atoms: C_2  and  N_7
REMARK    2  A    between atoms: C_4  and  N_28
REMARK    3  A    between atoms: C_6  and  C_22
REMARK    4  A    between atoms: N_8  and  S_16
REMARK                            x       y       z     vdW  Elec       q    Type
REMARK                         _______ _______ _______ _____ _____    ______ ____
ROOT
ATOM      1  O   UNL     1      32.038 -12.707 -22.179  0.00  0.00    -0.356 OA
ATOM      2  C   UNL     1      32.159 -10.297 -21.934  0.00  0.00    -0.029 C 
ATOM      3  C   UNL     1      33.153 -10.219 -23.096  0.00  0.00    -0.038 C 
ATOM      4  C   UNL     1      33.913 -11.546 -23.240  0.00  0.00    -0.036 C 
ATOM      5  C   UNL     1      31.255 -11.515 -22.101  0.00  0.00    +0.122 C 
ATOM      6  C   UNL     1      32.917 -12.725 -23.315  0.00  0.00    +0.120 C 
ENDROOT
BRANCH   2   7
ATOM      7  N   UNL     1      31.363  -9.082 -21.864  0.00  0.00    +0.396 N 
ATOM      8  N   UNL     1      31.078  -4.938 -22.303  0.00  0.00    -0.092 N 
ATOM      9  N   UNL     1      31.547  -5.552 -21.184  0.00  0.00    -0.165 NA
ATOM     10  C   UNL     1      31.147  -8.454 -23.210  0.00  0.00    -0.047 C 
ATOM     11  C   UNL     1      31.927  -8.076 -20.907  0.00  0.00    -0.028 C 
ATOM     12  C   UNL     1      31.110  -7.032 -22.862  0.00  0.00    -0.012 C 
ATOM     13  C   UNL     1      31.550  -6.822 -21.564  0.00  0.00    +0.053 C 
ATOM     14  C   UNL     1      30.800  -5.797 -23.346  0.00  0.00    +0.104 C 
ATOM     15  H   UNL     1      30.454  -9.377 -21.508  0.00  0.00    -0.078 HD
BRANCH   8  16
ATOM     16  S   UNL     1      30.838  -3.283 -22.436  0.00  0.00    +0.077 S 
ATOM     17  O   UNL     1      29.651  -2.846 -21.668  0.00  0.00    -0.153 OA
ATOM     18  O   UNL     1      32.101  -2.557 -22.183  0.00  0.00    -0.153 OA
ATOM     19  C   UNL     1      30.422  -2.965 -24.155  0.00  0.00    +0.202 C 
ENDBRANCH   8  16
ENDBRANCH   2   7
BRANCH   6  22
ATOM     20  F   UNL     1      33.149 -14.415 -25.568  0.00  0.00    -0.204 F 
ATOM     21  F   UNL     1      35.377 -16.151 -20.884  0.00  0.00    -0.204 F 
ATOM     22  C   UNL     1      33.612 -14.045 -23.269  0.00  0.00    +0.032 C 
ATOM     23  C   UNL     1      33.693 -14.834 -24.417  0.00  0.00    +0.138 C 
ATOM     24  C   UNL     1      34.180 -14.490 -22.075  0.00  0.00    +0.030 C 
ATOM     25  C   UNL     1      34.831 -15.724 -22.030  0.00  0.00    +0.140 C 
ATOM     26  C   UNL     1      34.343 -16.067 -24.371  0.00  0.00    +0.032 C 
ATOM     27  C   UNL     1      34.912 -16.512 -23.178  0.00  0.00    +0.032 C 
ENDBRANCH   6  22
BRANCH   4  28
ATOM     28  N   UNL     1      34.776 -11.474 -24.420  0.00  0.00    +0.384 N 
ATOM     29  H   UNL     1      35.408 -12.275 -24.428  0.00  0.00    -0.089 HD
ATOM     30  H   UNL     1      35.319 -10.611 -24.393  0.00  0.00    -0.089 HD
ATOM     31  H   UNL     1      34.200 -11.486 -25.262  0.00  0.00    -0.089 HD
ENDBRANCH   4  28
TORSDOF 4
ENDMDL
MODEL 4
REMARK VINA RESULT:      -9.6     10.532     15.201
REMARK  Name = 46209133
REMARK  4 active torsions:
REMARK  status: ('A' for Active; 'I' for Inactive)
REMARK    1  A    between atoms: C_2  and  N_7
REMARK    2  A    between atoms: C_4  and  N_28
REMARK    3  A    between atoms: C_6  and  C_22
REMARK    4  A    between atoms: N_8  and  S_16
REMARK                            x       y       z     vdW  Elec       q    Type
REMARK                         _______ _______ _______ _____ _____    ______ ____
ROOT
ATOM      1  O   UNL     1      34.321 -11.958 -23.879  0.00  0.00    -0.356 OA
ATOM      2  C   UNL     1      32.849 -10.168 -23.165  0.00  0.00    -0.029 C 
ATOM      3  C   UNL     1      32.272 -11.065 -22.067  0.00  0.00    -0.038 C 
ATOM      4  C   UNL     1      32.420 -12.545 -22.454  0.00  0.00    -0.036 C 
ATOM      5  C   UNL     1      34.281 -10.586 -23.484  0.00  0.00    +0.122 C 
ATOM      6  C   UNL     1      33.884 -12.851 -22.842  0.00  0.00    +0.120 C 
ENDROOT
BRANCH   2   7
ATOM      7  N   UNL     1      32.809  -8.773 -22.753  0.00  0.00    +0.396 N 
ATOM      8  N   UNL     1      31.128  -4.966 -23.105  0.00  0.00    -0.092 N 
ATOM      9  N   UNL     1      32.103  -5.443 -23.923  0.00  0.00    -0.165 NA
ATOM     10  C   UNL     1      31.535  -8.415 -22.046  0.00  0.00    -0.047 C 
ATOM     11  C   UNL     1      33.054  -7.827 -23.891  0.00  0.00    -0.028 C 
ATOM     12  C   UNL     1      31.358  -7.021 -22.457  0.00  0.00    -0.012 C 
ATOM     13  C   UNL     1      32.215  -6.693 -23.496  0.00  0.00    +0.053 C 
ATOM     14  C   UNL     1      30.646  -5.888 -22.200  0.00  0.00    +0.104 C 
ATOM     15  H   UNL     1      33.575  -8.668 -22.088  0.00  0.00    -0.078 HD
BRANCH   8  16
ATOM     16  S   UNL     1      30.543  -3.394 -23.158  0.00  0.00    +0.077 S 
ATOM     17  O   UNL     1      29.860  -3.115 -24.441  0.00  0.00    -0.153 OA
ATOM     18  O   UNL     1      29.794  -3.080 -21.923  0.00  0.00    -0.153 OA
ATOM     19  C   UNL     1      31.979  -2.315 -23.153  0.00  0.00    +0.202 C 
ENDBRANCH   8  16
ENDBRANCH   2   7
BRANCH   6  22
ATOM     20  F   UNL     1      32.644 -13.674 -25.244  0.00  0.00    -0.204 F 
ATOM     21  F   UNL     1      35.714 -17.356 -22.610  0.00  0.00    -0.204 F 
ATOM     22  C   UNL     1      34.036 -14.226 -23.401  0.00  0.00    +0.032 C 
ATOM     23  C   UNL     1      33.399 -14.572 -24.593  0.00  0.00    +0.138 C 
ATOM     24  C   UNL     1      34.819 -15.167 -22.731  0.00  0.00    +0.030 C 
ATOM     25  C   UNL     1      34.963 -16.453 -23.253  0.00  0.00    +0.140 C 
ATOM     26  C   UNL     1      33.543 -15.857 -25.114  0.00  0.00    +0.032 C 
ATOM     27  C   UNL     1      34.326 -16.797 -24.445  0.00  0.00    +0.032 C 
ENDBRANCH   6  22
BRANCH   4  28
ATOM     28  N   UNL     1      31.957 -13.376 -21.341  0.00  0.00    +0.384 N 
ATOM     29  H   UNL     1      32.029 -14.360 -21.599  0.00  0.00    -0.089 HD
ATOM     30  H   UNL     1      30.985 -13.149 -21.128  0.00  0.00    -0.089 HD
ATOM     31  H   UNL     1      32.535 -13.196 -20.521  0.00  0.00    -0.089 HD
ENDBRANCH   4  28
TORSDOF 4
ENDMDL
MODEL 5
REMARK VINA RESULT:      -9.5     10.929     15.708
REMARK  Name = 46209133
REMARK  4 active torsions:
REMARK  status: ('A' for Active; 'I' for Inactive)
REMARK    1  A    between atoms: C_2  and  N_7
REMARK    2  A    between atoms: C_4  and  N_28
REMARK    3  A    between atoms: C_6  and  C_22
REMARK    4  A    between atoms: N_8  and  S_16
REMARK                            x       y       z     vdW  Elec       q    Type
REMARK                         _______ _______ _______ _____ _____    ______ ____
ROOT
ATOM      1  O   UNL     1      33.498 -11.285 -23.613  0.00  0.00    -0.356 OA
ATOM      2  C   UNL     1      31.692  -9.802 -22.966  0.00  0.00    -0.029 C 
ATOM      3  C   UNL     1      31.340 -10.723 -21.796  0.00  0.00    -0.038 C 
ATOM      4  C   UNL     1      31.792 -12.161 -22.093  0.00  0.00    -0.036 C 
ATOM      5  C   UNL     1      33.174  -9.929 -23.304  0.00  0.00    +0.122 C 
ATOM      6  C   UNL     1      33.280 -12.176 -22.508  0.00  0.00    +0.120 C 
ENDROOT
BRANCH   2   7
ATOM      7  N   UNL     1      31.363  -8.422 -22.643  0.00  0.00    +0.396 N 
ATOM      8  N   UNL     1      31.780  -4.343 -23.439  0.00  0.00    -0.092 N 
ATOM      9  N   UNL     1      32.658  -5.064 -22.691  0.00  0.00    -0.165 NA
ATOM     10  C   UNL     1      30.560  -7.752 -23.719  0.00  0.00    -0.047 C 
ATOM     11  C   UNL     1      32.573  -7.601 -22.312  0.00  0.00    -0.028 C 
ATOM     12  C   UNL     1      31.035  -6.370 -23.616  0.00  0.00    -0.012 C 
ATOM     13  C   UNL     1      32.169  -6.289 -22.823  0.00  0.00    +0.053 C 
ATOM     14  C   UNL     1      30.780  -5.094 -24.020  0.00  0.00    +0.104 C 
ATOM     15  H   UNL     1      30.782  -8.474 -21.807  0.00  0.00    -0.078 HD
BRANCH   8  16
ATOM     16  S   UNL     1      31.871  -2.682 -23.653  0.00  0.00    +0.077 S 
ATOM     17  O   UNL     1      32.144  -1.987 -22.375  0.00  0.00    -0.153 OA
ATOM     18  O   UNL     1      32.756  -2.355 -24.791  0.00  0.00    -0.153 OA
ATOM     19  C   UNL     1      30.227  -2.138 -24.133  0.00  0.00    +0.202 C 
ENDBRANCH   8  16
ENDBRANCH   2   7
BRANCH   6  22
ATOM     20  F   UNL     1      34.983 -13.859 -21.006  0.00  0.00    -0.204 F 
ATOM     21  F   UNL     1      33.253 -15.714 -25.852  0.00  0.00    -0.204 F 
ATOM     22  C   UNL     1      33.713 -13.524 -22.984  0.00  0.00    +0.032 C 
ATOM     23  C   UNL     1      34.555 -14.308 -22.195  0.00  0.00    +0.138 C 
ATOM     24  C   UNL     1      33.273 -13.999 -24.219  0.00  0.00    +0.030 C 
ATOM     25  C   UNL     1      33.675 -15.258 -24.666  0.00  0.00    +0.140 C 
ATOM     26  C   UNL     1      34.957 -15.566 -22.641  0.00  0.00    +0.032 C 
ATOM     27  C   UNL     1      34.517 -16.041 -23.876  0.00  0.00    +0.032 C 
ENDBRANCH   6  22
BRANCH   4  28
ATOM     28  N   UNL     1      31.537 -12.992 -20.915  0.00  0.00    +0.384 N 
ATOM     29  H   UNL     1      30.568 -13.309 -20.927  0.00  0.00    -0.089 HD
ATOM     30  H   UNL     1      31.707 -12.447 -20.070  0.00  0.00    -0.089 HD
ATOM     31  H   UNL     1      32.159 -13.800 -20.930  0.00  0.00    -0.089 HD
ENDBRANCH   4  28
TORSDOF 4
ENDMDL
MODEL 6
REMARK VINA RESULT:      -9.5      7.538     11.168
REMARK  Name = 46209133
REMARK  4 active torsions:
REMARK  status: ('A' for Active; 'I' for Inactive)
REMARK    1  A    between atoms: C_2  and  N_7
REMARK    2  A    between atoms: C_4  and  N_28
REMARK    3  A    between atoms: C_6  and  C_22
REMARK    4  A    between atoms: N_8  and  S_16
REMARK                            x       y       z     vdW  Elec       q    Type
REMARK                         _______ _______ _______ _____ _____    ______ ____
ROOT
ATOM      1  O   UNL     1      33.543 -10.195 -24.175  0.00  0.00    -0.356 OA
ATOM      2  C   UNL     1      33.506 -11.923 -22.473  0.00  0.00    -0.029 C 
ATOM      3  C   UNL     1      32.362 -11.205 -21.753  0.00  0.00    -0.038 C 
ATOM      4  C   UNL     1      32.388  -9.703 -22.074  0.00  0.00    -0.036 C 
ATOM      5  C   UNL     1      33.466 -11.606 -23.965  0.00  0.00    +0.122 C 
ATOM      6  C   UNL     1      32.433  -9.485 -23.603  0.00  0.00    +0.120 C 
ENDROOT
BRANCH   2   7
ATOM      7  N   UNL     1      33.419 -13.359 -22.259  0.00  0.00    +0.396 N 
ATOM      8  N   UNL     1      35.321 -17.025 -21.637  0.00  0.00    -0.092 N 
ATOM      9  N   UNL     1      35.123 -16.472 -22.863  0.00  0.00    -0.165 NA
ATOM     10  C   UNL     1      33.893 -13.770 -20.895  0.00  0.00    -0.047 C 
ATOM     11  C   UNL     1      34.134 -14.146 -23.316  0.00  0.00    -0.028 C 
ATOM     12  C   UNL     1      34.468 -15.088 -21.175  0.00  0.00    -0.012 C 
ATOM     13  C   UNL     1      34.602 -15.297 -22.539  0.00  0.00    +0.053 C 
ATOM     14  C   UNL     1      34.939 -16.222 -20.584  0.00  0.00    +0.104 C 
ATOM     15  H   UNL     1      32.425 -13.580 -22.323  0.00  0.00    -0.078 HD
BRANCH   8  16
ATOM     16  S   UNL     1      35.965 -18.555 -21.391  0.00  0.00    +0.077 S 
ATOM     17  O   UNL     1      36.561 -19.097 -22.632  0.00  0.00    -0.153 OA
ATOM     18  O   UNL     1      36.816 -18.568 -20.182  0.00  0.00    -0.153 OA
ATOM     19  C   UNL     1      34.578 -19.640 -21.030  0.00  0.00    +0.202 C 
ENDBRANCH   8  16
ENDBRANCH   2   7
BRANCH   6  22
ATOM     20  F   UNL     1      30.322  -7.757 -24.340  0.00  0.00    -0.204 F 
ATOM     21  F   UNL     1      35.370  -5.653 -24.232  0.00  0.00    -0.204 F 
ATOM     22  C   UNL     1      32.647  -8.050 -23.955  0.00  0.00    +0.032 C 
ATOM     23  C   UNL     1      31.562  -7.247 -24.311  0.00  0.00    +0.138 C 
ATOM     24  C   UNL     1      33.933  -7.511 -23.929  0.00  0.00    +0.030 C 
ATOM     25  C   UNL     1      34.135  -6.170 -24.257  0.00  0.00    +0.140 C 
ATOM     26  C   UNL     1      31.764  -5.907 -24.639  0.00  0.00    +0.032 C 
ATOM     27  C   UNL     1      33.050  -5.369 -24.612  0.00  0.00    +0.032 C 
ENDBRANCH   6  22
BRANCH   4  28
ATOM     28  N   UNL     1      31.223  -9.065 -21.458  0.00  0.00    +0.384 N 
ATOM     29  H   UNL     1      30.763  -9.728 -20.835  0.00  0.00    -0.089 HD
ATOM     30  H   UNL     1      30.572  -8.771 -22.185  0.00  0.00    -0.089 HD
ATOM     31  H   UNL     1      31.526  -8.251 -20.924  0.00  0.00    -0.089 HD
ENDBRANCH   4  28
TORSDOF 4
ENDMDL
MODEL 7
REMARK VINA RESULT:      -9.4      7.542     11.366
REMARK  Name = 46209133
REMARK  4 active torsions:
REMARK  status: ('A' for Active; 'I' for Inactive)
REMARK    1  A    between atoms: C_2  and  N_7
REMARK    2  A    between atoms: C_4  and  N_28
REMARK    3  A    between atoms: C_6  and  C_22
REMARK    4  A    between atoms: N_8  and  S_16
REMARK                            x       y       z     vdW  Elec       q    Type
REMARK                         _______ _______ _______ _____ _____    ______ ____
ROOT
ATOM      1  O   UNL     1      32.013  -9.982 -22.564  0.00  0.00    -0.356 OA
ATOM      2  C   UNL     1      32.870 -12.149 -23.235  0.00  0.00    -0.029 C 
ATOM      3  C   UNL     1      34.273 -11.556 -23.394  0.00  0.00    -0.038 C 
ATOM      4  C   UNL     1      34.188 -10.050 -23.684  0.00  0.00    -0.036 C 
ATOM      5  C   UNL     1      32.084 -11.359 -22.193  0.00  0.00    +0.122 C 
ATOM      6  C   UNL     1      33.303  -9.353 -22.627  0.00  0.00    +0.120 C 
ENDROOT
BRANCH   2   7
ATOM      7  N   UNL     1      32.951 -13.550 -22.853  0.00  0.00    +0.396 N 
ATOM      8  N   UNL     1      35.270 -16.906 -21.959  0.00  0.00    -0.092 N 
ATOM      9  N   UNL     1      34.941 -16.527 -23.222  0.00  0.00    -0.165 NA
ATOM     10  C   UNL     1      33.548 -13.744 -21.490  0.00  0.00    -0.047 C 
ATOM     11  C   UNL     1      33.682 -14.383 -23.863  0.00  0.00    -0.028 C 
ATOM     12  C   UNL     1      34.243 -15.022 -21.659  0.00  0.00    -0.012 C 
ATOM     13  C   UNL     1      34.317 -15.379 -22.996  0.00  0.00    +0.053 C 
ATOM     14  C   UNL     1      34.868 -16.024 -20.979  0.00  0.00    +0.104 C 
ATOM     15  H   UNL     1      31.985 -13.875 -22.820  0.00  0.00    -0.078 HD
BRANCH   8  16
ATOM     16  S   UNL     1      36.089 -18.323 -21.587  0.00  0.00    +0.077 S 
ATOM     17  O   UNL     1      37.006 -18.719 -22.679  0.00  0.00    -0.153 OA
ATOM     18  O   UNL     1      36.666 -18.245 -20.228  0.00  0.00    -0.153 OA
ATOM     19  C   UNL     1      34.852 -19.625 -21.525  0.00  0.00    +0.202 C 
ENDBRANCH   8  16
ENDBRANCH   2   7
BRANCH   6  22
ATOM     20  F   UNL     1      33.424  -7.267 -20.725  0.00  0.00    -0.204 F 
ATOM     21  F   UNL     1      32.166  -5.906 -25.871  0.00  0.00    -0.204 F 
ATOM     22  C   UNL     1      33.041  -7.925 -22.974  0.00  0.00    +0.032 C 
ATOM     23  C   UNL     1      33.117  -6.940 -21.988  0.00  0.00    +0.138 C 
ATOM     24  C   UNL     1      32.720  -7.576 -24.285  0.00  0.00    +0.030 C 
ATOM     25  C   UNL     1      32.474  -6.241 -24.612  0.00  0.00    +0.140 C 
ATOM     26  C   UNL     1      32.871  -5.606 -22.315  0.00  0.00    +0.032 C 
ATOM     27  C   UNL     1      32.551  -5.257 -23.626  0.00  0.00    +0.032 C 
ENDBRANCH   6  22
BRANCH   4  28
ATOM     28  N   UNL     1      35.542  -9.497 -23.725  0.00  0.00    +0.384 N 
ATOM     29  H   UNL     1      36.063  -9.929 -24.489  0.00  0.00    -0.089 HD
ATOM     30  H   UNL     1      36.015  -9.686 -22.841  0.00  0.00    -0.089 HD
ATOM     31  H   UNL     1      35.492  -8.489 -23.874  0.00  0.00    -0.089 HD
ENDBRANCH   4  28
TORSDOF 4
ENDMDL
MODEL 8
REMARK VINA RESULT:      -9.2      9.825     14.558
REMARK  Name = 46209133
REMARK  4 active torsions:
REMARK  status: ('A' for Active; 'I' for Inactive)
REMARK    1  A    between atoms: C_2  and  N_7
REMARK    2  A    between atoms: C_4  and  N_28
REMARK    3  A    between atoms: C_6  and  C_22
REMARK    4  A    between atoms: N_8  and  S_16
REMARK                            x       y       z     vdW  Elec       q    Type
REMARK                         _______ _______ _______ _____ _____    ______ ____
ROOT
ATOM      1  O   UNL     1      33.897 -12.584 -22.810  0.00  0.00    -0.356 OA
ATOM      2  C   UNL     1      31.981 -11.203 -22.259  0.00  0.00    -0.029 C 
ATOM      3  C   UNL     1      31.728 -12.037 -21.000  0.00  0.00    -0.038 C 
ATOM      4  C   UNL     1      32.297 -13.453 -21.174  0.00  0.00    -0.036 C 
ATOM      5  C   UNL     1      33.464 -11.237 -22.619  0.00  0.00    +0.122 C 
ATOM      6  C   UNL     1      33.774 -13.383 -21.621  0.00  0.00    +0.120 C 
ENDROOT
BRANCH   2   7
ATOM      7  N   UNL     1      31.541  -9.831 -22.056  0.00  0.00    +0.396 N 
ATOM      8  N   UNL     1      31.603  -5.823 -23.230  0.00  0.00    -0.092 N 
ATOM      9  N   UNL     1      32.548  -6.396 -22.437  0.00  0.00    -0.165 NA
ATOM     10  C   UNL     1      30.671  -9.332 -23.172  0.00  0.00    -0.047 C 
ATOM     11  C   UNL     1      32.682  -8.886 -21.826  0.00  0.00    -0.028 C 
ATOM     12  C   UNL     1      31.030  -7.912 -23.205  0.00  0.00    -0.012 C 
ATOM     13  C   UNL     1      32.163  -7.664 -22.446  0.00  0.00    +0.053 C 
ATOM     14  C   UNL     1      30.663  -6.705 -23.718  0.00  0.00    +0.104 C 
ATOM     15  H   UNL     1      30.977  -9.853 -21.207  0.00  0.00    -0.078 HD
BRANCH   8  16
ATOM     16  S   UNL     1      31.552  -4.187 -23.596  0.00  0.00    +0.077 S 
ATOM     17  O   UNL     1      30.253  -3.808 -24.195  0.00  0.00    -0.153 OA
ATOM     18  O   UNL     1      32.012  -3.384 -22.443  0.00  0.00    -0.153 OA
ATOM     19  C   UNL     1      32.760  -3.917 -24.899  0.00  0.00    +0.202 C 
ENDBRANCH   8  16
ENDBRANCH   2   7
BRANCH   6  22
ATOM     20  F   UNL     1      34.884 -15.150 -19.716  0.00  0.00    -0.204 F 
ATOM     21  F   UNL     1      34.746 -16.829 -24.920  0.00  0.00    -0.204 F 
ATOM     22  C   UNL     1      34.311 -14.728 -21.981  0.00  0.00    +0.032 C 
ATOM     23  C   UNL     1      34.847 -15.556 -20.994  0.00  0.00    +0.138 C 
ATOM     24  C   UNL     1      34.277 -15.159 -23.308  0.00  0.00    +0.030 C 
ATOM     25  C   UNL     1      34.779 -16.416 -23.647  0.00  0.00    +0.140 C 
ATOM     26  C   UNL     1      35.348 -16.812 -21.333  0.00  0.00    +0.032 C 
ATOM     27  C   UNL     1      35.314 -17.242 -22.658  0.00  0.00    +0.032 C 
ENDBRANCH   6  22
BRANCH   4  28
ATOM     28  N   UNL     1      32.133 -14.188 -19.919  0.00  0.00    +0.384 N 
ATOM     29  H   UNL     1      32.531 -13.645 -19.153  0.00  0.00    -0.089 HD
ATOM     30  H   UNL     1      32.612 -15.086 -19.985  0.00  0.00    -0.089 HD
ATOM     31  H   UNL     1      31.140 -14.345 -19.745  0.00  0.00    -0.089 HD
ENDBRANCH   4  28
TORSDOF 4
ENDMDL
MODEL 9
REMARK VINA RESULT:      -9.2      7.545     11.055
REMARK  Name = 46209133
REMARK  4 active torsions:
REMARK  status: ('A' for Active; 'I' for Inactive)
REMARK    1  A    between atoms: C_2  and  N_7
REMARK    2  A    between atoms: C_4  and  N_28
REMARK    3  A    between atoms: C_6  and  C_22
REMARK    4  A    between atoms: N_8  and  S_16
REMARK                            x       y       z     vdW  Elec       q    Type
REMARK                         _______ _______ _______ _____ _____    ______ ____
ROOT
ATOM      1  O   UNL     1      32.599 -10.078 -22.665  0.00  0.00    -0.356 OA
ATOM      2  C   UNL     1      33.071 -12.148 -21.493  0.00  0.00    -0.029 C 
ATOM      3  C   UNL     1      32.046 -11.784 -20.416  0.00  0.00    -0.038 C 
ATOM      4  C   UNL     1      31.873 -10.260 -20.335  0.00  0.00    -0.036 C 
ATOM      5  C   UNL     1      32.691 -11.494 -22.818  0.00  0.00    +0.122 C 
ATOM      6  C   UNL     1      31.576  -9.682 -21.736  0.00  0.00    +0.120 C 
ENDROOT
BRANCH   2   7
ATOM      7  N   UNL     1      33.157 -13.592 -21.646  0.00  0.00    +0.396 N 
ATOM      8  N   UNL     1      35.473 -17.065 -21.770  0.00  0.00    -0.092 N 
ATOM      9  N   UNL     1      35.282 -16.242 -22.836  0.00  0.00    -0.165 NA
ATOM     10  C   UNL     1      33.595 -14.282 -20.387  0.00  0.00    -0.047 C 
ATOM     11  C   UNL     1      34.032 -14.000 -22.793  0.00  0.00    -0.028 C 
ATOM     12  C   UNL     1      34.351 -15.414 -20.928  0.00  0.00    -0.012 C 
ATOM     13  C   UNL     1      34.595 -15.253 -22.282  0.00  0.00    +0.053 C 
ATOM     14  C   UNL     1      34.926 -16.602 -20.592  0.00  0.00    +0.104 C 
ATOM     15  H   UNL     1      32.206 -13.896 -21.854  0.00  0.00    -0.078 HD
BRANCH   8  16
ATOM     16  S   UNL     1      36.292 -18.527 -21.848  0.00  0.00    +0.077 S 
ATOM     17  O   UNL     1      36.112 -19.178 -23.164  0.00  0.00    -0.153 OA
ATOM     18  O   UNL     1      37.682 -18.366 -21.369  0.00  0.00    -0.153 OA
ATOM     19  C   UNL     1      35.489 -19.624 -20.673  0.00  0.00    +0.202 C 
ENDBRANCH   8  16
ENDBRANCH   2   7
BRANCH   6  22
ATOM     20  F   UNL     1      30.151  -8.143 -23.629  0.00  0.00    -0.204 F 
ATOM     21  F   UNL     1      33.032  -5.438 -19.848  0.00  0.00    -0.204 F 
ATOM     22  C   UNL     1      31.584  -8.190 -21.737  0.00  0.00    +0.032 C 
ATOM     23  C   UNL     1      30.859  -7.486 -22.699  0.00  0.00    +0.138 C 
ATOM     24  C   UNL     1      32.319  -7.498 -20.774  0.00  0.00    +0.030 C 
ATOM     25  C   UNL     1      32.328  -6.102 -20.772  0.00  0.00    +0.140 C 
ATOM     26  C   UNL     1      30.868  -6.091 -22.697  0.00  0.00    +0.032 C 
ATOM     27  C   UNL     1      31.602  -5.400 -21.734  0.00  0.00    +0.032 C 
ENDBRANCH   6  22
BRANCH   4  28
ATOM     28  N   UNL     1      30.813  -9.953 -19.373  0.00  0.00    +0.384 N 
ATOM     29  H   UNL     1      30.789  -8.947 -19.204  0.00  0.00    -0.089 HD
ATOM     30  H   UNL     1      30.995 -10.442 -18.497  0.00  0.00    -0.089 HD
ATOM     31  H   UNL     1      29.915 -10.255 -19.750  0.00  0.00    -0.089 HD
ENDBRANCH   4  28
TORSDOF 4
ENDMDL
