MODEL 1
REMARK VINA RESULT:     -11.2      0.000      0.000
REMARK  Name = 24988948
REMARK  5 active torsions:
REMARK  status: ('A' for Active; 'I' for Inactive)
REMARK    1  A    between atoms: N_2  and  C_21
REMARK    2  A    between atoms: C_6  and  O_11
REMARK    3  A    between atoms: O_11  and  C_13
REMARK    4  A    between atoms: C_16  and  C_20
REMARK    5  A    between atoms: C_21  and  C_25
REMARK                            x       y       z     vdW  Elec       q    Type
REMARK                         _______ _______ _______ _____ _____    ______ ____
ROOT
ATOM      1 CL   UNL     1      30.440 -10.330 -19.642  0.00  0.00    -0.079 Cl
ATOM      2  N   UNL     1      34.152 -13.414 -22.902  0.00  0.00    -0.205 N 
ATOM      3  N   UNL     1      34.100 -12.823 -24.108  0.00  0.00    -0.176 NA
ATOM      4  C   UNL     1      33.340 -12.840 -21.961  0.00  0.00    +0.074 C 
ATOM      5  C   UNL     1      32.709 -11.789 -22.614  0.00  0.00    +0.071 C 
ATOM      6  C   UNL     1      31.795 -10.989 -21.907  0.00  0.00    +0.158 C 
ATOM      7  C   UNL     1      33.220 -11.834 -23.929  0.00  0.00    +0.122 C 
ATOM      8  C   UNL     1      33.112 -13.151 -20.618  0.00  0.00    +0.017 C 
ATOM      9  C   UNL     1      31.552 -11.283 -20.559  0.00  0.00    +0.092 C 
ATOM     10  C   UNL     1      32.200 -12.345 -19.928  0.00  0.00    +0.016 C 
ENDROOT
BRANCH   6  11
ATOM     11  O   UNL     1      31.158  -9.947 -22.526  0.00  0.00    -0.453 OA
BRANCH  11  13
ATOM     12 CL   UNL     1      35.429  -7.159 -22.762  0.00  0.00    -0.082 Cl
ATOM     13  C   UNL     1      31.752  -8.703 -22.448  0.00  0.00    +0.147 C 
ATOM     14  C   UNL     1      30.973  -7.574 -22.191  0.00  0.00    +0.048 C 
ATOM     15  C   UNL     1      33.129  -8.574 -22.623  0.00  0.00    +0.049 C 
ATOM     16  C   UNL     1      31.572  -6.317 -22.111  0.00  0.00    +0.072 C 
ATOM     17  C   UNL     1      33.729  -7.317 -22.544  0.00  0.00    +0.061 C 
ATOM     18  C   UNL     1      32.950  -6.188 -22.287  0.00  0.00    +0.022 C 
BRANCH  16  20
ATOM     19  N   UNL     1      30.127  -4.222 -21.637  0.00  0.00    -0.191 NA
ATOM     20  C   UNL     1      30.774  -5.161 -21.849  0.00  0.00    +0.101 C 
ENDBRANCH  16  20
ENDBRANCH  11  13
ENDBRANCH   6  11
BRANCH   2  21
ATOM     21  C   UNL     1      35.023 -14.552 -22.714  0.00  0.00    +0.159 C 
BRANCH  21  25
ATOM     22  N   UNL     1      33.879 -15.664 -24.659  0.00  0.00    -0.230 N 
ATOM     23  N   UNL     1      33.575 -16.845 -25.239  0.00  0.00    -0.128 NA
ATOM     24  N   UNL     1      34.103 -19.105 -24.535  0.00  0.00    -0.192 NA
ATOM     25  C   UNL     1      34.594 -15.767 -23.498  0.00  0.00    +0.071 C 
ATOM     26  C   UNL     1      34.765 -17.111 -23.312  0.00  0.00    +0.058 C 
ATOM     27  C   UNL     1      34.119 -17.748 -24.415  0.00  0.00    +0.049 C 
ATOM     28  C   UNL     1      35.438 -17.709 -22.256  0.00  0.00    +0.065 C 
ATOM     29  C   UNL     1      35.410 -19.101 -22.399  0.00  0.00    +0.001 C 
ATOM     30  C   UNL     1      34.764 -19.715 -23.498  0.00  0.00    +0.105 C 
ATOM     31  H   UNL     1      33.607 -14.799 -25.042  0.00  0.00    +0.175 HD
ENDBRANCH  21  25
ENDBRANCH   2  21
TORSDOF 5
ENDMDL
MODEL 2
REMARK VINA RESULT:     -11.0      4.272      7.044
REMARK  Name = 24988948
REMARK  5 active torsions:
REMARK  status: ('A' for Active; 'I' for Inactive)
REMARK    1  A    between atoms: N_2  and  C_21
REMARK    2  A    between atoms: C_6  and  O_11
REMARK    3  A    between atoms: O_11  and  C_13
REMARK    4  A    between atoms: C_16  and  C_20
REMARK    5  A    between atoms: C_21  and  C_25
REMARK                            x       y       z     vdW  Elec       q    Type
REMARK                         _______ _______ _______ _____ _____    ______ ____
ROOT
ATOM      1 CL   UNL     1      33.847 -15.564 -25.510  0.00  0.00    -0.079 Cl
ATOM      2  N   UNL     1      35.363 -19.451 -21.447  0.00  0.00    -0.205 N 
ATOM      3  N   UNL     1      36.028 -18.726 -20.531  0.00  0.00    -0.176 NA
ATOM      4  C   UNL     1      34.907 -18.724 -22.514  0.00  0.00    +0.074 C 
ATOM      5  C   UNL     1      35.311 -17.418 -22.266  0.00  0.00    +0.071 C 
ATOM      6  C   UNL     1      34.990 -16.411 -23.192  0.00  0.00    +0.158 C 
ATOM      7  C   UNL     1      35.993 -17.489 -21.032  0.00  0.00    +0.122 C 
ATOM      8  C   UNL     1      34.189 -19.097 -23.652  0.00  0.00    +0.017 C 
ATOM      9  C   UNL     1      34.270 -16.763 -24.340  0.00  0.00    +0.092 C 
ATOM     10  C   UNL     1      33.877 -18.083 -24.565  0.00  0.00    +0.016 C 
ENDROOT
BRANCH   6  11
ATOM     11  O   UNL     1      35.376 -15.116 -22.972  0.00  0.00    -0.453 OA
BRANCH  11  13
ATOM     12 CL   UNL     1      32.126 -14.082 -19.173  0.00  0.00    -0.082 Cl
ATOM     13  C   UNL     1      34.439 -14.257 -22.432  0.00  0.00    +0.147 C 
ATOM     14  C   UNL     1      34.105 -13.079 -23.101  0.00  0.00    +0.048 C 
ATOM     15  C   UNL     1      33.827 -14.566 -21.218  0.00  0.00    +0.049 C 
ATOM     16  C   UNL     1      33.159 -12.212 -22.555  0.00  0.00    +0.072 C 
ATOM     17  C   UNL     1      32.881 -13.699 -20.671  0.00  0.00    +0.061 C 
ATOM     18  C   UNL     1      32.547 -12.521 -21.340  0.00  0.00    +0.022 C 
BRANCH  16  20
ATOM     19  N   UNL     1      32.542 -10.025 -23.797  0.00  0.00    -0.191 NA
ATOM     20  C   UNL     1      32.818 -11.005 -23.240  0.00  0.00    +0.101 C 
ENDBRANCH  16  20
ENDBRANCH  11  13
ENDBRANCH   6  11
BRANCH   2  21
ATOM     21  C   UNL     1      35.198 -20.871 -21.235  0.00  0.00    +0.159 C 
BRANCH  21  25
ATOM     22  N   UNL     1      36.807 -21.177 -19.326  0.00  0.00    -0.230 N 
ATOM     23  N   UNL     1      36.952 -21.617 -18.058  0.00  0.00    -0.128 NA
ATOM     24  N   UNL     1      35.321 -22.599 -16.556  0.00  0.00    -0.192 NA
ATOM     25  C   UNL     1      35.545 -21.310 -19.834  0.00  0.00    +0.071 C 
ATOM     26  C   UNL     1      34.819 -21.875 -18.822  0.00  0.00    +0.058 C 
ATOM     27  C   UNL     1      35.729 -22.051 -17.735  0.00  0.00    +0.049 C 
ATOM     28  C   UNL     1      33.472 -22.202 -18.868  0.00  0.00    +0.065 C 
ATOM     29  C   UNL     1      33.074 -22.762 -17.650  0.00  0.00    +0.001 C 
ATOM     30  C   UNL     1      33.989 -22.929 -16.583  0.00  0.00    +0.105 C 
ATOM     31  H   UNL     1      37.552 -20.793 -19.844  0.00  0.00    +0.175 HD
ENDBRANCH  21  25
ENDBRANCH   2  21
TORSDOF 5
ENDMDL
MODEL 3
REMARK VINA RESULT:     -10.6      1.461      1.623
REMARK  Name = 24988948
REMARK  5 active torsions:
REMARK  status: ('A' for Active; 'I' for Inactive)
REMARK    1  A    between atoms: N_2  and  C_21
REMARK    2  A    between atoms: C_6  and  O_11
REMARK    3  A    between atoms: O_11  and  C_13
REMARK    4  A    between atoms: C_16  and  C_20
REMARK    5  A    between atoms: C_21  and  C_25
REMARK                            x       y       z     vdW  Elec       q    Type
REMARK                         _______ _______ _______ _____ _____    ______ ____
ROOT
ATOM      1 CL   UNL     1      30.207 -10.410 -19.558  0.00  0.00    -0.079 Cl
ATOM      2  N   UNL     1      34.032 -13.294 -22.870  0.00  0.00    -0.205 N 
ATOM      3  N   UNL     1      33.982 -12.662 -24.056  0.00  0.00    -0.176 NA
ATOM      4  C   UNL     1      33.194 -12.772 -21.921  0.00  0.00    +0.074 C 
ATOM      5  C   UNL     1      32.547 -11.712 -22.546  0.00  0.00    +0.071 C 
ATOM      6  C   UNL     1      31.607 -10.958 -21.825  0.00  0.00    +0.158 C 
ATOM      7  C   UNL     1      33.078 -11.700 -23.854  0.00  0.00    +0.122 C 
ATOM      8  C   UNL     1      32.955 -13.135 -20.594  0.00  0.00    +0.017 C 
ATOM      9  C   UNL     1      31.352 -11.305 -20.492  0.00  0.00    +0.092 C 
ATOM     10  C   UNL     1      32.016 -12.375 -19.889  0.00  0.00    +0.016 C 
ENDROOT
BRANCH   6  11
ATOM     11  O   UNL     1      30.955  -9.910 -22.416  0.00  0.00    -0.453 OA
BRANCH  11  13
ATOM     12 CL   UNL     1      33.086  -5.982 -19.948  0.00  0.00    -0.082 Cl
ATOM     13  C   UNL     1      31.625  -8.704 -22.488  0.00  0.00    +0.147 C 
ATOM     14  C   UNL     1      31.950  -8.160 -23.731  0.00  0.00    +0.048 C 
ATOM     15  C   UNL     1      31.976  -8.030 -21.319  0.00  0.00    +0.049 C 
ATOM     16  C   UNL     1      32.626  -6.943 -23.804  0.00  0.00    +0.072 C 
ATOM     17  C   UNL     1      32.652  -6.812 -21.392  0.00  0.00    +0.061 C 
ATOM     18  C   UNL     1      32.977  -6.268 -22.634  0.00  0.00    +0.022 C 
BRANCH  16  20
ATOM     19  N   UNL     1      33.228  -5.934 -26.111  0.00  0.00    -0.191 NA
ATOM     20  C   UNL     1      32.959  -6.386 -25.078  0.00  0.00    +0.101 C 
ENDBRANCH  16  20
ENDBRANCH  11  13
ENDBRANCH   6  11
BRANCH   2  21
ATOM     21  C   UNL     1      34.925 -14.418 -22.710  0.00  0.00    +0.159 C 
BRANCH  21  25
ATOM     22  N   UNL     1      33.811 -15.505 -24.687  0.00  0.00    -0.230 N 
ATOM     23  N   UNL     1      33.530 -16.677 -25.295  0.00  0.00    -0.128 NA
ATOM     24  N   UNL     1      34.092 -18.944 -24.640  0.00  0.00    -0.192 NA
ATOM     25  C   UNL     1      34.521 -15.622 -23.524  0.00  0.00    +0.071 C 
ATOM     26  C   UNL     1      34.714 -16.967 -23.368  0.00  0.00    +0.058 C 
ATOM     27  C   UNL     1      34.084 -17.589 -24.488  0.00  0.00    +0.049 C 
ATOM     28  C   UNL     1      35.391 -17.578 -22.322  0.00  0.00    +0.065 C 
ATOM     29  C   UNL     1      35.387 -18.966 -22.497  0.00  0.00    +0.001 C 
ATOM     30  C   UNL     1      34.758 -19.566 -23.613  0.00  0.00    +0.105 C 
ATOM     31  H   UNL     1      33.526 -14.636 -25.051  0.00  0.00    +0.175 HD
ENDBRANCH  21  25
ENDBRANCH   2  21
TORSDOF 5
ENDMDL
MODEL 4
REMARK VINA RESULT:     -10.4      7.651     12.106
REMARK  Name = 24988948
REMARK  5 active torsions:
REMARK  status: ('A' for Active; 'I' for Inactive)
REMARK    1  A    between atoms: N_2  and  C_21
REMARK    2  A    between atoms: C_6  and  O_11
REMARK    3  A    between atoms: O_11  and  C_13
REMARK    4  A    between atoms: C_16  and  C_20
REMARK    5  A    between atoms: C_21  and  C_25
REMARK                            x       y       z     vdW  Elec       q    Type
REMARK                         _______ _______ _______ _____ _____    ______ ____
ROOT
ATOM      1 CL   UNL     1      36.171 -23.820 -15.334  0.00  0.00    -0.079 Cl
ATOM      2  N   UNL     1      35.175 -20.327 -19.887  0.00  0.00    -0.205 N 
ATOM      3  N   UNL     1      33.981 -20.728 -20.353  0.00  0.00    -0.176 NA
ATOM      4  C   UNL     1      35.615 -21.026 -18.795  0.00  0.00    +0.074 C 
ATOM      5  C   UNL     1      34.619 -21.960 -18.534  0.00  0.00    +0.071 C 
ATOM      6  C   UNL     1      34.772 -22.846 -17.454  0.00  0.00    +0.158 C 
ATOM      7  C   UNL     1      33.645 -21.722 -19.527  0.00  0.00    +0.122 C 
ATOM      8  C   UNL     1      36.779 -20.920 -18.031  0.00  0.00    +0.017 C 
ATOM      9  C   UNL     1      35.933 -22.756 -16.675  0.00  0.00    +0.092 C 
ATOM     10  C   UNL     1      36.918 -21.809 -16.960  0.00  0.00    +0.016 C 
ENDROOT
BRANCH   6  11
ATOM     11  O   UNL     1      33.807 -23.775 -17.175  0.00  0.00    -0.453 OA
BRANCH  11  13
ATOM     12 CL   UNL     1      32.529 -22.951 -12.301  0.00  0.00    -0.082 Cl
ATOM     13  C   UNL     1      32.832 -23.425 -16.261  0.00  0.00    +0.147 C 
ATOM     14  C   UNL     1      31.542 -23.124 -16.699  0.00  0.00    +0.048 C 
ATOM     15  C   UNL     1      33.136 -23.372 -14.902  0.00  0.00    +0.049 C 
ATOM     16  C   UNL     1      30.557 -22.771 -15.778  0.00  0.00    +0.072 C 
ATOM     17  C   UNL     1      32.152 -23.017 -13.979  0.00  0.00    +0.061 C 
ATOM     18  C   UNL     1      30.862 -22.717 -14.417  0.00  0.00    +0.022 C 
BRANCH  16  20
ATOM     19  N   UNL     1      28.164 -22.212 -16.592  0.00  0.00    -0.191 NA
ATOM     20  C   UNL     1      29.236 -22.462 -16.227  0.00  0.00    +0.101 C 
ENDBRANCH  16  20
ENDBRANCH  11  13
ENDBRANCH   6  11
BRANCH   2  21
ATOM     21  C   UNL     1      35.860 -19.241 -20.549  0.00  0.00    +0.159 C 
BRANCH  21  25
ATOM     22  N   UNL     1      34.940 -19.931 -22.786  0.00  0.00    -0.230 N 
ATOM     23  N   UNL     1      34.470 -19.495 -23.974  0.00  0.00    -0.128 NA
ATOM     24  N   UNL     1      34.190 -17.231 -24.800  0.00  0.00    -0.192 NA
ATOM     25  C   UNL     1      35.313 -18.939 -21.923  0.00  0.00    +0.071 C 
ATOM     26  C   UNL     1      35.067 -17.777 -22.599  0.00  0.00    +0.058 C 
ATOM     27  C   UNL     1      34.544 -18.163 -23.871  0.00  0.00    +0.049 C 
ATOM     28  C   UNL     1      35.290 -16.493 -22.123  0.00  0.00    +0.065 C 
ATOM     29  C   UNL     1      34.921 -15.553 -23.092  0.00  0.00    +0.001 C 
ATOM     30  C   UNL     1      34.404 -15.954 -24.347  0.00  0.00    +0.105 C 
ATOM     31  H   UNL     1      35.009 -20.887 -22.561  0.00  0.00    +0.175 HD
ENDBRANCH  21  25
ENDBRANCH   2  21
TORSDOF 5
ENDMDL
MODEL 5
REMARK VINA RESULT:     -10.3      2.693      9.349
REMARK  Name = 24988948
REMARK  5 active torsions:
REMARK  status: ('A' for Active; 'I' for Inactive)
REMARK    1  A    between atoms: N_2  and  C_21
REMARK    2  A    between atoms: C_6  and  O_11
REMARK    3  A    between atoms: O_11  and  C_13
REMARK    4  A    between atoms: C_16  and  C_20
REMARK    5  A    between atoms: C_21  and  C_25
REMARK                            x       y       z     vdW  Elec       q    Type
REMARK                         _______ _______ _______ _____ _____    ______ ____
ROOT
ATOM      1 CL   UNL     1      31.516 -10.840 -18.625  0.00  0.00    -0.079 Cl
ATOM      2  N   UNL     1      33.035  -7.626 -23.238  0.00  0.00    -0.205 N 
ATOM      3  N   UNL     1      32.711  -8.392 -24.294  0.00  0.00    -0.176 NA
ATOM      4  C   UNL     1      32.760  -8.197 -22.025  0.00  0.00    +0.074 C 
ATOM      5  C   UNL     1      32.209  -9.439 -22.321  0.00  0.00    +0.071 C 
ATOM      6  C   UNL     1      31.813 -10.284 -21.271  0.00  0.00    +0.158 C 
ATOM      7  C   UNL     1      32.208  -9.494 -23.731  0.00  0.00    +0.122 C 
ATOM      8  C   UNL     1      32.944  -7.737 -20.719  0.00  0.00    +0.017 C 
ATOM      9  C   UNL     1      31.989  -9.842 -19.954  0.00  0.00    +0.092 C 
ATOM     10  C   UNL     1      32.544  -8.590 -19.685  0.00  0.00    +0.016 C 
ENDROOT
BRANCH   6  11
ATOM     11  O   UNL     1      31.269 -11.512 -21.535  0.00  0.00    -0.453 OA
BRANCH  11  13
ATOM     12 CL   UNL     1      34.713 -14.905 -19.896  0.00  0.00    -0.082 Cl
ATOM     13  C   UNL     1      32.138 -12.540 -21.840  0.00  0.00    +0.147 C 
ATOM     14  C   UNL     1      32.258 -12.985 -23.157  0.00  0.00    +0.048 C 
ATOM     15  C   UNL     1      32.898 -13.134 -20.832  0.00  0.00    +0.049 C 
ATOM     16  C   UNL     1      33.136 -14.023 -23.465  0.00  0.00    +0.072 C 
ATOM     17  C   UNL     1      33.777 -14.173 -21.140  0.00  0.00    +0.061 C 
ATOM     18  C   UNL     1      33.896 -14.617 -22.457  0.00  0.00    +0.022 C 
BRANCH  16  20
ATOM     19  N   UNL     1      33.356 -14.848 -25.909  0.00  0.00    -0.191 NA
ATOM     20  C   UNL     1      33.258 -14.479 -24.814  0.00  0.00    +0.101 C 
ENDBRANCH  16  20
ENDBRANCH  11  13
ENDBRANCH   6  11
BRANCH   2  21
ATOM     21  C   UNL     1      33.621  -6.326 -23.468  0.00  0.00    +0.159 C 
BRANCH  21  25
ATOM     22  N   UNL     1      32.359  -5.087 -25.257  0.00  0.00    -0.230 N 
ATOM     23  N   UNL     1      31.440  -4.129 -25.504  0.00  0.00    -0.128 NA
ATOM     24  N   UNL     1      30.196  -2.731 -23.960  0.00  0.00    -0.192 NA
ATOM     25  C   UNL     1      32.623  -5.294 -23.931  0.00  0.00    +0.071 C 
ATOM     26  C   UNL     1      31.818  -4.407 -23.272  0.00  0.00    +0.058 C 
ATOM     27  C   UNL     1      31.097  -3.701 -24.283  0.00  0.00    +0.049 C 
ATOM     28  C   UNL     1      31.735  -4.246 -21.897  0.00  0.00    +0.065 C 
ATOM     29  C   UNL     1      30.807  -3.247 -21.587  0.00  0.00    +0.001 C 
ATOM     30  C   UNL     1      30.102  -2.557 -22.603  0.00  0.00    +0.105 C 
ATOM     31  H   UNL     1      32.803  -5.595 -25.974  0.00  0.00    +0.175 HD
ENDBRANCH  21  25
ENDBRANCH   2  21
TORSDOF 5
ENDMDL
MODEL 6
REMARK VINA RESULT:     -10.2      2.575      3.699
REMARK  Name = 24988948
REMARK  5 active torsions:
REMARK  status: ('A' for Active; 'I' for Inactive)
REMARK    1  A    between atoms: N_2  and  C_21
REMARK    2  A    between atoms: C_6  and  O_11
REMARK    3  A    between atoms: O_11  and  C_13
REMARK    4  A    between atoms: C_16  and  C_20
REMARK    5  A    between atoms: C_21  and  C_25
REMARK                            x       y       z     vdW  Elec       q    Type
REMARK                         _______ _______ _______ _____ _____    ______ ____
ROOT
ATOM      1 CL   UNL     1      32.694  -5.560 -20.252  0.00  0.00    -0.079 Cl
ATOM      2  N   UNL     1      32.588 -10.869 -22.644  0.00  0.00    -0.205 N 
ATOM      3  N   UNL     1      33.355 -10.750 -23.742  0.00  0.00    -0.176 NA
ATOM      4  C   UNL     1      32.471  -9.716 -21.915  0.00  0.00    +0.074 C 
ATOM      5  C   UNL     1      33.226  -8.771 -22.599  0.00  0.00    +0.071 C 
ATOM      6  C   UNL     1      33.309  -7.462 -22.097  0.00  0.00    +0.158 C 
ATOM      7  C   UNL     1      33.741  -9.472 -23.711  0.00  0.00    +0.122 C 
ATOM      8  C   UNL     1      31.779  -9.430 -20.736  0.00  0.00    +0.017 C 
ATOM      9  C   UNL     1      32.623  -7.154 -20.915  0.00  0.00    +0.092 C 
ATOM     10  C   UNL     1      31.872  -8.122 -20.248  0.00  0.00    +0.016 C 
ENDROOT
BRANCH   6  11
ATOM     11  O   UNL     1      34.045  -6.512 -22.752  0.00  0.00    -0.453 OA
BRANCH  11  13
ATOM     12 CL   UNL     1      34.062  -5.845 -27.813  0.00  0.00    -0.082 Cl
ATOM     13  C   UNL     1      33.473  -5.914 -23.857  0.00  0.00    +0.147 C 
ATOM     14  C   UNL     1      32.372  -5.071 -23.703  0.00  0.00    +0.048 C 
ATOM     15  C   UNL     1      33.995  -6.153 -25.128  0.00  0.00    +0.049 C 
ATOM     16  C   UNL     1      31.794  -4.467 -24.819  0.00  0.00    +0.072 C 
ATOM     17  C   UNL     1      33.417  -5.550 -26.245  0.00  0.00    +0.061 C 
ATOM     18  C   UNL     1      32.317  -4.706 -26.091  0.00  0.00    +0.022 C 
BRANCH  16  20
ATOM     19  N   UNL     1      29.751  -2.904 -24.532  0.00  0.00    -0.191 NA
ATOM     20  C   UNL     1      30.666  -3.604 -24.660  0.00  0.00    +0.101 C 
ENDBRANCH  16  20
ENDBRANCH  11  13
ENDBRANCH   6  11
BRANCH   2  21
ATOM     21  C   UNL     1      31.983 -12.146 -22.345  0.00  0.00    +0.159 C 
BRANCH  21  25
ATOM     22  N   UNL     1      33.018 -13.696 -24.035  0.00  0.00    -0.230 N 
ATOM     23  N   UNL     1      33.820 -14.767 -24.211  0.00  0.00    -0.128 NA
ATOM     24  N   UNL     1      34.997 -16.116 -22.574  0.00  0.00    -0.192 NA
ATOM     25  C   UNL     1      32.846 -13.321 -22.731  0.00  0.00    +0.071 C 
ATOM     26  C   UNL     1      33.592 -14.214 -22.011  0.00  0.00    +0.058 C 
ATOM     27  C   UNL     1      34.183 -15.096 -22.966  0.00  0.00    +0.049 C 
ATOM     28  C   UNL     1      33.731 -14.234 -20.631  0.00  0.00    +0.065 C 
ATOM     29  C   UNL     1      34.569 -15.288 -20.250  0.00  0.00    +0.001 C 
ATOM     30  C   UNL     1      35.146 -16.152 -21.211  0.00  0.00    +0.105 C 
ATOM     31  H   UNL     1      32.589 -13.223 -24.785  0.00  0.00    +0.175 HD
ENDBRANCH  21  25
ENDBRANCH   2  21
TORSDOF 5
ENDMDL
MODEL 7
REMARK VINA RESULT:     -10.0      6.622     10.129
REMARK  Name = 24988948
REMARK  5 active torsions:
REMARK  status: ('A' for Active; 'I' for Inactive)
REMARK    1  A    between atoms: N_2  and  C_21
REMARK    2  A    between atoms: C_6  and  O_11
REMARK    3  A    between atoms: O_11  and  C_13
REMARK    4  A    between atoms: C_16  and  C_20
REMARK    5  A    between atoms: C_21  and  C_25
REMARK                            x       y       z     vdW  Elec       q    Type
REMARK                         _______ _______ _______ _____ _____    ______ ____
ROOT
ATOM      1 CL   UNL     1      37.913 -18.710 -21.581  0.00  0.00    -0.079 Cl
ATOM      2  N   UNL     1      34.109 -21.926 -18.564  0.00  0.00    -0.205 N 
ATOM      3  N   UNL     1      32.996 -21.914 -19.318  0.00  0.00    -0.176 NA
ATOM      4  C   UNL     1      35.153 -21.216 -19.093  0.00  0.00    +0.074 C 
ATOM      5  C   UNL     1      34.675 -20.701 -20.292  0.00  0.00    +0.071 C 
ATOM      6  C   UNL     1      35.523 -19.912 -21.088  0.00  0.00    +0.158 C 
ATOM      7  C   UNL     1      33.346 -21.167 -20.370  0.00  0.00    +0.122 C 
ATOM      8  C   UNL     1      36.450 -20.988 -18.628  0.00  0.00    +0.017 C 
ATOM      9  C   UNL     1      36.828 -19.671 -20.641  0.00  0.00    +0.092 C 
ATOM     10  C   UNL     1      37.282 -20.201 -19.432  0.00  0.00    +0.016 C 
ENDROOT
BRANCH   6  11
ATOM     11  O   UNL     1      35.078 -19.392 -22.273  0.00  0.00    -0.453 OA
BRANCH  11  13
ATOM     12 CL   UNL     1      34.911 -14.924 -19.808  0.00  0.00    -0.082 Cl
ATOM     13  C   UNL     1      34.875 -18.027 -22.332  0.00  0.00    +0.147 C 
ATOM     14  C   UNL     1      34.561 -17.421 -23.549  0.00  0.00    +0.048 C 
ATOM     15  C   UNL     1      34.982 -17.255 -21.176  0.00  0.00    +0.049 C 
ATOM     16  C   UNL     1      34.355 -16.043 -23.609  0.00  0.00    +0.072 C 
ATOM     17  C   UNL     1      34.777 -15.877 -21.235  0.00  0.00    +0.061 C 
ATOM     18  C   UNL     1      34.463 -15.270 -22.452  0.00  0.00    +0.022 C 
BRANCH  16  20
ATOM     19  N   UNL     1      33.774 -14.918 -25.867  0.00  0.00    -0.191 NA
ATOM     20  C   UNL     1      34.034 -15.422 -24.855  0.00  0.00    +0.101 C 
ENDBRANCH  16  20
ENDBRANCH  11  13
ENDBRANCH   6  11
BRANCH   2  21
ATOM     21  C   UNL     1      34.103 -22.654 -17.316  0.00  0.00    +0.159 C 
BRANCH  21  25
ATOM     22  N   UNL     1      31.604 -22.365 -17.344  0.00  0.00    -0.230 N 
ATOM     23  N   UNL     1      30.466 -22.494 -16.631  0.00  0.00    -0.128 NA
ATOM     24  N   UNL     1      30.133 -23.272 -14.357  0.00  0.00    -0.192 NA
ATOM     25  C   UNL     1      32.739 -22.731 -16.675  0.00  0.00    +0.071 C 
ATOM     26  C   UNL     1      32.305 -23.126 -15.440  0.00  0.00    +0.058 C 
ATOM     27  C   UNL     1      30.886 -22.964 -15.451  0.00  0.00    +0.049 C 
ATOM     28  C   UNL     1      33.103 -23.587 -14.404  0.00  0.00    +0.065 C 
ATOM     29  C   UNL     1      32.312 -23.896 -13.293  0.00  0.00    +0.001 C 
ATOM     30  C   UNL     1      30.907 -23.730 -13.321  0.00  0.00    +0.105 C 
ATOM     31  H   UNL     1      31.616 -22.034 -18.271  0.00  0.00    +0.175 HD
ENDBRANCH  21  25
ENDBRANCH   2  21
TORSDOF 5
ENDMDL
MODEL 8
REMARK VINA RESULT:      -9.8      2.989      4.094
REMARK  Name = 24988948
REMARK  5 active torsions:
REMARK  status: ('A' for Active; 'I' for Inactive)
REMARK    1  A    between atoms: N_2  and  C_21
REMARK    2  A    between atoms: C_6  and  O_11
REMARK    3  A    between atoms: O_11  and  C_13
REMARK    4  A    between atoms: C_16  and  C_20
REMARK    5  A    between atoms: C_21  and  C_25
REMARK                            x       y       z     vdW  Elec       q    Type
REMARK                         _______ _______ _______ _____ _____    ______ ____
ROOT
ATOM      1 CL   UNL     1      33.042  -6.113 -19.515  0.00  0.00    -0.079 Cl
ATOM      2  N   UNL     1      32.528 -10.959 -22.703  0.00  0.00    -0.205 N 
ATOM      3  N   UNL     1      33.258 -10.708 -23.803  0.00  0.00    -0.176 NA
ATOM      4  C   UNL     1      32.507  -9.933 -21.797  0.00  0.00    +0.074 C 
ATOM      5  C   UNL     1      33.292  -8.933 -22.360  0.00  0.00    +0.071 C 
ATOM      6  C   UNL     1      33.472  -7.726 -21.662  0.00  0.00    +0.158 C 
ATOM      7  C   UNL     1      33.722  -9.474 -23.590  0.00  0.00    +0.122 C 
ATOM      8  C   UNL     1      31.878  -9.802 -20.557  0.00  0.00    +0.017 C 
ATOM      9  C   UNL     1      32.851  -7.574 -20.416  0.00  0.00    +0.092 C 
ATOM     10  C   UNL     1      32.068  -8.595 -19.875  0.00  0.00    +0.016 C 
ENDROOT
BRANCH   6  11
ATOM     11  O   UNL     1      34.239  -6.725 -22.193  0.00  0.00    -0.453 OA
BRANCH  11  13
ATOM     12 CL   UNL     1      30.537  -4.103 -24.536  0.00  0.00    -0.082 Cl
ATOM     13  C   UNL     1      33.782  -6.117 -23.346  0.00  0.00    +0.147 C 
ATOM     14  C   UNL     1      34.567  -6.131 -24.500  0.00  0.00    +0.048 C 
ATOM     15  C   UNL     1      32.536  -5.491 -23.358  0.00  0.00    +0.049 C 
ATOM     16  C   UNL     1      34.105  -5.519 -25.664  0.00  0.00    +0.072 C 
ATOM     17  C   UNL     1      32.074  -4.877 -24.522  0.00  0.00    +0.061 C 
ATOM     18  C   UNL     1      32.859  -4.891 -25.676  0.00  0.00    +0.022 C 
BRANCH  16  20
ATOM     19  N   UNL     1      35.562  -5.543 -27.804  0.00  0.00    -0.191 NA
ATOM     20  C   UNL     1      34.909  -5.533 -26.846  0.00  0.00    +0.101 C 
ENDBRANCH  16  20
ENDBRANCH  11  13
ENDBRANCH   6  11
BRANCH   2  21
ATOM     21  C   UNL     1      31.858 -12.234 -22.580  0.00  0.00    +0.159 C 
BRANCH  21  25
ATOM     22  N   UNL     1      32.997 -13.883 -24.101  0.00  0.00    -0.230 N 
ATOM     23  N   UNL     1      33.832 -14.942 -24.161  0.00  0.00    -0.128 NA
ATOM     24  N   UNL     1      34.974 -16.126 -22.378  0.00  0.00    -0.192 NA
ATOM     25  C   UNL     1      32.765 -13.412 -22.838  0.00  0.00    +0.071 C 
ATOM     26  C   UNL     1      33.502 -14.224 -22.022  0.00  0.00    +0.058 C 
ATOM     27  C   UNL     1      34.152 -15.162 -22.881  0.00  0.00    +0.049 C 
ATOM     28  C   UNL     1      33.586 -14.132 -20.640  0.00  0.00    +0.065 C 
ATOM     29  C   UNL     1      34.433 -15.129 -20.146  0.00  0.00    +0.001 C 
ATOM     30  C   UNL     1      35.069 -16.051 -21.012  0.00  0.00    +0.105 C 
ATOM     31  H   UNL     1      32.588 -13.483 -24.902  0.00  0.00    +0.175 HD
ENDBRANCH  21  25
ENDBRANCH   2  21
TORSDOF 5
ENDMDL
MODEL 9
REMARK VINA RESULT:      -9.7      1.998      2.598
REMARK  Name = 24988948
REMARK  5 active torsions:
REMARK  status: ('A' for Active; 'I' for Inactive)
REMARK    1  A    between atoms: N_2  and  C_21
REMARK    2  A    between atoms: C_6  and  O_11
REMARK    3  A    between atoms: O_11  and  C_13
REMARK    4  A    between atoms: C_16  and  C_20
REMARK    5  A    between atoms: C_21  and  C_25
REMARK                            x       y       z     vdW  Elec       q    Type
REMARK                         _______ _______ _______ _____ _____    ______ ____
ROOT
ATOM      1 CL   UNL     1      31.306  -8.300 -18.987  0.00  0.00    -0.079 Cl
ATOM      2  N   UNL     1      32.771 -11.790 -23.414  0.00  0.00    -0.205 N 
ATOM      3  N   UNL     1      33.777 -11.141 -24.024  0.00  0.00    -0.176 NA
ATOM      4  C   UNL     1      32.263 -11.136 -22.323  0.00  0.00    +0.074 C 
ATOM      5  C   UNL     1      33.003  -9.965 -22.221  0.00  0.00    +0.071 C 
ATOM      6  C   UNL     1      32.720  -9.060 -21.183  0.00  0.00    +0.158 C 
ATOM      7  C   UNL     1      33.916 -10.031 -23.295  0.00  0.00    +0.122 C 
ATOM      8  C   UNL     1      31.236 -11.469 -21.438  0.00  0.00    +0.017 C 
ATOM      9  C   UNL     1      31.694  -9.375 -20.283  0.00  0.00    +0.092 C 
ATOM     10  C   UNL     1      30.966 -10.559 -20.410  0.00  0.00    +0.016 C 
ENDROOT
BRANCH   6  11
ATOM     11  O   UNL     1      33.434  -7.899 -21.059  0.00  0.00    -0.453 OA
BRANCH  11  13
ATOM     12 CL   UNL     1      34.123  -5.224 -25.352  0.00  0.00    -0.082 Cl
ATOM     13  C   UNL     1      33.054  -6.832 -21.849  0.00  0.00    +0.147 C 
ATOM     14  C   UNL     1      32.021  -5.991 -21.435  0.00  0.00    +0.048 C 
ATOM     15  C   UNL     1      33.704  -6.594 -23.060  0.00  0.00    +0.049 C 
ATOM     16  C   UNL     1      31.637  -4.913 -22.233  0.00  0.00    +0.072 C 
ATOM     17  C   UNL     1      33.321  -5.516 -23.858  0.00  0.00    +0.061 C 
ATOM     18  C   UNL     1      32.287  -4.675 -23.444  0.00  0.00    +0.022 C 
BRANCH  16  20
ATOM     19  N   UNL     1      29.718  -3.355 -21.465  0.00  0.00    -0.191 NA
ATOM     20  C   UNL     1      30.578  -4.053 -21.809  0.00  0.00    +0.101 C 
ENDBRANCH  16  20
ENDBRANCH  11  13
ENDBRANCH   6  11
BRANCH   2  21
ATOM     21  C   UNL     1      32.335 -13.063 -23.939  0.00  0.00    +0.159 C 
BRANCH  21  25
ATOM     22  N   UNL     1      33.869 -14.909 -24.690  0.00  0.00    -0.230 N 
ATOM     23  N   UNL     1      34.721 -15.875 -24.287  0.00  0.00    -0.128 NA
ATOM     24  N   UNL     1      35.405 -16.512 -22.048  0.00  0.00    -0.192 NA
ATOM     25  C   UNL     1      33.310 -14.184 -23.675  0.00  0.00    +0.071 C 
ATOM     26  C   UNL     1      33.838 -14.718 -22.532  0.00  0.00    +0.058 C 
ATOM     27  C   UNL     1      34.711 -15.767 -22.953  0.00  0.00    +0.049 C 
ATOM     28  C   UNL     1      33.564 -14.304 -21.237  0.00  0.00    +0.065 C 
ATOM     29  C   UNL     1      34.285 -15.082 -20.325  0.00  0.00    +0.001 C 
ATOM     30  C   UNL     1      35.146 -16.117 -20.760  0.00  0.00    +0.105 C 
ATOM     31  H   UNL     1      33.666 -14.742 -25.639  0.00  0.00    +0.175 HD
ENDBRANCH  21  25
ENDBRANCH   2  21
TORSDOF 5
ENDMDL
