MODEL 1
REMARK VINA RESULT:     -11.7      0.000      0.000
REMARK  Name = 9810927
REMARK  6 active torsions:
REMARK  status: ('A' for Active; 'I' for Inactive)
REMARK    1  A    between atoms: N_1  and  C_13
REMARK    2  A    between atoms: C_11  and  O_24
REMARK    3  A    between atoms: C_12  and  O_26
REMARK    4  A    between atoms: C_14  and  C_18
REMARK    5  A    between atoms: C_19  and  C_20
REMARK    6  A    between atoms: N_28  and  C_32
REMARK                            x       y       z     vdW  Elec       q    Type
REMARK                         _______ _______ _______ _____ _____    ______ ____
ROOT
ATOM      1  N   UNL     1      36.198 -23.344 -15.608  0.00  0.00    -0.247 N 
ATOM      2  N   UNL     1      37.249 -21.702 -16.694  0.00  0.00    -0.242 NA
ATOM      3  N   UNL     1      34.257 -23.613 -17.044  0.00  0.00    -0.228 NA
ATOM      4  N   UNL     1      34.321 -22.059 -18.925  0.00  0.00    -0.228 NA
ATOM      5  C   UNL     1      35.420 -23.044 -16.692  0.00  0.00    +0.152 C 
ATOM      6  C   UNL     1      37.284 -22.509 -15.654  0.00  0.00    +0.223 C 
ATOM      7  C   UNL     1      36.089 -22.026 -17.351  0.00  0.00    +0.140 C 
ATOM      8  C   UNL     1      35.498 -21.532 -18.509  0.00  0.00    +0.150 C 
ATOM      9  C   UNL     1      33.782 -23.053 -18.178  0.00  0.00    +0.253 C 
ATOM     10  N   UNL     1      36.108 -20.499 -19.242  0.00  0.00    -0.295 N 
ATOM     11  H   UNL     1      36.959 -20.189 -18.855  0.00  0.00    +0.154 HD
ENDROOT
BRANCH  10  14
ATOM     12 CL   UNL     1      34.574 -17.646 -24.198  0.00  0.00    -0.082 Cl
ATOM     13  F   UNL     1      37.901 -18.834 -20.569  0.00  0.00    -0.203 F 
ATOM     14  C   UNL     1      35.744 -19.818 -20.424  0.00  0.00    +0.077 C 
ATOM     15  C   UNL     1      36.665 -18.991 -21.066  0.00  0.00    +0.154 C 
ATOM     16  C   UNL     1      34.462 -19.974 -20.948  0.00  0.00    +0.018 C 
ATOM     17  C   UNL     1      36.303 -18.319 -22.233  0.00  0.00    +0.042 C 
ATOM     18  C   UNL     1      34.099 -19.301 -22.114  0.00  0.00    +0.013 C 
ATOM     19  C   UNL     1      35.020 -18.475 -22.758  0.00  0.00    +0.060 C 
ENDBRANCH  10  14
BRANCH   1  23
ATOM     20  O   UNL     1      34.515 -24.619 -14.513  0.00  0.00    -0.326 OA
ATOM     21  C   UNL     1      36.386 -23.957 -13.187  0.00  0.00    +0.187 C 
ATOM     22  C   UNL     1      35.099 -23.466 -12.553  0.00  0.00    +0.178 C 
ATOM     23  C   UNL     1      35.931 -24.358 -14.586  0.00  0.00    +0.225 C 
ATOM     24  C   UNL     1      34.062 -24.404 -13.157  0.00  0.00    +0.223 C 
BRANCH  24  28
ATOM     25  O   UNL     1      32.031 -23.969 -14.443  0.00  0.00    -0.421 OA
ATOM     26  N   UNL     1      31.875 -23.429 -12.278  0.00  0.00    -0.109 NA
ATOM     27  N   UNL     1      30.666 -23.132 -12.881  0.00  0.00    -0.112 NA
ATOM     28  C   UNL     1      32.632 -23.911 -13.228  0.00  0.00    +0.255 A 
ATOM     29  C   UNL     1      30.804 -23.463 -14.143  0.00  0.00    +0.225 A 
BRANCH  29  30
ATOM     30  C   UNL     1      29.838 -23.369 -15.246  0.00  0.00    +0.070 C 
ATOM     31  C   UNL     1      29.236 -24.767 -15.642  0.00  0.00    +0.009 C 
ATOM     32  C   UNL     1      30.471 -22.768 -16.554  0.00  0.00    +0.009 C 
ATOM     33  C   UNL     1      28.572 -22.465 -14.978  0.00  0.00    +0.009 C 
ENDBRANCH  29  30
ENDBRANCH  24  28
BRANCH  21  34
ATOM     34  O   UNL     1      36.855 -25.131 -12.526  0.00  0.00    -0.378 OA
ATOM     35  H   UNL     1      37.632 -25.477 -12.994  0.00  0.00    +0.211 HD
ENDBRANCH  21  34
BRANCH  22  36
ATOM     36  O   UNL     1      35.127 -23.541 -11.142  0.00  0.00    -0.379 OA
ATOM     37  H   UNL     1      36.017 -23.794 -10.849  0.00  0.00    +0.211 HD
ENDBRANCH  22  36
ENDBRANCH   1  23
TORSDOF 6
ENDMDL
MODEL 2
REMARK VINA RESULT:     -11.5      2.263      3.032
REMARK  Name = 9810927
REMARK  6 active torsions:
REMARK  status: ('A' for Active; 'I' for Inactive)
REMARK    1  A    between atoms: N_1  and  C_13
REMARK    2  A    between atoms: C_11  and  O_24
REMARK    3  A    between atoms: C_12  and  O_26
REMARK    4  A    between atoms: C_14  and  C_18
REMARK    5  A    between atoms: C_19  and  C_20
REMARK    6  A    between atoms: N_28  and  C_32
REMARK                            x       y       z     vdW  Elec       q    Type
REMARK                         _______ _______ _______ _____ _____    ______ ____
ROOT
ATOM      1  N   UNL     1      35.837 -21.941 -18.126  0.00  0.00    -0.247 N 
ATOM      2  N   UNL     1      36.924 -20.224 -19.048  0.00  0.00    -0.242 NA
ATOM      3  N   UNL     1      33.701 -21.737 -19.266  0.00  0.00    -0.228 NA
ATOM      4  N   UNL     1      33.699 -19.857 -20.822  0.00  0.00    -0.228 NA
ATOM      5  C   UNL     1      34.961 -21.362 -19.003  0.00  0.00    +0.152 C 
ATOM      6  C   UNL     1      37.001 -21.220 -18.190  0.00  0.00    +0.223 C 
ATOM      7  C   UNL     1      35.655 -20.302 -19.564  0.00  0.00    +0.140 C 
ATOM      8  C   UNL     1      34.977 -19.535 -20.506  0.00  0.00    +0.150 C 
ATOM      9  C   UNL     1      33.149 -20.923 -20.191  0.00  0.00    +0.253 C 
ATOM     10  N   UNL     1      35.604 -18.441 -21.127  0.00  0.00    -0.295 N 
ATOM     11  H   UNL     1      36.531 -18.295 -20.828  0.00  0.00    +0.154 HD
ENDROOT
BRANCH  10  14
ATOM     12 CL   UNL     1      33.783 -14.541 -25.192  0.00  0.00    -0.082 Cl
ATOM     13  F   UNL     1      35.143 -15.775 -20.473  0.00  0.00    -0.203 F 
ATOM     14  C   UNL     1      35.170 -17.510 -22.095  0.00  0.00    +0.077 C 
ATOM     15  C   UNL     1      34.948 -16.181 -21.736  0.00  0.00    +0.154 C 
ATOM     16  C   UNL     1      34.963 -17.922 -23.410  0.00  0.00    +0.018 C 
ATOM     17  C   UNL     1      34.519 -15.263 -22.694  0.00  0.00    +0.042 C 
ATOM     18  C   UNL     1      34.533 -17.004 -24.369  0.00  0.00    +0.013 C 
ATOM     19  C   UNL     1      34.312 -15.675 -24.011  0.00  0.00    +0.060 C 
ENDBRANCH  10  14
BRANCH   1  23
ATOM     20  O   UNL     1      34.209 -23.512 -17.391  0.00  0.00    -0.326 OA
ATOM     21  C   UNL     1      35.861 -22.858 -15.796  0.00  0.00    +0.187 C 
ATOM     22  C   UNL     1      34.472 -22.586 -15.249  0.00  0.00    +0.178 C 
ATOM     23  C   UNL     1      35.588 -23.107 -17.275  0.00  0.00    +0.225 C 
ATOM     24  C   UNL     1      33.608 -23.530 -16.076  0.00  0.00    +0.223 C 
BRANCH  24  28
ATOM     25  O   UNL     1      31.256 -23.937 -15.555  0.00  0.00    -0.421 OA
ATOM     26  N   UNL     1      31.600 -22.228 -16.957  0.00  0.00    -0.109 NA
ATOM     27  N   UNL     1      30.237 -22.345 -16.752  0.00  0.00    -0.112 NA
ATOM     28  C   UNL     1      32.145 -23.174 -16.240  0.00  0.00    +0.255 A 
ATOM     29  C   UNL     1      30.084 -23.355 -15.928  0.00  0.00    +0.225 A 
BRANCH  29  30
ATOM     30  C   UNL     1      28.853 -23.925 -15.366  0.00  0.00    +0.070 C 
ATOM     31  C   UNL     1      27.986 -24.673 -16.445  0.00  0.00    +0.009 C 
ATOM     32  C   UNL     1      27.920 -22.834 -14.723  0.00  0.00    +0.009 C 
ATOM     33  C   UNL     1      29.047 -24.992 -14.219  0.00  0.00    +0.009 C 
ENDBRANCH  29  30
ENDBRANCH  24  28
BRANCH  21  34
ATOM     34  O   UNL     1      36.392 -24.060 -15.241  0.00  0.00    -0.378 OA
ATOM     35  H   UNL     1      37.359 -24.053 -15.323  0.00  0.00    +0.211 HD
ENDBRANCH  21  34
BRANCH  22  36
ATOM     36  O   UNL     1      34.374 -22.850 -13.864  0.00  0.00    -0.379 OA
ATOM     37  H   UNL     1      33.456 -22.721 -13.575  0.00  0.00    +0.211 HD
ENDBRANCH  22  36
ENDBRANCH   1  23
TORSDOF 6
ENDMDL
MODEL 3
REMARK VINA RESULT:     -11.5      6.330      8.964
REMARK  Name = 9810927
REMARK  6 active torsions:
REMARK  status: ('A' for Active; 'I' for Inactive)
REMARK    1  A    between atoms: N_1  and  C_13
REMARK    2  A    between atoms: C_11  and  O_24
REMARK    3  A    between atoms: C_12  and  O_26
REMARK    4  A    between atoms: C_14  and  C_18
REMARK    5  A    between atoms: C_19  and  C_20
REMARK    6  A    between atoms: N_28  and  C_32
REMARK                            x       y       z     vdW  Elec       q    Type
REMARK                         _______ _______ _______ _____ _____    ______ ____
ROOT
ATOM      1  N   UNL     1      35.131 -16.626 -22.038  0.00  0.00    -0.247 N 
ATOM      2  N   UNL     1      34.447 -14.891 -20.814  0.00  0.00    -0.242 NA
ATOM      3  N   UNL     1      34.497 -15.847 -24.250  0.00  0.00    -0.228 NA
ATOM      4  N   UNL     1      33.457 -13.641 -24.151  0.00  0.00    -0.228 NA
ATOM      5  C   UNL     1      34.597 -15.726 -22.918  0.00  0.00    +0.152 C 
ATOM      6  C   UNL     1      35.016 -16.078 -20.787  0.00  0.00    +0.223 C 
ATOM      7  C   UNL     1      34.180 -14.658 -22.139  0.00  0.00    +0.140 C 
ATOM      8  C   UNL     1      33.591 -13.588 -22.804  0.00  0.00    +0.150 C 
ATOM      9  C   UNL     1      33.911 -14.752 -24.781  0.00  0.00    +0.253 C 
ATOM     10  N   UNL     1      33.139 -12.462 -22.093  0.00  0.00    -0.295 N 
ATOM     11  H   UNL     1      33.285 -12.524 -21.121  0.00  0.00    +0.154 HD
ENDROOT
BRANCH  10  14
ATOM     12 CL   UNL     1      30.526  -7.422 -23.773  0.00  0.00    -0.082 Cl
ATOM     13  F   UNL     1      34.447 -10.626 -23.726  0.00  0.00    -0.203 F 
ATOM     14  C   UNL     1      32.518 -11.260 -22.495  0.00  0.00    +0.077 C 
ATOM     15  C   UNL     1      33.199 -10.361 -23.313  0.00  0.00    +0.154 C 
ATOM     16  C   UNL     1      31.221 -10.974 -22.070  0.00  0.00    +0.018 C 
ATOM     17  C   UNL     1      32.584  -9.174 -23.709  0.00  0.00    +0.042 C 
ATOM     18  C   UNL     1      30.605  -9.787 -22.465  0.00  0.00    +0.013 C 
ATOM     19  C   UNL     1      31.285  -8.887 -23.285  0.00  0.00    +0.060 C 
ENDBRANCH  10  14
BRANCH   1  23
ATOM     20  O   UNL     1      34.788 -18.980 -22.020  0.00  0.00    -0.326 OA
ATOM     21  C   UNL     1      37.015 -18.221 -21.617  0.00  0.00    +0.187 C 
ATOM     22  C   UNL     1      36.546 -19.093 -20.468  0.00  0.00    +0.178 C 
ATOM     23  C   UNL     1      35.716 -17.930 -22.359  0.00  0.00    +0.225 C 
ATOM     24  C   UNL     1      35.429 -19.904 -21.111  0.00  0.00    +0.223 C 
BRANCH  24  28
ATOM     25  O   UNL     1      34.736 -21.457 -19.357  0.00  0.00    -0.421 OA
ATOM     26  N   UNL     1      33.098 -20.128 -20.101  0.00  0.00    -0.109 NA
ATOM     27  N   UNL     1      32.570 -20.949 -19.121  0.00  0.00    -0.112 NA
ATOM     28  C   UNL     1      34.357 -20.463 -20.200  0.00  0.00    +0.255 A 
ATOM     29  C   UNL     1      33.562 -21.707 -18.716  0.00  0.00    +0.225 A 
BRANCH  29  30
ATOM     30  C   UNL     1      33.577 -22.758 -17.690  0.00  0.00    +0.070 C 
ATOM     31  C   UNL     1      33.745 -24.197 -18.303  0.00  0.00    +0.009 C 
ATOM     32  C   UNL     1      32.258 -22.788 -16.835  0.00  0.00    +0.009 C 
ATOM     33  C   UNL     1      34.731 -22.658 -16.617  0.00  0.00    +0.009 C 
ENDBRANCH  29  30
ENDBRANCH  24  28
BRANCH  21  34
ATOM     34  O   UNL     1      37.864 -18.960 -22.494  0.00  0.00    -0.378 OA
ATOM     35  H   UNL     1      37.652 -19.905 -22.427  0.00  0.00    +0.211 HD
ENDBRANCH  21  34
BRANCH  22  36
ATOM     36  O   UNL     1      37.575 -19.916 -19.957  0.00  0.00    -0.379 OA
ATOM     37  H   UNL     1      38.071 -19.431 -19.278  0.00  0.00    +0.211 HD
ENDBRANCH  22  36
ENDBRANCH   1  23
TORSDOF 6
ENDMDL
MODEL 4
REMARK VINA RESULT:     -11.0     11.589     15.793
REMARK  Name = 9810927
REMARK  6 active torsions:
REMARK  status: ('A' for Active; 'I' for Inactive)
REMARK    1  A    between atoms: N_1  and  C_13
REMARK    2  A    between atoms: C_11  and  O_24
REMARK    3  A    between atoms: C_12  and  O_26
REMARK    4  A    between atoms: C_14  and  C_18
REMARK    5  A    between atoms: C_19  and  C_20
REMARK    6  A    between atoms: N_28  and  C_32
REMARK                            x       y       z     vdW  Elec       q    Type
REMARK                         _______ _______ _______ _____ _____    ______ ____
ROOT
ATOM      1  N   UNL     1      32.114  -9.838 -22.246  0.00  0.00    -0.247 N 
ATOM      2  N   UNL     1      33.416 -10.965 -23.665  0.00  0.00    -0.242 NA
ATOM      3  N   UNL     1      31.523 -11.631 -20.716  0.00  0.00    -0.228 NA
ATOM      4  N   UNL     1      32.559 -13.740 -21.375  0.00  0.00    -0.228 NA
ATOM      5  C   UNL     1      32.145 -11.128 -21.793  0.00  0.00    +0.152 C 
ATOM      6  C   UNL     1      32.893  -9.792 -23.373  0.00  0.00    +0.223 C 
ATOM      7  C   UNL     1      32.957 -11.809 -22.686  0.00  0.00    +0.140 C 
ATOM      8  C   UNL     1      33.157 -13.165 -22.447  0.00  0.00    +0.150 C 
ATOM      9  C   UNL     1      31.790 -12.948 -20.588  0.00  0.00    +0.253 C 
ATOM     10  N   UNL     1      33.967 -13.933 -23.301  0.00  0.00    -0.295 N 
ATOM     11  H   UNL     1      34.354 -13.419 -24.046  0.00  0.00    +0.154 HD
ENDROOT
BRANCH  10  14
ATOM     12 CL   UNL     1      35.523 -19.645 -23.299  0.00  0.00    -0.082 Cl
ATOM     13  F   UNL     1      33.363 -15.600 -25.446  0.00  0.00    -0.203 F 
ATOM     14  C   UNL     1      34.337 -15.295 -23.302  0.00  0.00    +0.077 C 
ATOM     15  C   UNL     1      34.020 -16.104 -24.392  0.00  0.00    +0.154 C 
ATOM     16  C   UNL     1      35.020 -15.829 -22.211  0.00  0.00    +0.018 C 
ATOM     17  C   UNL     1      34.386 -17.450 -24.391  0.00  0.00    +0.042 C 
ATOM     18  C   UNL     1      35.386 -17.175 -22.209  0.00  0.00    +0.013 C 
ATOM     19  C   UNL     1      35.071 -17.985 -23.299  0.00  0.00    +0.060 C 
ENDBRANCH  10  14
BRANCH   1  23
ATOM     20  O   UNL     1      30.975  -7.796 -22.682  0.00  0.00    -0.326 OA
ATOM     21  C   UNL     1      32.214  -7.916 -20.645  0.00  0.00    +0.187 C 
ATOM     22  C   UNL     1      32.685  -6.735 -21.473  0.00  0.00    +0.178 C 
ATOM     23  C   UNL     1      31.390  -8.713 -21.650  0.00  0.00    +0.225 C 
ATOM     24  C   UNL     1      31.490  -6.479 -22.381  0.00  0.00    +0.223 C 
BRANCH  24  28
ATOM     25  O   UNL     1      33.011  -5.872 -24.194  0.00  0.00    -0.421 OA
ATOM     26  N   UNL     1      30.931  -5.090 -24.446  0.00  0.00    -0.109 NA
ATOM     27  N   UNL     1      31.678  -4.675 -25.533  0.00  0.00    -0.112 NA
ATOM     28  C   UNL     1      31.751  -5.781 -23.699  0.00  0.00    +0.255 A 
ATOM     29  C   UNL     1      32.885  -5.154 -25.343  0.00  0.00    +0.225 A 
BRANCH  29  30
ATOM     30  C   UNL     1      34.084  -5.027 -26.180  0.00  0.00    +0.070 C 
ATOM     31  C   UNL     1      33.933  -5.755 -27.566  0.00  0.00    +0.009 C 
ATOM     32  C   UNL     1      35.366  -5.630 -25.497  0.00  0.00    +0.009 C 
ATOM     33  C   UNL     1      34.506  -3.554 -26.562  0.00  0.00    +0.009 C 
ENDBRANCH  29  30
ENDBRANCH  24  28
BRANCH  21  34
ATOM     34  O   UNL     1      31.337  -7.482 -19.606  0.00  0.00    -0.378 OA
ATOM     35  H   UNL     1      30.417  -7.563 -19.906  0.00  0.00    +0.211 HD
ENDBRANCH  21  34
BRANCH  22  36
ATOM     36  O   UNL     1      33.001  -5.609 -20.679  0.00  0.00    -0.379 OA
ATOM     37  H   UNL     1      32.596  -4.816 -21.067  0.00  0.00    +0.211 HD
ENDBRANCH  22  36
ENDBRANCH   1  23
TORSDOF 6
ENDMDL
MODEL 5
REMARK VINA RESULT:     -10.8     11.531     15.732
REMARK  Name = 9810927
REMARK  6 active torsions:
REMARK  status: ('A' for Active; 'I' for Inactive)
REMARK    1  A    between atoms: N_1  and  C_13
REMARK    2  A    between atoms: C_11  and  O_24
REMARK    3  A    between atoms: C_12  and  O_26
REMARK    4  A    between atoms: C_14  and  C_18
REMARK    5  A    between atoms: C_19  and  C_20
REMARK    6  A    between atoms: N_28  and  C_32
REMARK                            x       y       z     vdW  Elec       q    Type
REMARK                         _______ _______ _______ _____ _____    ______ ____
ROOT
ATOM      1  N   UNL     1      32.185  -9.843 -22.164  0.00  0.00    -0.247 N 
ATOM      2  N   UNL     1      33.560 -10.959 -23.521  0.00  0.00    -0.242 NA
ATOM      3  N   UNL     1      31.465 -11.659 -20.720  0.00  0.00    -0.228 NA
ATOM      4  N   UNL     1      32.508 -13.771 -21.361  0.00  0.00    -0.228 NA
ATOM      5  C   UNL     1      32.164 -11.143 -21.742  0.00  0.00    +0.152 C 
ATOM      6  C   UNL     1      33.037  -9.784 -23.236  0.00  0.00    +0.223 C 
ATOM      7  C   UNL     1      33.024 -11.817 -22.595  0.00  0.00    +0.140 C 
ATOM      8  C   UNL     1      33.185 -13.181 -22.376  0.00  0.00    +0.150 C 
ATOM      9  C   UNL     1      31.701 -12.984 -20.607  0.00  0.00    +0.253 C 
ATOM     10  N   UNL     1      34.038 -13.944 -23.193  0.00  0.00    -0.295 N 
ATOM     11  H   UNL     1      34.482 -13.419 -23.899  0.00  0.00    +0.154 HD
ENDROOT
BRANCH  10  14
ATOM     12 CL   UNL     1      35.495 -19.682 -23.246  0.00  0.00    -0.082 Cl
ATOM     13  F   UNL     1      35.203 -15.163 -20.979  0.00  0.00    -0.203 F 
ATOM     14  C   UNL     1      34.386 -15.311 -23.204  0.00  0.00    +0.077 C 
ATOM     15  C   UNL     1      34.968 -15.893 -22.078  0.00  0.00    +0.154 C 
ATOM     16  C   UNL     1      34.147 -16.079 -24.342  0.00  0.00    +0.018 C 
ATOM     17  C   UNL     1      35.311 -17.245 -22.091  0.00  0.00    +0.042 C 
ATOM     18  C   UNL     1      34.490 -17.431 -24.356  0.00  0.00    +0.013 C 
ATOM     19  C   UNL     1      35.071 -18.014 -23.231  0.00  0.00    +0.060 C 
ENDBRANCH  10  14
BRANCH   1  23
ATOM     20  O   UNL     1      31.011  -7.829 -22.639  0.00  0.00    -0.326 OA
ATOM     21  C   UNL     1      32.249  -7.889 -20.599  0.00  0.00    +0.187 C 
ATOM     22  C   UNL     1      32.701  -6.716 -21.448  0.00  0.00    +0.178 C 
ATOM     23  C   UNL     1      31.441  -8.719 -21.590  0.00  0.00    +0.225 C 
ATOM     24  C   UNL     1      31.503  -6.497 -22.362  0.00  0.00    +0.223 C 
BRANCH  24  28
ATOM     25  O   UNL     1      33.025  -5.867 -24.166  0.00  0.00    -0.421 OA
ATOM     26  N   UNL     1      30.917  -5.184 -24.468  0.00  0.00    -0.109 NA
ATOM     27  N   UNL     1      31.663  -4.761 -25.554  0.00  0.00    -0.112 NA
ATOM     28  C   UNL     1      31.755  -5.820 -23.693  0.00  0.00    +0.255 A 
ATOM     29  C   UNL     1      32.886  -5.182 -25.334  0.00  0.00    +0.225 A 
BRANCH  29  30
ATOM     30  C   UNL     1      34.092  -5.022 -26.157  0.00  0.00    +0.070 C 
ATOM     31  C   UNL     1      35.382  -5.581 -25.452  0.00  0.00    +0.009 C 
ATOM     32  C   UNL     1      34.391  -3.518 -26.506  0.00  0.00    +0.009 C 
ATOM     33  C   UNL     1      34.072  -5.747 -27.558  0.00  0.00    +0.009 C 
ENDBRANCH  29  30
ENDBRANCH  24  28
BRANCH  21  34
ATOM     34  O   UNL     1      31.363  -7.452 -19.570  0.00  0.00    -0.378 OA
ATOM     35  H   UNL     1      30.699  -6.854 -19.948  0.00  0.00    +0.211 HD
ENDBRANCH  21  34
BRANCH  22  36
ATOM     36  O   UNL     1      32.997  -5.570 -20.675  0.00  0.00    -0.379 OA
ATOM     37  H   UNL     1      33.941  -5.359 -20.758  0.00  0.00    +0.211 HD
ENDBRANCH  22  36
ENDBRANCH   1  23
TORSDOF 6
ENDMDL
MODEL 6
REMARK VINA RESULT:     -10.6      5.760     10.178
REMARK  Name = 9810927
REMARK  6 active torsions:
REMARK  status: ('A' for Active; 'I' for Inactive)
REMARK    1  A    between atoms: N_1  and  C_13
REMARK    2  A    between atoms: C_11  and  O_24
REMARK    3  A    between atoms: C_12  and  O_26
REMARK    4  A    between atoms: C_14  and  C_18
REMARK    5  A    between atoms: C_19  and  C_20
REMARK    6  A    between atoms: N_28  and  C_32
REMARK                            x       y       z     vdW  Elec       q    Type
REMARK                         _______ _______ _______ _____ _____    ______ ____
ROOT
ATOM      1  N   UNL     1      34.264 -20.165 -20.869  0.00  0.00    -0.247 N 
ATOM      2  N   UNL     1      32.282 -20.512 -19.907  0.00  0.00    -0.242 NA
ATOM      3  N   UNL     1      35.687 -21.419 -19.350  0.00  0.00    -0.228 NA
ATOM      4  N   UNL     1      34.387 -22.440 -17.555  0.00  0.00    -0.228 NA
ATOM      5  C   UNL     1      34.505 -20.947 -19.774  0.00  0.00    +0.152 C 
ATOM      6  C   UNL     1      32.914 -19.930 -20.905  0.00  0.00    +0.223 C 
ATOM      7  C   UNL     1      33.263 -21.151 -19.193  0.00  0.00    +0.140 C 
ATOM      8  C   UNL     1      33.229 -21.931 -18.041  0.00  0.00    +0.150 C 
ATOM      9  C   UNL     1      35.527 -22.156 -18.230  0.00  0.00    +0.253 C 
ATOM     10  N   UNL     1      32.012 -22.190 -17.385  0.00  0.00    -0.295 N 
ATOM     11  H   UNL     1      31.233 -21.775 -17.821  0.00  0.00    +0.154 HD
ENDROOT
BRANCH  10  14
ATOM     12 CL   UNL     1      30.651 -25.286 -12.527  0.00  0.00    -0.082 Cl
ATOM     13  F   UNL     1      29.368 -22.575 -16.606  0.00  0.00    -0.203 F 
ATOM     14  C   UNL     1      31.686 -22.928 -16.228  0.00  0.00    +0.077 C 
ATOM     15  C   UNL     1      30.351 -23.103 -15.864  0.00  0.00    +0.154 C 
ATOM     16  C   UNL     1      32.701 -23.481 -15.448  0.00  0.00    +0.018 C 
ATOM     17  C   UNL     1      30.031 -23.832 -14.719  0.00  0.00    +0.042 C 
ATOM     18  C   UNL     1      32.381 -24.210 -14.303  0.00  0.00    +0.013 C 
ATOM     19  C   UNL     1      31.047 -24.387 -13.939  0.00  0.00    +0.060 C 
ENDBRANCH  10  14
BRANCH   1  23
ATOM     20  O   UNL     1      35.558 -18.285 -21.542  0.00  0.00    -0.326 OA
ATOM     21  C   UNL     1      34.792 -19.733 -23.279  0.00  0.00    +0.187 C 
ATOM     22  C   UNL     1      34.322 -18.314 -23.539  0.00  0.00    +0.178 C 
ATOM     23  C   UNL     1      35.253 -19.665 -21.828  0.00  0.00    +0.225 C 
ATOM     24  C   UNL     1      35.313 -17.491 -22.726  0.00  0.00    +0.223 C 
BRANCH  24  28
ATOM     25  O   UNL     1      34.251 -15.340 -23.193  0.00  0.00    -0.421 OA
ATOM     26  N   UNL     1      34.998 -15.556 -21.095  0.00  0.00    -0.109 NA
ATOM     27  N   UNL     1      34.427 -14.302 -21.219  0.00  0.00    -0.112 NA
ATOM     28  C   UNL     1      34.870 -16.117 -22.268  0.00  0.00    +0.255 A 
ATOM     29  C   UNL     1      34.005 -14.221 -22.459  0.00  0.00    +0.225 A 
BRANCH  29  30
ATOM     30  C   UNL     1      33.319 -13.117 -23.143  0.00  0.00    +0.070 C 
ATOM     31  C   UNL     1      32.074 -12.591 -22.340  0.00  0.00    +0.009 C 
ATOM     32  C   UNL     1      32.793 -13.524 -24.568  0.00  0.00    +0.009 C 
ATOM     33  C   UNL     1      34.185 -11.824 -23.405  0.00  0.00    +0.009 C 
ENDBRANCH  29  30
ENDBRANCH  24  28
BRANCH  21  34
ATOM     34  O   UNL     1      35.927 -20.041 -24.085  0.00  0.00    -0.378 OA
ATOM     35  H   UNL     1      35.900 -19.510 -24.897  0.00  0.00    +0.211 HD
ENDBRANCH  21  34
BRANCH  22  36
ATOM     36  O   UNL     1      34.350 -17.977 -24.911  0.00  0.00    -0.379 OA
ATOM     37  H   UNL     1      34.223 -17.020 -25.012  0.00  0.00    +0.211 HD
ENDBRANCH  22  36
ENDBRANCH   1  23
TORSDOF 6
ENDMDL
MODEL 7
REMARK VINA RESULT:     -10.6     11.777     15.830
REMARK  Name = 9810927
REMARK  6 active torsions:
REMARK  status: ('A' for Active; 'I' for Inactive)
REMARK    1  A    between atoms: N_1  and  C_13
REMARK    2  A    between atoms: C_11  and  O_24
REMARK    3  A    between atoms: C_12  and  O_26
REMARK    4  A    between atoms: C_14  and  C_18
REMARK    5  A    between atoms: C_19  and  C_20
REMARK    6  A    between atoms: N_28  and  C_32
REMARK                            x       y       z     vdW  Elec       q    Type
REMARK                         _______ _______ _______ _____ _____    ______ ____
ROOT
ATOM      1  N   UNL     1      32.271  -9.972 -22.191  0.00  0.00    -0.247 N 
ATOM      2  N   UNL     1      33.529 -11.108 -23.642  0.00  0.00    -0.242 NA
ATOM      3  N   UNL     1      31.647 -11.774 -20.685  0.00  0.00    -0.228 NA
ATOM      4  N   UNL     1      32.621 -13.898 -21.390  0.00  0.00    -0.228 NA
ATOM      5  C   UNL     1      32.271 -11.270 -21.760  0.00  0.00    +0.152 C 
ATOM      6  C   UNL     1      33.039  -9.927 -23.325  0.00  0.00    +0.223 C 
ATOM      7  C   UNL     1      33.057 -11.956 -22.672  0.00  0.00    +0.140 C 
ATOM      8  C   UNL     1      33.224 -13.320 -22.458  0.00  0.00    +0.150 C 
ATOM      9  C   UNL     1      31.881 -13.100 -20.582  0.00  0.00    +0.253 C 
ATOM     10  N   UNL     1      34.005 -14.095 -23.333  0.00  0.00    -0.295 N 
ATOM     11  H   UNL     1      34.398 -13.578 -24.073  0.00  0.00    +0.154 HD
ENDROOT
BRANCH  10  14
ATOM     12 CL   UNL     1      35.411 -19.845 -23.441  0.00  0.00    -0.082 Cl
ATOM     13  F   UNL     1      33.265 -15.727 -25.462  0.00  0.00    -0.203 F 
ATOM     14  C   UNL     1      34.340 -15.465 -23.360  0.00  0.00    +0.077 C 
ATOM     15  C   UNL     1      33.954 -16.257 -24.441  0.00  0.00    +0.154 C 
ATOM     16  C   UNL     1      35.056 -16.027 -22.304  0.00  0.00    +0.018 C 
ATOM     17  C   UNL     1      34.285 -17.612 -24.466  0.00  0.00    +0.042 C 
ATOM     18  C   UNL     1      35.387 -17.381 -22.328  0.00  0.00    +0.013 C 
ATOM     19  C   UNL     1      35.003 -18.174 -23.409  0.00  0.00    +0.060 C 
ENDBRANCH  10  14
BRANCH   1  23
ATOM     20  O   UNL     1      31.410  -7.781 -22.534  0.00  0.00    -0.326 OA
ATOM     21  C   UNL     1      32.327  -8.245 -20.379  0.00  0.00    +0.187 C 
ATOM     22  C   UNL     1      33.025  -7.047 -20.996  0.00  0.00    +0.178 C 
ATOM     23  C   UNL     1      31.582  -8.838 -21.569  0.00  0.00    +0.225 C 
ATOM     24  C   UNL     1      32.003  -6.567 -22.017  0.00  0.00    +0.223 C 
BRANCH  24  28
ATOM     25  O   UNL     1      31.703  -4.795 -23.672  0.00  0.00    -0.421 OA
ATOM     26  N   UNL     1      33.645  -5.892 -23.848  0.00  0.00    -0.109 NA
ATOM     27  N   UNL     1      33.608  -4.926 -24.838  0.00  0.00    -0.112 NA
ATOM     28  C   UNL     1      32.516  -5.773 -23.200  0.00  0.00    +0.255 A 
ATOM     29  C   UNL     1      32.458  -4.312 -24.697  0.00  0.00    +0.225 A 
BRANCH  29  30
ATOM     30  C   UNL     1      31.890  -3.200 -25.471  0.00  0.00    +0.070 C 
ATOM     31  C   UNL     1      32.726  -1.876 -25.329  0.00  0.00    +0.009 C 
ATOM     32  C   UNL     1      30.420  -2.849 -25.035  0.00  0.00    +0.009 C 
ATOM     33  C   UNL     1      31.787  -3.427 -27.030  0.00  0.00    +0.009 C 
ENDBRANCH  29  30
ENDBRANCH  24  28
BRANCH  21  34
ATOM     34  O   UNL     1      31.357  -7.823 -19.422  0.00  0.00    -0.378 OA
ATOM     35  H   UNL     1      30.592  -7.442 -19.883  0.00  0.00    +0.211 HD
ENDBRANCH  21  34
BRANCH  22  36
ATOM     36  O   UNL     1      33.332  -6.049 -20.042  0.00  0.00    -0.379 OA
ATOM     37  H   UNL     1      34.149  -5.593 -20.303  0.00  0.00    +0.211 HD
ENDBRANCH  22  36
ENDBRANCH   1  23
TORSDOF 6
ENDMDL
MODEL 8
REMARK VINA RESULT:     -10.4     11.584     15.471
REMARK  Name = 9810927
REMARK  6 active torsions:
REMARK  status: ('A' for Active; 'I' for Inactive)
REMARK    1  A    between atoms: N_1  and  C_13
REMARK    2  A    between atoms: C_11  and  O_24
REMARK    3  A    between atoms: C_12  and  O_26
REMARK    4  A    between atoms: C_14  and  C_18
REMARK    5  A    between atoms: C_19  and  C_20
REMARK    6  A    between atoms: N_28  and  C_32
REMARK                            x       y       z     vdW  Elec       q    Type
REMARK                         _______ _______ _______ _____ _____    ______ ____
ROOT
ATOM      1  N   UNL     1      32.252 -10.192 -21.772  0.00  0.00    -0.247 N 
ATOM      2  N   UNL     1      33.400 -11.230 -23.379  0.00  0.00    -0.242 NA
ATOM      3  N   UNL     1      31.727 -12.090 -20.348  0.00  0.00    -0.228 NA
ATOM      4  N   UNL     1      32.640 -14.162 -21.257  0.00  0.00    -0.228 NA
ATOM      5  C   UNL     1      32.277 -11.516 -21.429  0.00  0.00    +0.152 C 
ATOM      6  C   UNL     1      32.939 -10.072 -22.952  0.00  0.00    +0.223 C 
ATOM      7  C   UNL     1      32.994 -12.140 -22.437  0.00  0.00    +0.140 C 
ATOM      8  C   UNL     1      33.169 -13.516 -22.324  0.00  0.00    +0.150 C 
ATOM      9  C   UNL     1      31.962 -13.420 -20.349  0.00  0.00    +0.253 C 
ATOM     10  N   UNL     1      33.885 -14.231 -23.301  0.00  0.00    -0.295 N 
ATOM     11  H   UNL     1      34.227 -13.666 -24.031  0.00  0.00    +0.154 HD
ENDROOT
BRANCH  10  14
ATOM     12 CL   UNL     1      35.248 -19.960 -23.903  0.00  0.00    -0.082 Cl
ATOM     13  F   UNL     1      35.291 -15.600 -21.328  0.00  0.00    -0.203 F 
ATOM     14  C   UNL     1      34.210 -15.596 -23.442  0.00  0.00    +0.077 C 
ATOM     15  C   UNL     1      34.916 -16.255 -22.436  0.00  0.00    +0.154 C 
ATOM     16  C   UNL     1      33.826 -16.286 -24.591  0.00  0.00    +0.018 C 
ATOM     17  C   UNL     1      35.237 -17.604 -22.578  0.00  0.00    +0.042 C 
ATOM     18  C   UNL     1      34.147 -17.635 -24.734  0.00  0.00    +0.013 C 
ATOM     19  C   UNL     1      34.851 -18.295 -23.728  0.00  0.00    +0.060 C 
ENDBRANCH  10  14
BRANCH   1  23
ATOM     20  O   UNL     1      31.339  -8.000 -21.918  0.00  0.00    -0.326 OA
ATOM     21  C   UNL     1      32.461  -8.559 -19.886  0.00  0.00    +0.187 C 
ATOM     22  C   UNL     1      33.085  -7.321 -20.502  0.00  0.00    +0.178 C 
ATOM     23  C   UNL     1      31.613  -9.103 -21.030  0.00  0.00    +0.225 C 
ATOM     24  C   UNL     1      31.966  -6.805 -21.397  0.00  0.00    +0.223 C 
BRANCH  24  28
ATOM     25  O   UNL     1      31.805  -4.707 -22.638  0.00  0.00    -0.421 OA
ATOM     26  N   UNL     1      33.161  -6.220 -23.573  0.00  0.00    -0.109 NA
ATOM     27  N   UNL     1      33.163  -5.092 -24.373  0.00  0.00    -0.112 NA
ATOM     28  C   UNL     1      32.357  -5.945 -22.580  0.00  0.00    +0.255 A 
ATOM     29  C   UNL     1      32.358  -4.236 -23.789  0.00  0.00    +0.225 A 
BRANCH  29  30
ATOM     30  C   UNL     1      31.986  -2.875 -24.195  0.00  0.00    +0.070 C 
ATOM     31  C   UNL     1      30.531  -2.798 -24.786  0.00  0.00    +0.009 C 
ATOM     32  C   UNL     1      32.946  -2.288 -25.294  0.00  0.00    +0.009 C 
ATOM     33  C   UNL     1      31.996  -1.787 -23.052  0.00  0.00    +0.009 C 
ENDBRANCH  29  30
ENDBRANCH  24  28
BRANCH  21  34
ATOM     34  O   UNL     1      31.581  -8.201 -18.821  0.00  0.00    -0.378 OA
ATOM     35  H   UNL     1      31.321  -7.270 -18.916  0.00  0.00    +0.211 HD
ENDBRANCH  21  34
BRANCH  22  36
ATOM     36  O   UNL     1      33.471  -6.369 -19.531  0.00  0.00    -0.379 OA
ATOM     37  H   UNL     1      33.109  -6.623 -18.667  0.00  0.00    +0.211 HD
ENDBRANCH  22  36
ENDBRANCH   1  23
TORSDOF 6
ENDMDL
MODEL 9
REMARK VINA RESULT:      -9.8     12.611     17.067
REMARK  Name = 9810927
REMARK  6 active torsions:
REMARK  status: ('A' for Active; 'I' for Inactive)
REMARK    1  A    between atoms: N_1  and  C_13
REMARK    2  A    between atoms: C_11  and  O_24
REMARK    3  A    between atoms: C_12  and  O_26
REMARK    4  A    between atoms: C_14  and  C_18
REMARK    5  A    between atoms: C_19  and  C_20
REMARK    6  A    between atoms: N_28  and  C_32
REMARK                            x       y       z     vdW  Elec       q    Type
REMARK                         _______ _______ _______ _____ _____    ______ ____
ROOT
ATOM      1  N   UNL     1      32.263  -8.853 -23.276  0.00  0.00    -0.247 N 
ATOM      2  N   UNL     1      34.131 -10.040 -23.555  0.00  0.00    -0.242 NA
ATOM      3  N   UNL     1      30.855 -10.536 -22.234  0.00  0.00    -0.228 NA
ATOM      4  N   UNL     1      32.045 -12.651 -21.971  0.00  0.00    -0.228 NA
ATOM      5  C   UNL     1      32.000 -10.100 -22.780  0.00  0.00    +0.152 C 
ATOM      6  C   UNL     1      33.556  -8.868 -23.730  0.00  0.00    +0.223 C 
ATOM      7  C   UNL     1      33.171 -10.818 -22.962  0.00  0.00    +0.140 C 
ATOM      8  C   UNL     1      33.169 -12.142 -22.533  0.00  0.00    +0.150 C 
ATOM      9  C   UNL     1      30.974 -11.828 -21.858  0.00  0.00    +0.253 C 
ATOM     10  N   UNL     1      34.313 -12.945 -22.677  0.00  0.00    -0.295 N 
ATOM     11  H   UNL     1      35.073 -12.478 -23.095  0.00  0.00    +0.154 HD
ENDROOT
BRANCH  10  14
ATOM     12 CL   UNL     1      35.480 -18.578 -21.277  0.00  0.00    -0.082 Cl
ATOM     13  F   UNL     1      34.417 -13.787 -20.026  0.00  0.00    -0.203 F 
ATOM     14  C   UNL     1      34.591 -14.287 -22.341  0.00  0.00    +0.077 C 
ATOM     15  C   UNL     1      34.636 -14.678 -21.004  0.00  0.00    +0.154 C 
ATOM     16  C   UNL     1      34.821 -15.222 -23.350  0.00  0.00    +0.018 C 
ATOM     17  C   UNL     1      34.911 -16.005 -20.675  0.00  0.00    +0.042 C 
ATOM     18  C   UNL     1      35.097 -16.548 -23.022  0.00  0.00    +0.013 C 
ATOM     19  C   UNL     1      35.141 -16.941 -21.684  0.00  0.00    +0.060 C 
ENDBRANCH  10  14
BRANCH   1  23
ATOM     20  O   UNL     1      31.520  -6.990 -24.556  0.00  0.00    -0.326 OA
ATOM     21  C   UNL     1      31.550  -6.714 -22.185  0.00  0.00    +0.187 C 
ATOM     22  C   UNL     1      32.386  -5.635 -22.846  0.00  0.00    +0.178 C 
ATOM     23  C   UNL     1      31.346  -7.711 -23.320  0.00  0.00    +0.225 C 
ATOM     24  C   UNL     1      31.821  -5.607 -24.260  0.00  0.00    +0.223 C 
BRANCH  24  28
ATOM     25  O   UNL     1      32.183  -5.030 -26.606  0.00  0.00    -0.421 OA
ATOM     26  N   UNL     1      33.964  -4.692 -25.296  0.00  0.00    -0.109 NA
ATOM     27  N   UNL     1      34.307  -4.328 -26.586  0.00  0.00    -0.112 NA
ATOM     28  C   UNL     1      32.722  -5.092 -25.362  0.00  0.00    +0.255 A 
ATOM     29  C   UNL     1      33.238  -4.543 -27.315  0.00  0.00    +0.225 A 
BRANCH  29  30
ATOM     30  C   UNL     1      33.028  -4.330 -28.753  0.00  0.00    +0.070 C 
ATOM     31  C   UNL     1      31.649  -3.643 -29.067  0.00  0.00    +0.009 C 
ATOM     32  C   UNL     1      33.055  -5.672 -29.573  0.00  0.00    +0.009 C 
ATOM     33  C   UNL     1      34.090  -3.414 -29.477  0.00  0.00    +0.009 C 
ENDBRANCH  29  30
ENDBRANCH  24  28
BRANCH  21  34
ATOM     34  O   UNL     1      30.270  -6.202 -21.817  0.00  0.00    -0.378 OA
ATOM     35  H   UNL     1      29.595  -6.559 -22.416  0.00  0.00    +0.211 HD
ENDBRANCH  21  34
BRANCH  22  36
ATOM     36  O   UNL     1      32.264  -4.383 -22.200  0.00  0.00    -0.379 OA
ATOM     37  H   UNL     1      33.145  -4.057 -21.957  0.00  0.00    +0.211 HD
ENDBRANCH  22  36
ENDBRANCH   1  23
TORSDOF 6
ENDMDL
