MODEL 1
REMARK VINA RESULT:     -10.6      0.000      0.000
REMARK  Name = 11547499
REMARK  10 active torsions:
REMARK  status: ('A' for Active; 'I' for Inactive)
REMARK    1  A    between atoms: C_2  and  C_25
REMARK    2  A    between atoms: C_5  and  N_10
REMARK    3  A    between atoms: N_11  and  C_16
REMARK    4  A    between atoms: C_16  and  C_17
REMARK    5  A    between atoms: C_17  and  O_18
REMARK    6  A    between atoms: C_17  and  C_20
REMARK    7  A    between atoms: C_20  and  O_21
REMARK    8  A    between atoms: N_24  and  C_27
REMARK    9  A    between atoms: C_27  and  C_28
REMARK   10  A    between atoms: C_28  and  O_35
REMARK                            x       y       z     vdW  Elec       q    Type
REMARK                         _______ _______ _______ _____ _____    ______ ____
ROOT
ATOM      1 CL   UNL     1      31.122 -10.382 -18.891  0.00  0.00    -0.082 Cl
ATOM      2  C   UNL     1      31.941 -11.322 -21.318  0.00  0.00    +0.065 C 
ATOM      3  C   UNL     1      32.521 -12.287 -22.141  0.00  0.00    +0.022 C 
ATOM      4  C   UNL     1      31.835 -11.549 -19.946  0.00  0.00    +0.062 C 
ATOM      5  C   UNL     1      32.996 -13.478 -21.593  0.00  0.00    +0.078 C 
ATOM      6  C   UNL     1      32.310 -12.741 -19.397  0.00  0.00    +0.013 C 
ATOM      7  C   UNL     1      32.890 -13.705 -20.220  0.00  0.00    +0.018 C 
ENDROOT
BRANCH   5  10
ATOM      8  O   UNL     1      34.870 -15.592 -20.833  0.00  0.00    -0.250 OA
ATOM      9  O   UNL     1      34.824 -17.079 -25.229  0.00  0.00    -0.268 OA
ATOM     10  N   UNL     1      33.598 -14.476 -22.445  0.00  0.00    -0.142 N 
ATOM     11  N   UNL     1      34.854 -16.431 -22.969  0.00  0.00    -0.205 N 
ATOM     12  N   UNL     1      33.271 -14.320 -23.762  0.00  0.00    -0.164 NA
ATOM     13  C   UNL     1      34.453 -15.498 -21.991  0.00  0.00    +0.336 C 
ATOM     14  C   UNL     1      34.521 -16.338 -24.305  0.00  0.00    +0.277 C 
ATOM     15  C   UNL     1      33.690 -15.164 -24.634  0.00  0.00    +0.176 C 
BRANCH  11  16
ATOM     16  C   UNL     1      35.702 -17.539 -22.542  0.00  0.00    +0.135 C 
BRANCH  16  17
ATOM     17  C   UNL     1      34.912 -18.817 -22.264  0.00  0.00    +0.160 C 
BRANCH  17  18
ATOM     18  O   UNL     1      34.879 -19.623 -23.443  0.00  0.00    -0.380 OA
ATOM     19  H   UNL     1      35.723 -20.091 -23.538  0.00  0.00    +0.211 HD
ENDBRANCH  17  18
BRANCH  17  20
ATOM     20  C   UNL     1      35.499 -19.648 -21.127  0.00  0.00    +0.173 C 
BRANCH  20  21
ATOM     21  O   UNL     1      34.609 -19.599 -20.015  0.00  0.00    -0.348 OA
ATOM     22  C   UNL     1      33.454 -20.392 -20.241  0.00  0.00    +0.174 C 
ENDBRANCH  20  21
ENDBRANCH  17  20
ENDBRANCH  16  17
ENDBRANCH  11  16
ENDBRANCH   5  10
BRANCH   2  25
ATOM     23  O   UNL     1      30.449 -10.109 -22.659  0.00  0.00    -0.270 OA
ATOM     24  N   UNL     1      32.162  -8.907 -21.656  0.00  0.00    -0.299 N 
ATOM     25  C   UNL     1      31.448 -10.070 -21.947  0.00  0.00    +0.247 C 
ATOM     26  H   UNL     1      32.952  -8.974 -21.073  0.00  0.00    +0.150 HD
BRANCH  24  27
ATOM     27  C   UNL     1      31.797  -7.623 -22.165  0.00  0.00    +0.117 C 
BRANCH  27  28
ATOM     28  C   UNL     1      33.032  -6.722 -22.305  0.00  0.00    +0.106 C 
ATOM     29  C   UNL     1      34.177  -7.533 -22.934  0.00  0.00    +0.029 C 
ATOM     30  C   UNL     1      32.676  -5.412 -23.029  0.00  0.00    +0.029 C 
ATOM     31  C   UNL     1      35.343  -6.698 -23.466  0.00  0.00    +0.002 C 
ATOM     32  C   UNL     1      32.704  -5.475 -24.555  0.00  0.00    +0.002 C 
ATOM     33  C   UNL     1      35.137  -6.257 -24.915  0.00  0.00    +0.000 C 
ATOM     34  C   UNL     1      34.089  -5.170 -25.125  0.00  0.00    +0.000 C 
BRANCH  28  35
ATOM     35  O   UNL     1      33.443  -6.370 -20.975  0.00  0.00    -0.385 OA
ATOM     36  H   UNL     1      34.168  -6.952 -20.696  0.00  0.00    +0.210 HD
ENDBRANCH  28  35
ENDBRANCH  27  28
ENDBRANCH  24  27
ENDBRANCH   2  25
TORSDOF 10
ENDMDL
MODEL 2
REMARK VINA RESULT:     -10.2      7.878     12.286
REMARK  Name = 11547499
REMARK  10 active torsions:
REMARK  status: ('A' for Active; 'I' for Inactive)
REMARK    1  A    between atoms: C_2  and  C_25
REMARK    2  A    between atoms: C_5  and  N_10
REMARK    3  A    between atoms: N_11  and  C_16
REMARK    4  A    between atoms: C_16  and  C_17
REMARK    5  A    between atoms: C_17  and  O_18
REMARK    6  A    between atoms: C_17  and  C_20
REMARK    7  A    between atoms: C_20  and  O_21
REMARK    8  A    between atoms: N_24  and  C_27
REMARK    9  A    between atoms: C_27  and  C_28
REMARK   10  A    between atoms: C_28  and  O_35
REMARK                            x       y       z     vdW  Elec       q    Type
REMARK                         _______ _______ _______ _____ _____    ______ ____
ROOT
ATOM      1 CL   UNL     1      37.223 -21.822 -16.793  0.00  0.00    -0.082 Cl
ATOM      2  C   UNL     1      34.674 -22.625 -17.345  0.00  0.00    +0.065 C 
ATOM      3  C   UNL     1      33.415 -23.098 -16.972  0.00  0.00    +0.022 C 
ATOM      4  C   UNL     1      35.653 -22.409 -16.375  0.00  0.00    +0.062 C 
ATOM      5  C   UNL     1      33.136 -23.354 -15.630  0.00  0.00    +0.078 C 
ATOM      6  C   UNL     1      35.373 -22.665 -15.032  0.00  0.00    +0.013 C 
ATOM      7  C   UNL     1      34.115 -23.137 -14.660  0.00  0.00    +0.018 C 
ENDROOT
BRANCH   5  10
ATOM      8  O   UNL     1      30.526 -22.508 -16.645  0.00  0.00    -0.250 OA
ATOM      9  O   UNL     1      28.541 -25.689 -13.911  0.00  0.00    -0.268 OA
ATOM     10  N   UNL     1      31.834 -23.845 -15.244  0.00  0.00    -0.142 N 
ATOM     11  N   UNL     1      29.469 -24.098 -15.373  0.00  0.00    -0.205 N 
ATOM     12  N   UNL     1      31.888 -24.761 -14.232  0.00  0.00    -0.164 NA
ATOM     13  C   UNL     1      30.622 -23.423 -15.822  0.00  0.00    +0.336 C 
ATOM     14  C   UNL     1      29.476 -25.056 -14.379  0.00  0.00    +0.277 C 
ATOM     15  C   UNL     1      30.814 -25.326 -13.817  0.00  0.00    +0.176 C 
BRANCH  11  16
ATOM     16  C   UNL     1      28.191 -23.734 -15.974  0.00  0.00    +0.135 C 
BRANCH  16  17
ATOM     17  C   UNL     1      27.409 -22.722 -15.138  0.00  0.00    +0.160 C 
BRANCH  17  18
ATOM     18  O   UNL     1      28.285 -21.679 -14.708  0.00  0.00    -0.380 OA
ATOM     19  H   UNL     1      27.813 -21.092 -14.097  0.00  0.00    +0.211 HD
ENDBRANCH  17  18
BRANCH  17  20
ATOM     20  C   UNL     1      26.243 -22.093 -15.895  0.00  0.00    +0.173 C 
BRANCH  20  21
ATOM     21  O   UNL     1      26.756 -21.374 -17.013  0.00  0.00    -0.348 OA
ATOM     22  C   UNL     1      25.866 -21.428 -18.116  0.00  0.00    +0.174 C 
ENDBRANCH  20  21
ENDBRANCH  17  20
ENDBRANCH  16  17
ENDBRANCH  11  16
ENDBRANCH   5  10
BRANCH   2  25
ATOM     23  O   UNL     1      34.668 -23.240 -19.607  0.00  0.00    -0.270 OA
ATOM     24  N   UNL     1      35.427 -21.104 -19.110  0.00  0.00    -0.299 N 
ATOM     25  C   UNL     1      34.925 -22.365 -18.786  0.00  0.00    +0.247 C 
ATOM     26  H   UNL     1      35.603 -20.467 -18.381  0.00  0.00    +0.150 HD
BRANCH  24  27
ATOM     27  C   UNL     1      35.696 -20.697 -20.452  0.00  0.00    +0.117 C 
BRANCH  27  28
ATOM     28  C   UNL     1      34.822 -19.495 -20.841  0.00  0.00    +0.106 C 
ATOM     29  C   UNL     1      35.657 -18.208 -20.724  0.00  0.00    +0.029 C 
ATOM     30  C   UNL     1      34.151 -19.724 -22.206  0.00  0.00    +0.029 C 
ATOM     31  C   UNL     1      35.053 -16.983 -21.412  0.00  0.00    +0.002 C 
ATOM     32  C   UNL     1      34.992 -19.348 -23.425  0.00  0.00    +0.002 C 
ATOM     33  C   UNL     1      35.467 -16.871 -22.880  0.00  0.00    +0.000 C 
ATOM     34  C   UNL     1      34.821 -17.882 -23.820  0.00  0.00    +0.000 C 
BRANCH  28  35
ATOM     35  O   UNL     1      33.773 -19.409 -19.864  0.00  0.00    -0.385 OA
ATOM     36  H   UNL     1      33.511 -18.482 -19.752  0.00  0.00    +0.210 HD
ENDBRANCH  28  35
ENDBRANCH  27  28
ENDBRANCH  24  27
ENDBRANCH   2  25
TORSDOF 10
ENDMDL
MODEL 3
REMARK VINA RESULT:     -10.0      1.404      2.122
REMARK  Name = 11547499
REMARK  10 active torsions:
REMARK  status: ('A' for Active; 'I' for Inactive)
REMARK    1  A    between atoms: C_2  and  C_25
REMARK    2  A    between atoms: C_5  and  N_10
REMARK    3  A    between atoms: N_11  and  C_16
REMARK    4  A    between atoms: C_16  and  C_17
REMARK    5  A    between atoms: C_17  and  O_18
REMARK    6  A    between atoms: C_17  and  C_20
REMARK    7  A    between atoms: C_20  and  O_21
REMARK    8  A    between atoms: N_24  and  C_27
REMARK    9  A    between atoms: C_27  and  C_28
REMARK   10  A    between atoms: C_28  and  O_35
REMARK                            x       y       z     vdW  Elec       q    Type
REMARK                         _______ _______ _______ _____ _____    ______ ____
ROOT
ATOM      1 CL   UNL     1      31.228  -9.682 -20.299  0.00  0.00    -0.082 Cl
ATOM      2  C   UNL     1      32.515 -10.937 -22.352  0.00  0.00    +0.065 C 
ATOM      3  C   UNL     1      33.068 -12.061 -22.965  0.00  0.00    +0.022 C 
ATOM      4  C   UNL     1      31.925 -11.048 -21.093  0.00  0.00    +0.062 C 
ATOM      5  C   UNL     1      33.031 -13.297 -22.320  0.00  0.00    +0.078 C 
ATOM      6  C   UNL     1      31.888 -12.285 -20.447  0.00  0.00    +0.013 C 
ATOM      7  C   UNL     1      32.441 -13.409 -21.060  0.00  0.00    +0.018 C 
ENDROOT
BRANCH   5  10
ATOM      8  O   UNL     1      34.899 -15.231 -21.166  0.00  0.00    -0.250 OA
ATOM      9  O   UNL     1      34.744 -17.607 -25.149  0.00  0.00    -0.268 OA
ATOM     10  N   UNL     1      33.605 -14.460 -22.953  0.00  0.00    -0.142 N 
ATOM     11  N   UNL     1      34.829 -16.500 -23.077  0.00  0.00    -0.205 N 
ATOM     12  N   UNL     1      33.252 -14.580 -24.268  0.00  0.00    -0.164 NA
ATOM     13  C   UNL     1      34.458 -15.377 -22.310  0.00  0.00    +0.336 C 
ATOM     14  C   UNL     1      34.469 -16.684 -24.396  0.00  0.00    +0.277 C 
ATOM     15  C   UNL     1      33.643 -15.594 -24.950  0.00  0.00    +0.176 C 
BRANCH  11  16
ATOM     16  C   UNL     1      35.674 -17.506 -22.442  0.00  0.00    +0.135 C 
BRANCH  16  17
ATOM     17  C   UNL     1      34.902 -18.761 -22.041  0.00  0.00    +0.160 C 
BRANCH  17  18
ATOM     18  O   UNL     1      34.976 -19.724 -23.093  0.00  0.00    -0.380 OA
ATOM     19  H   UNL     1      35.265 -20.576 -22.732  0.00  0.00    +0.211 HD
ENDBRANCH  17  18
BRANCH  17  20
ATOM     20  C   UNL     1      35.427 -19.404 -20.760  0.00  0.00    +0.173 C 
BRANCH  20  21
ATOM     21  O   UNL     1      34.717 -20.618 -20.530  0.00  0.00    -0.348 OA
ATOM     22  C   UNL     1      33.394 -20.367 -20.082  0.00  0.00    +0.174 C 
ENDBRANCH  20  21
ENDBRANCH  17  20
ENDBRANCH  16  17
ENDBRANCH  11  16
ENDBRANCH   5  10
BRANCH   2  25
ATOM     23  O   UNL     1      32.323  -9.616 -24.279  0.00  0.00    -0.270 OA
ATOM     24  N   UNL     1      32.903  -8.519 -22.318  0.00  0.00    -0.299 N 
ATOM     25  C   UNL     1      32.576  -9.642 -23.078  0.00  0.00    +0.247 C 
ATOM     26  H   UNL     1      33.091  -8.639 -21.359  0.00  0.00    +0.150 HD
BRANCH  24  27
ATOM     27  C   UNL     1      32.977  -7.203 -22.867  0.00  0.00    +0.117 C 
BRANCH  27  28
ATOM     28  C   UNL     1      31.597  -6.531 -22.857  0.00  0.00    +0.106 C 
ATOM     29  C   UNL     1      31.352  -5.906 -21.473  0.00  0.00    +0.029 C 
ATOM     30  C   UNL     1      31.445  -5.571 -24.050  0.00  0.00    +0.029 C 
ATOM     31  C   UNL     1      30.199  -4.904 -21.412  0.00  0.00    +0.002 C 
ATOM     32  C   UNL     1      31.994  -4.162 -23.835  0.00  0.00    +0.002 C 
ATOM     33  C   UNL     1      30.640  -3.479 -21.747  0.00  0.00    +0.000 C 
ATOM     34  C   UNL     1      30.961  -3.222 -23.215  0.00  0.00    +0.000 C 
BRANCH  28  35
ATOM     35  O   UNL     1      30.625  -7.573 -23.029  0.00  0.00    -0.385 OA
ATOM     36  H   UNL     1      31.042  -8.434 -22.869  0.00  0.00    +0.210 HD
ENDBRANCH  28  35
ENDBRANCH  27  28
ENDBRANCH  24  27
ENDBRANCH   2  25
TORSDOF 10
ENDMDL
MODEL 4
REMARK VINA RESULT:      -9.8      2.572     10.419
REMARK  Name = 11547499
REMARK  10 active torsions:
REMARK  status: ('A' for Active; 'I' for Inactive)
REMARK    1  A    between atoms: C_2  and  C_25
REMARK    2  A    between atoms: C_5  and  N_10
REMARK    3  A    between atoms: N_11  and  C_16
REMARK    4  A    between atoms: C_16  and  C_17
REMARK    5  A    between atoms: C_17  and  O_18
REMARK    6  A    between atoms: C_17  and  C_20
REMARK    7  A    between atoms: C_20  and  O_21
REMARK    8  A    between atoms: N_24  and  C_27
REMARK    9  A    between atoms: C_27  and  C_28
REMARK   10  A    between atoms: C_28  and  O_35
REMARK                            x       y       z     vdW  Elec       q    Type
REMARK                         _______ _______ _______ _____ _____    ______ ____
ROOT
ATOM      1 CL   UNL     1      34.810 -17.323 -24.076  0.00  0.00    -0.082 Cl
ATOM      2  C   UNL     1      34.285 -15.166 -22.491  0.00  0.00    +0.065 C 
ATOM      3  C   UNL     1      33.798 -13.876 -22.274  0.00  0.00    +0.022 C 
ATOM      4  C   UNL     1      34.221 -15.730 -23.765  0.00  0.00    +0.062 C 
ATOM      5  C   UNL     1      33.248 -13.151 -23.331  0.00  0.00    +0.078 C 
ATOM      6  C   UNL     1      33.671 -15.004 -24.822  0.00  0.00    +0.013 C 
ATOM      7  C   UNL     1      33.185 -13.715 -24.605  0.00  0.00    +0.018 C 
ENDROOT
BRANCH   5  10
ATOM      8  O   UNL     1      34.587 -10.612 -23.899  0.00  0.00    -0.250 OA
ATOM      9  O   UNL     1      30.790  -8.392 -22.420  0.00  0.00    -0.268 OA
ATOM     10  N   UNL     1      32.747 -11.816 -23.106  0.00  0.00    -0.142 N 
ATOM     11  N   UNL     1      32.727  -9.438 -23.246  0.00  0.00    -0.205 N 
ATOM     12  N   UNL     1      31.529 -11.801 -22.489  0.00  0.00    -0.164 NA
ATOM     13  C   UNL     1      33.434 -10.639 -23.459  0.00  0.00    +0.336 C 
ATOM     14  C   UNL     1      31.480  -9.373 -22.660  0.00  0.00    +0.277 C 
ATOM     15  C   UNL     1      30.931 -10.686 -22.271  0.00  0.00    +0.176 C 
BRANCH  11  16
ATOM     16  C   UNL     1      33.374  -8.191 -23.639  0.00  0.00    +0.135 C 
BRANCH  16  17
ATOM     17  C   UNL     1      34.025  -7.464 -22.464  0.00  0.00    +0.160 C 
BRANCH  17  18
ATOM     18  O   UNL     1      35.401  -7.218 -22.759  0.00  0.00    -0.380 OA
ATOM     19  H   UNL     1      35.949  -7.513 -22.015  0.00  0.00    +0.211 HD
ENDBRANCH  17  18
BRANCH  17  20
ATOM     20  C   UNL     1      33.355  -6.132 -22.138  0.00  0.00    +0.173 C 
BRANCH  20  21
ATOM     21  O   UNL     1      32.679  -6.251 -20.889  0.00  0.00    -0.348 OA
ATOM     22  C   UNL     1      33.262  -7.261 -20.080  0.00  0.00    +0.174 C 
ENDBRANCH  20  21
ENDBRANCH  17  20
ENDBRANCH  16  17
ENDBRANCH  11  16
ENDBRANCH   5  10
BRANCH   2  25
ATOM     23  O   UNL     1      34.881 -15.362 -20.232  0.00  0.00    -0.270 OA
ATOM     24  N   UNL     1      35.324 -17.191 -21.589  0.00  0.00    -0.299 N 
ATOM     25  C   UNL     1      34.859 -15.901 -21.335  0.00  0.00    +0.247 C 
ATOM     26  H   UNL     1      35.265 -17.539 -22.508  0.00  0.00    +0.150 HD
BRANCH  24  27
ATOM     27  C   UNL     1      35.880 -18.031 -20.576  0.00  0.00    +0.117 C 
BRANCH  27  28
ATOM     28  C   UNL     1      35.632 -19.511 -20.900  0.00  0.00    +0.106 C 
ATOM     29  C   UNL     1      36.298 -20.380 -19.819  0.00  0.00    +0.029 C 
ATOM     30  C   UNL     1      34.136 -19.780 -21.132  0.00  0.00    +0.029 C 
ATOM     31  C   UNL     1      35.845 -21.841 -19.796  0.00  0.00    +0.002 C 
ATOM     32  C   UNL     1      33.312 -20.047 -19.874  0.00  0.00    +0.002 C 
ATOM     33  C   UNL     1      34.613 -22.060 -18.918  0.00  0.00    +0.000 C 
ATOM     34  C   UNL     1      33.303 -21.524 -19.486  0.00  0.00    +0.000 C 
BRANCH  28  35
ATOM     35  O   UNL     1      36.307 -19.785 -22.137  0.00  0.00    -0.385 OA
ATOM     36  H   UNL     1      37.042 -19.162 -22.250  0.00  0.00    +0.210 HD
ENDBRANCH  28  35
ENDBRANCH  27  28
ENDBRANCH  24  27
ENDBRANCH   2  25
TORSDOF 10
ENDMDL
MODEL 5
REMARK VINA RESULT:      -9.7      7.826     14.304
REMARK  Name = 11547499
REMARK  10 active torsions:
REMARK  status: ('A' for Active; 'I' for Inactive)
REMARK    1  A    between atoms: C_2  and  C_25
REMARK    2  A    between atoms: C_5  and  N_10
REMARK    3  A    between atoms: N_11  and  C_16
REMARK    4  A    between atoms: C_16  and  C_17
REMARK    5  A    between atoms: C_17  and  O_18
REMARK    6  A    between atoms: C_17  and  C_20
REMARK    7  A    between atoms: C_20  and  O_21
REMARK    8  A    between atoms: N_24  and  C_27
REMARK    9  A    between atoms: C_27  and  C_28
REMARK   10  A    between atoms: C_28  and  O_35
REMARK                            x       y       z     vdW  Elec       q    Type
REMARK                         _______ _______ _______ _____ _____    ______ ____
ROOT
ATOM      1 CL   UNL     1      30.327 -24.271 -13.612  0.00  0.00    -0.082 Cl
ATOM      2  C   UNL     1      32.877 -23.741 -14.426  0.00  0.00    +0.065 C 
ATOM      3  C   UNL     1      33.811 -23.279 -15.354  0.00  0.00    +0.022 C 
ATOM      4  C   UNL     1      31.517 -23.711 -14.732  0.00  0.00    +0.062 C 
ATOM      5  C   UNL     1      33.385 -22.787 -16.587  0.00  0.00    +0.078 C 
ATOM      6  C   UNL     1      31.090 -23.219 -15.967  0.00  0.00    +0.013 C 
ATOM      7  C   UNL     1      32.024 -22.758 -16.894  0.00  0.00    +0.018 C 
ENDROOT
BRANCH   5  10
ATOM      8  O   UNL     1      32.918 -22.015 -19.370  0.00  0.00    -0.250 OA
ATOM      9  O   UNL     1      37.410 -20.901 -19.712  0.00  0.00    -0.268 OA
ATOM     10  N   UNL     1      34.351 -22.311 -17.548  0.00  0.00    -0.142 N 
ATOM     11  N   UNL     1      35.110 -21.379 -19.605  0.00  0.00    -0.205 N 
ATOM     12  N   UNL     1      35.628 -22.310 -17.064  0.00  0.00    -0.164 NA
ATOM     13  C   UNL     1      34.036 -21.906 -18.859  0.00  0.00    +0.336 C 
ATOM     14  C   UNL     1      36.411 -21.323 -19.147  0.00  0.00    +0.277 C 
ATOM     15  C   UNL     1      36.591 -21.863 -17.785  0.00  0.00    +0.176 C 
BRANCH  11  16
ATOM     16  C   UNL     1      34.829 -20.900 -20.953  0.00  0.00    +0.135 C 
BRANCH  16  17
ATOM     17  C   UNL     1      34.699 -19.379 -21.027  0.00  0.00    +0.160 C 
BRANCH  17  18
ATOM     18  O   UNL     1      35.862 -18.773 -20.462  0.00  0.00    -0.380 OA
ATOM     19  H   UNL     1      36.627 -18.947 -21.033  0.00  0.00    +0.211 HD
ENDBRANCH  17  18
BRANCH  17  20
ATOM     20  C   UNL     1      34.527 -18.861 -22.452  0.00  0.00    +0.173 C 
BRANCH  20  21
ATOM     21  O   UNL     1      35.309 -17.681 -22.609  0.00  0.00    -0.348 OA
ATOM     22  C   UNL     1      34.884 -16.924 -23.732  0.00  0.00    +0.174 C 
ENDBRANCH  20  21
ENDBRANCH  17  20
ENDBRANCH  16  17
ENDBRANCH  11  16
ENDBRANCH   5  10
BRANCH   2  25
ATOM     23  O   UNL     1      32.775 -25.166 -12.568  0.00  0.00    -0.270 OA
ATOM     24  N   UNL     1      34.538 -23.659 -12.629  0.00  0.00    -0.299 N 
ATOM     25  C   UNL     1      33.377 -24.253 -13.124  0.00  0.00    +0.247 C 
ATOM     26  H   UNL     1      34.952 -22.931 -13.147  0.00  0.00    +0.150 HD
BRANCH  24  27
ATOM     27  C   UNL     1      35.155 -24.059 -11.404  0.00  0.00    +0.117 C 
BRANCH  27  28
ATOM     28  C   UNL     1      36.657 -24.306 -11.606  0.00  0.00    +0.106 C 
ATOM     29  C   UNL     1      36.864 -25.730 -12.151  0.00  0.00    +0.029 C 
ATOM     30  C   UNL     1      37.291 -23.181 -12.443  0.00  0.00    +0.029 C 
ATOM     31  C   UNL     1      38.249 -26.001 -12.738  0.00  0.00    +0.002 C 
ATOM     32  C   UNL     1      37.187 -23.349 -13.957  0.00  0.00    +0.002 C 
ATOM     33  C   UNL     1      38.339 -25.643 -14.222  0.00  0.00    +0.000 C 
ATOM     34  C   UNL     1      38.352 -24.151 -14.535  0.00  0.00    +0.000 C 
BRANCH  28  35
ATOM     35  O   UNL     1      37.265 -24.259 -10.306  0.00  0.00    -0.385 OA
ATOM     36  H   UNL     1      37.823 -25.042 -10.181  0.00  0.00    +0.210 HD
ENDBRANCH  28  35
ENDBRANCH  27  28
ENDBRANCH  24  27
ENDBRANCH   2  25
TORSDOF 10
ENDMDL
MODEL 6
REMARK VINA RESULT:      -9.6      6.625     11.283
REMARK  Name = 11547499
REMARK  10 active torsions:
REMARK  status: ('A' for Active; 'I' for Inactive)
REMARK    1  A    between atoms: C_2  and  C_25
REMARK    2  A    between atoms: C_5  and  N_10
REMARK    3  A    between atoms: N_11  and  C_16
REMARK    4  A    between atoms: C_16  and  C_17
REMARK    5  A    between atoms: C_17  and  O_18
REMARK    6  A    between atoms: C_17  and  C_20
REMARK    7  A    between atoms: C_20  and  O_21
REMARK    8  A    between atoms: N_24  and  C_27
REMARK    9  A    between atoms: C_27  and  C_28
REMARK   10  A    between atoms: C_28  and  O_35
REMARK                            x       y       z     vdW  Elec       q    Type
REMARK                         _______ _______ _______ _____ _____    ______ ____
ROOT
ATOM      1 CL   UNL     1      37.166 -20.732 -19.750  0.00  0.00    -0.082 Cl
ATOM      2  C   UNL     1      34.749 -21.483 -18.731  0.00  0.00    +0.065 C 
ATOM      3  C   UNL     1      33.945 -22.071 -17.754  0.00  0.00    +0.022 C 
ATOM      4  C   UNL     1      36.134 -21.451 -18.566  0.00  0.00    +0.062 C 
ATOM      5  C   UNL     1      34.524 -22.625 -16.613  0.00  0.00    +0.078 C 
ATOM      6  C   UNL     1      36.714 -22.006 -17.425  0.00  0.00    +0.013 C 
ATOM      7  C   UNL     1      35.910 -22.593 -16.449  0.00  0.00    +0.018 C 
ENDROOT
BRANCH   5  10
ATOM      8  O   UNL     1      31.624 -22.399 -16.302  0.00  0.00    -0.250 OA
ATOM      9  O   UNL     1      31.884 -25.295 -12.686  0.00  0.00    -0.268 OA
ATOM     10  N   UNL     1      33.692 -23.235 -15.604  0.00  0.00    -0.142 N 
ATOM     11  N   UNL     1      31.656 -23.875 -14.545  0.00  0.00    -0.205 N 
ATOM     12  N   UNL     1      34.408 -23.929 -14.670  0.00  0.00    -0.164 NA
ATOM     13  C   UNL     1      32.290 -23.121 -15.554  0.00  0.00    +0.336 C 
ATOM     14  C   UNL     1      32.332 -24.620 -13.602  0.00  0.00    +0.277 C 
ATOM     15  C   UNL     1      33.801 -24.570 -13.738  0.00  0.00    +0.176 C 
BRANCH  11  16
ATOM     16  C   UNL     1      30.199 -23.831 -14.479  0.00  0.00    +0.135 C 
BRANCH  16  17
ATOM     17  C   UNL     1      29.539 -25.048 -15.125  0.00  0.00    +0.160 C 
BRANCH  17  18
ATOM     18  O   UNL     1      29.038 -25.915 -14.106  0.00  0.00    -0.380 OA
ATOM     19  H   UNL     1      28.680 -25.384 -13.377  0.00  0.00    +0.211 HD
ENDBRANCH  17  18
BRANCH  17  20
ATOM     20  C   UNL     1      28.388 -24.681 -16.057  0.00  0.00    +0.173 C 
BRANCH  20  21
ATOM     21  O   UNL     1      28.702 -23.457 -16.715  0.00  0.00    -0.348 OA
ATOM     22  C   UNL     1      27.634 -22.527 -16.614  0.00  0.00    +0.174 C 
ENDBRANCH  20  21
ENDBRANCH  17  20
ENDBRANCH  16  17
ENDBRANCH  11  16
ENDBRANCH   5  10
BRANCH   2  25
ATOM     23  O   UNL     1      32.917 -21.191 -20.163  0.00  0.00    -0.270 OA
ATOM     24  N   UNL     1      34.856 -20.036 -20.703  0.00  0.00    -0.299 N 
ATOM     25  C   UNL     1      34.087 -20.904 -19.927  0.00  0.00    +0.247 C 
ATOM     26  H   UNL     1      35.788 -19.867 -20.434  0.00  0.00    +0.150 HD
BRANCH  24  27
ATOM     27  C   UNL     1      34.353 -19.382 -21.868  0.00  0.00    +0.117 C 
BRANCH  27  28
ATOM     28  C   UNL     1      35.258 -18.207 -22.267  0.00  0.00    +0.106 C 
ATOM     29  C   UNL     1      34.680 -17.531 -23.522  0.00  0.00    +0.029 C 
ATOM     30  C   UNL     1      35.504 -17.273 -21.069  0.00  0.00    +0.029 C 
ATOM     31  C   UNL     1      35.252 -16.147 -23.831  0.00  0.00    +0.002 C 
ATOM     32  C   UNL     1      34.435 -16.207 -20.835  0.00  0.00    +0.002 C 
ATOM     33  C   UNL     1      34.486 -15.025 -23.128  0.00  0.00    +0.000 C 
ATOM     34  C   UNL     1      34.707 -14.927 -21.623  0.00  0.00    +0.000 C 
BRANCH  28  35
ATOM     35  O   UNL     1      36.528 -18.766 -22.634  0.00  0.00    -0.385 OA
ATOM     36  H   UNL     1      36.824 -19.379 -21.943  0.00  0.00    +0.210 HD
ENDBRANCH  28  35
ENDBRANCH  27  28
ENDBRANCH  24  27
ENDBRANCH   2  25
TORSDOF 10
ENDMDL
MODEL 7
REMARK VINA RESULT:      -9.5      2.732     10.158
REMARK  Name = 11547499
REMARK  10 active torsions:
REMARK  status: ('A' for Active; 'I' for Inactive)
REMARK    1  A    between atoms: C_2  and  C_25
REMARK    2  A    between atoms: C_5  and  N_10
REMARK    3  A    between atoms: N_11  and  C_16
REMARK    4  A    between atoms: C_16  and  C_17
REMARK    5  A    between atoms: C_17  and  O_18
REMARK    6  A    between atoms: C_17  and  C_20
REMARK    7  A    between atoms: C_20  and  O_21
REMARK    8  A    between atoms: N_24  and  C_27
REMARK    9  A    between atoms: C_27  and  C_28
REMARK   10  A    between atoms: C_28  and  O_35
REMARK                            x       y       z     vdW  Elec       q    Type
REMARK                         _______ _______ _______ _____ _____    ______ ____
ROOT
ATOM      1 CL   UNL     1      34.415 -17.388 -23.941  0.00  0.00    -0.082 Cl
ATOM      2  C   UNL     1      34.438 -15.091 -22.468  0.00  0.00    +0.065 C 
ATOM      3  C   UNL     1      34.241 -13.719 -22.309  0.00  0.00    +0.022 C 
ATOM      4  C   UNL     1      34.187 -15.692 -23.701  0.00  0.00    +0.062 C 
ATOM      5  C   UNL     1      33.795 -12.949 -23.382  0.00  0.00    +0.078 C 
ATOM      6  C   UNL     1      33.740 -14.922 -24.775  0.00  0.00    +0.013 C 
ATOM      7  C   UNL     1      33.544 -13.550 -24.616  0.00  0.00    +0.018 C 
ENDROOT
BRANCH   5  10
ATOM      8  O   UNL     1      31.583 -11.595 -22.027  0.00  0.00    -0.250 OA
ATOM      9  O   UNL     1      33.644  -7.536 -22.929  0.00  0.00    -0.268 OA
ATOM     10  N   UNL     1      33.594 -11.529 -23.217  0.00  0.00    -0.142 N 
ATOM     11  N   UNL     1      32.566  -9.551 -22.374  0.00  0.00    -0.205 N 
ATOM     12  N   UNL     1      34.543 -10.779 -23.851  0.00  0.00    -0.164 NA
ATOM     13  C   UNL     1      32.526 -10.955 -22.501  0.00  0.00    +0.336 C 
ATOM     14  C   UNL     1      33.525  -8.752 -22.965  0.00  0.00    +0.277 C 
ATOM     15  C   UNL     1      34.526  -9.499 -23.751  0.00  0.00    +0.176 C 
BRANCH  11  16
ATOM     16  C   UNL     1      31.510  -8.909 -21.601  0.00  0.00    +0.135 C 
BRANCH  16  17
ATOM     17  C   UNL     1      32.046  -8.106 -20.417  0.00  0.00    +0.160 C 
BRANCH  17  18
ATOM     18  O   UNL     1      31.749  -6.721 -20.606  0.00  0.00    -0.380 OA
ATOM     19  H   UNL     1      31.215  -6.401 -19.863  0.00  0.00    +0.211 HD
ENDBRANCH  17  18
BRANCH  17  20
ATOM     20  C   UNL     1      31.459  -8.547 -19.079  0.00  0.00    +0.173 C 
BRANCH  20  21
ATOM     21  O   UNL     1      31.067  -9.913 -19.178  0.00  0.00    -0.348 OA
ATOM     22  C   UNL     1      31.882 -10.746 -18.367  0.00  0.00    +0.174 C 
ENDBRANCH  20  21
ENDBRANCH  17  20
ENDBRANCH  16  17
ENDBRANCH  11  16
ENDBRANCH   5  10
BRANCH   2  25
ATOM     23  O   UNL     1      34.859 -15.367 -20.178  0.00  0.00    -0.270 OA
ATOM     24  N   UNL     1      35.377 -17.161 -21.556  0.00  0.00    -0.299 N 
ATOM     25  C   UNL     1      34.913 -15.871 -21.296  0.00  0.00    +0.247 C 
ATOM     26  H   UNL     1      35.383 -17.479 -22.488  0.00  0.00    +0.150 HD
BRANCH  24  27
ATOM     27  C   UNL     1      35.842 -18.041 -20.532  0.00  0.00    +0.117 C 
BRANCH  27  28
ATOM     28  C   UNL     1      35.568 -19.505 -20.906  0.00  0.00    +0.106 C 
ATOM     29  C   UNL     1      36.258 -20.422 -19.882  0.00  0.00    +0.029 C 
ATOM     30  C   UNL     1      34.062 -19.749 -21.101  0.00  0.00    +0.029 C 
ATOM     31  C   UNL     1      35.790 -21.878 -19.902  0.00  0.00    +0.002 C 
ATOM     32  C   UNL     1      33.275 -20.057 -19.828  0.00  0.00    +0.002 C 
ATOM     33  C   UNL     1      34.583 -22.120 -18.995  0.00  0.00    +0.000 C 
ATOM     34  C   UNL     1      33.262 -21.549 -19.499  0.00  0.00    +0.000 C 
BRANCH  28  35
ATOM     35  O   UNL     1      36.200 -19.736 -22.175  0.00  0.00    -0.385 OA
ATOM     36  H   UNL     1      35.572 -19.545 -22.889  0.00  0.00    +0.210 HD
ENDBRANCH  28  35
ENDBRANCH  27  28
ENDBRANCH  24  27
ENDBRANCH   2  25
TORSDOF 10
ENDMDL
MODEL 8
REMARK VINA RESULT:      -9.3     10.070     13.716
REMARK  Name = 11547499
REMARK  10 active torsions:
REMARK  status: ('A' for Active; 'I' for Inactive)
REMARK    1  A    between atoms: C_2  and  C_25
REMARK    2  A    between atoms: C_5  and  N_10
REMARK    3  A    between atoms: N_11  and  C_16
REMARK    4  A    between atoms: C_16  and  C_17
REMARK    5  A    between atoms: C_17  and  O_18
REMARK    6  A    between atoms: C_17  and  C_20
REMARK    7  A    between atoms: C_20  and  O_21
REMARK    8  A    between atoms: N_24  and  C_27
REMARK    9  A    between atoms: C_27  and  C_28
REMARK   10  A    between atoms: C_28  and  O_35
REMARK                            x       y       z     vdW  Elec       q    Type
REMARK                         _______ _______ _______ _____ _____    ______ ____
ROOT
ATOM      1 CL   UNL     1      37.961 -23.403 -13.052  0.00  0.00    -0.082 Cl
ATOM      2  C   UNL     1      35.655 -23.327 -14.508  0.00  0.00    +0.065 C 
ATOM      3  C   UNL     1      34.281 -23.515 -14.664  0.00  0.00    +0.022 C 
ATOM      4  C   UNL     1      36.264 -23.622 -13.289  0.00  0.00    +0.062 C 
ATOM      5  C   UNL     1      33.518 -23.998 -13.602  0.00  0.00    +0.078 C 
ATOM      6  C   UNL     1      35.501 -24.106 -12.226  0.00  0.00    +0.013 C 
ATOM      7  C   UNL     1      34.128 -24.294 -12.382  0.00  0.00    +0.018 C 
ENDROOT
BRANCH   5  10
ATOM      8  O   UNL     1      31.476 -21.972 -14.137  0.00  0.00    -0.250 OA
ATOM      9  O   UNL     1      28.300 -25.352 -14.283  0.00  0.00    -0.268 OA
ATOM     10  N   UNL     1      32.097 -24.194 -13.764  0.00  0.00    -0.142 N 
ATOM     11  N   UNL     1      29.854 -23.587 -14.290  0.00  0.00    -0.205 N 
ATOM     12  N   UNL     1      31.711 -25.489 -13.564  0.00  0.00    -0.164 NA
ATOM     13  C   UNL     1      31.183 -23.169 -14.075  0.00  0.00    +0.336 C 
ATOM     14  C   UNL     1      29.422 -24.889 -14.135  0.00  0.00    +0.277 C 
ATOM     15  C   UNL     1      30.484 -25.828 -13.725  0.00  0.00    +0.176 C 
BRANCH  11  16
ATOM     16  C   UNL     1      28.875 -22.572 -14.662  0.00  0.00    +0.135 C 
BRANCH  16  17
ATOM     17  C   UNL     1      28.740 -22.405 -16.175  0.00  0.00    +0.160 C 
BRANCH  17  18
ATOM     18  O   UNL     1      30.029 -22.502 -16.783  0.00  0.00    -0.380 OA
ATOM     19  H   UNL     1      30.712 -22.301 -16.125  0.00  0.00    +0.211 HD
ENDBRANCH  17  18
BRANCH  17  20
ATOM     20  C   UNL     1      27.825 -23.446 -16.813  0.00  0.00    +0.173 C 
BRANCH  20  21
ATOM     21  O   UNL     1      26.953 -22.792 -17.731  0.00  0.00    -0.348 OA
ATOM     22  C   UNL     1      26.324 -21.667 -17.135  0.00  0.00    +0.174 C 
ENDBRANCH  20  21
ENDBRANCH  17  20
ENDBRANCH  16  17
ENDBRANCH  11  16
ENDBRANCH   5  10
BRANCH   2  25
ATOM     23  O   UNL     1      37.652 -22.882 -15.652  0.00  0.00    -0.270 OA
ATOM     24  N   UNL     1      35.682 -22.283 -16.723  0.00  0.00    -0.299 N 
ATOM     25  C   UNL     1      36.427 -22.808 -15.666  0.00  0.00    +0.247 C 
ATOM     26  H   UNL     1      34.702 -22.266 -16.643  0.00  0.00    +0.150 HD
BRANCH  24  27
ATOM     27  C   UNL     1      36.279 -21.770 -17.914  0.00  0.00    +0.117 C 
BRANCH  27  28
ATOM     28  C   UNL     1      35.312 -21.887 -19.101  0.00  0.00    +0.106 C 
ATOM     29  C   UNL     1      33.973 -21.231 -18.725  0.00  0.00    +0.029 C 
ATOM     30  C   UNL     1      35.963 -21.364 -20.393  0.00  0.00    +0.029 C 
ATOM     31  C   UNL     1      33.040 -20.946 -19.904  0.00  0.00    +0.002 C 
ATOM     32  C   UNL     1      35.859 -19.857 -20.619  0.00  0.00    +0.002 C 
ATOM     33  C   UNL     1      33.295 -19.578 -20.537  0.00  0.00    +0.000 C 
ATOM     34  C   UNL     1      34.578 -19.465 -21.353  0.00  0.00    +0.000 C 
BRANCH  28  35
ATOM     35  O   UNL     1      35.058 -23.287 -19.294  0.00  0.00    -0.385 OA
ATOM     36  H   UNL     1      34.510 -23.620 -18.566  0.00  0.00    +0.210 HD
ENDBRANCH  28  35
ENDBRANCH  27  28
ENDBRANCH  24  27
ENDBRANCH   2  25
TORSDOF 10
ENDMDL
MODEL 9
REMARK VINA RESULT:      -8.9      3.082      9.681
REMARK  Name = 11547499
REMARK  10 active torsions:
REMARK  status: ('A' for Active; 'I' for Inactive)
REMARK    1  A    between atoms: C_2  and  C_25
REMARK    2  A    between atoms: C_5  and  N_10
REMARK    3  A    between atoms: N_11  and  C_16
REMARK    4  A    between atoms: C_16  and  C_17
REMARK    5  A    between atoms: C_17  and  O_18
REMARK    6  A    between atoms: C_17  and  C_20
REMARK    7  A    between atoms: C_20  and  O_21
REMARK    8  A    between atoms: N_24  and  C_27
REMARK    9  A    between atoms: C_27  and  C_28
REMARK   10  A    between atoms: C_28  and  O_35
REMARK                            x       y       z     vdW  Elec       q    Type
REMARK                         _______ _______ _______ _____ _____    ______ ____
ROOT
ATOM      1 CL   UNL     1      31.911 -10.260 -18.562  0.00  0.00    -0.082 Cl
ATOM      2  C   UNL     1      31.731  -9.530 -21.185  0.00  0.00    +0.065 C 
ATOM      3  C   UNL     1      31.759  -8.588 -22.214  0.00  0.00    +0.022 C 
ATOM      4  C   UNL     1      31.935  -9.127 -19.866  0.00  0.00    +0.062 C 
ATOM      5  C   UNL     1      31.990  -7.244 -21.924  0.00  0.00    +0.078 C 
ATOM      6  C   UNL     1      32.167  -7.781 -19.575  0.00  0.00    +0.013 C 
ATOM      7  C   UNL     1      32.194  -6.840 -20.604  0.00  0.00    +0.018 C 
ENDROOT
BRANCH   5  10
ATOM      8  O   UNL     1      34.253  -6.508 -23.627  0.00  0.00    -0.250 OA
ATOM      9  O   UNL     1      31.458  -3.592 -25.912  0.00  0.00    -0.268 OA
ATOM     10  N   UNL     1      32.017  -6.270 -22.989  0.00  0.00    -0.142 N 
ATOM     11  N   UNL     1      32.925  -5.092 -24.850  0.00  0.00    -0.205 N 
ATOM     12  N   UNL     1      30.837  -5.594 -23.123  0.00  0.00    -0.164 NA
ATOM     13  C   UNL     1      33.136  -6.010 -23.802  0.00  0.00    +0.336 C 
ATOM     14  C   UNL     1      31.741  -4.411 -25.049  0.00  0.00    +0.277 C 
ATOM     15  C   UNL     1      30.692  -4.732 -24.062  0.00  0.00    +0.176 C 
BRANCH  11  16
ATOM     16  C   UNL     1      34.038  -4.824 -25.753  0.00  0.00    +0.135 C 
BRANCH  16  17
ATOM     17  C   UNL     1      34.001  -5.685 -27.014  0.00  0.00    +0.160 C 
BRANCH  17  18
ATOM     18  O   UNL     1      33.144  -5.077 -27.982  0.00  0.00    -0.380 OA
ATOM     19  H   UNL     1      32.219  -5.266 -27.759  0.00  0.00    +0.211 HD
ENDBRANCH  17  18
BRANCH  17  20
ATOM     20  C   UNL     1      35.376  -5.885 -27.644  0.00  0.00    +0.173 C 
BRANCH  20  21
ATOM     21  O   UNL     1      35.227  -6.638 -28.844  0.00  0.00    -0.348 OA
ATOM     22  C   UNL     1      36.468  -7.174 -29.276  0.00  0.00    +0.174 C 
ENDBRANCH  20  21
ENDBRANCH  17  20
ENDBRANCH  16  17
ENDBRANCH  11  16
ENDBRANCH   5  10
BRANCH   2  25
ATOM     23  O   UNL     1      30.483 -11.512 -21.106  0.00  0.00    -0.270 OA
ATOM     24  N   UNL     1      32.417 -11.550 -22.387  0.00  0.00    -0.299 N 
ATOM     25  C   UNL     1      31.483 -10.950 -21.542  0.00  0.00    +0.247 C 
ATOM     26  H   UNL     1      33.190 -11.018 -22.686  0.00  0.00    +0.150 HD
BRANCH  24  27
ATOM     27  C   UNL     1      32.303 -12.900 -22.839  0.00  0.00    +0.117 C 
BRANCH  27  28
ATOM     28  C   UNL     1      33.684 -13.481 -23.173  0.00  0.00    +0.106 C 
ATOM     29  C   UNL     1      34.039 -14.561 -22.136  0.00  0.00    +0.029 C 
ATOM     30  C   UNL     1      33.750 -13.931 -24.642  0.00  0.00    +0.029 C 
ATOM     31  C   UNL     1      35.200 -15.476 -22.528  0.00  0.00    +0.002 C 
ATOM     32  C   UNL     1      33.228 -15.339 -24.924  0.00  0.00    +0.002 C 
ATOM     33  C   UNL     1      34.743 -16.692 -23.333  0.00  0.00    +0.000 C 
ATOM     34  C   UNL     1      34.312 -16.404 -24.767  0.00  0.00    +0.000 C 
BRANCH  28  35
ATOM     35  O   UNL     1      34.634 -12.416 -23.015  0.00  0.00    -0.385 OA
ATOM     36  H   UNL     1      35.489 -12.686 -23.385  0.00  0.00    +0.210 HD
ENDBRANCH  28  35
ENDBRANCH  27  28
ENDBRANCH  24  27
ENDBRANCH   2  25
TORSDOF 10
ENDMDL
