MODEL 1
REMARK VINA RESULT:     -11.6      0.000      0.000
REMARK  Name = 52913524
REMARK  9 active torsions:
REMARK  status: ('A' for Active; 'I' for Inactive)
REMARK    1  A    between atoms: C_1  and  C_10
REMARK    2  A    between atoms: C_4  and  C_24
REMARK    3  A    between atoms: C_5  and  C_22
REMARK    4  A    between atoms: C_8  and  O_13
REMARK    5  A    between atoms: C_9  and  O_15
REMARK    6  A    between atoms: C_11  and  O_17
REMARK    7  A    between atoms: C_12  and  C_19
REMARK    8  A    between atoms: C_19  and  O_20
REMARK    9  A    between atoms: C_24  and  C_27
REMARK                            x       y       z     vdW  Elec       q    Type
REMARK                         _______ _______ _______ _____ _____    ______ ____
ROOT
ATOM      1  C   UNL     1      34.296 -23.544 -14.398  0.00  0.00    +0.007 C 
ATOM      2  C   UNL     1      34.407 -23.589 -15.788  0.00  0.00    -0.006 C 
ATOM      3  C   UNL     1      33.091 -23.167 -13.806  0.00  0.00    -0.002 C 
ATOM      4  C   UNL     1      33.313 -23.255 -16.586  0.00  0.00    -0.022 C 
ATOM      5  C   UNL     1      32.107 -22.877 -15.993  0.00  0.00    -0.026 C 
ATOM      6  C   UNL     1      31.996 -22.833 -14.604  0.00  0.00    -0.005 C 
ENDROOT
BRANCH   1  10
ATOM      7  O   UNL     1      36.219 -24.934 -14.207  0.00  0.00    -0.347 OA
ATOM      8  C   UNL     1      35.056 -24.375 -12.132  0.00  0.00    +0.171 C 
ATOM      9  C   UNL     1      36.256 -24.888 -11.332  0.00  0.00    +0.169 C 
ATOM     10  C   UNL     1      35.486 -23.908 -13.531  0.00  0.00    +0.167 C 
ATOM     11  C   UNL     1      37.089 -25.875 -12.149  0.00  0.00    +0.169 C 
ATOM     12  C   UNL     1      37.421 -25.296 -13.526  0.00  0.00    +0.174 C 
BRANCH   8  13
ATOM     13  O   UNL     1      34.473 -23.271 -11.440  0.00  0.00    -0.379 OA
ATOM     14  H   UNL     1      34.821 -22.441 -11.802  0.00  0.00    +0.211 HD
ENDBRANCH   8  13
BRANCH   9  15
ATOM     15  O   UNL     1      35.794 -25.564 -10.161  0.00  0.00    -0.379 OA
ATOM     16  H   UNL     1      34.882 -25.865 -10.301  0.00  0.00    +0.211 HD
ENDBRANCH   9  15
BRANCH  11  17
ATOM     17  O   UNL     1      38.300 -26.158 -11.454  0.00  0.00    -0.379 OA
ATOM     18  H   UNL     1      39.056 -25.965 -12.031  0.00  0.00    +0.211 HD
ENDBRANCH  11  17
BRANCH  12  19
ATOM     19  C   UNL     1      38.156 -26.307 -14.402  0.00  0.00    +0.169 C 
BRANCH  19  20
ATOM     20  O   UNL     1      37.283 -26.728 -15.433  0.00  0.00    -0.379 OA
ATOM     21  H   UNL     1      37.008 -25.959 -15.958  0.00  0.00    +0.211 HD
ENDBRANCH  19  20
ENDBRANCH  12  19
ENDBRANCH   1  10
BRANCH   5  22
ATOM     22  C   UNL     1      30.922 -22.515 -16.827  0.00  0.00    +0.026 C 
ATOM     23  C   UNL     1      29.604 -22.844 -16.133  0.00  0.00    +0.005 C 
ENDBRANCH   5  22
BRANCH   4  24
ATOM     24  C   UNL     1      33.456 -23.309 -18.071  0.00  0.00    +0.052 C 
BRANCH  24  27
ATOM     25  O   UNL     1      34.284 -19.694 -21.238  0.00  0.00    -0.468 OA
ATOM     26  O   UNL     1      36.915 -19.308 -20.123  0.00  0.00    -0.468 OA
ATOM     27  C   UNL     1      34.370 -22.243 -18.638  0.00  0.00    -0.015 C 
ATOM     28  C   UNL     1      33.925 -21.427 -19.679  0.00  0.00    +0.036 C 
ATOM     29  C   UNL     1      35.657 -22.082 -18.124  0.00  0.00    -0.001 C 
ATOM     30  C   UNL     1      34.771 -20.450 -20.204  0.00  0.00    +0.172 C 
ATOM     31  C   UNL     1      36.049 -20.271 -19.671  0.00  0.00    +0.172 C 
ATOM     32  C   UNL     1      36.499 -21.097 -18.641  0.00  0.00    +0.040 C 
ATOM     33  C   UNL     1      35.326 -18.984 -21.916  0.00  0.00    +0.253 C 
ATOM     34  C   UNL     1      36.247 -18.321 -20.912  0.00  0.00    +0.253 C 
ENDBRANCH  24  27
ENDBRANCH   4  24
TORSDOF 9
ENDMDL
MODEL 2
REMARK VINA RESULT:     -11.2      1.227      2.328
REMARK  Name = 52913524
REMARK  9 active torsions:
REMARK  status: ('A' for Active; 'I' for Inactive)
REMARK    1  A    between atoms: C_1  and  C_10
REMARK    2  A    between atoms: C_4  and  C_24
REMARK    3  A    between atoms: C_5  and  C_22
REMARK    4  A    between atoms: C_8  and  O_13
REMARK    5  A    between atoms: C_9  and  O_15
REMARK    6  A    between atoms: C_11  and  O_17
REMARK    7  A    between atoms: C_12  and  C_19
REMARK    8  A    between atoms: C_19  and  O_20
REMARK    9  A    between atoms: C_24  and  C_27
REMARK                            x       y       z     vdW  Elec       q    Type
REMARK                         _______ _______ _______ _____ _____    ______ ____
ROOT
ATOM      1  C   UNL     1      34.215 -24.016 -14.324  0.00  0.00    +0.007 C 
ATOM      2  C   UNL     1      34.133 -23.890 -15.711  0.00  0.00    -0.006 C 
ATOM      3  C   UNL     1      33.137 -23.641 -13.524  0.00  0.00    -0.002 C 
ATOM      4  C   UNL     1      32.970 -23.387 -16.297  0.00  0.00    -0.022 C 
ATOM      5  C   UNL     1      31.892 -23.012 -15.496  0.00  0.00    -0.026 C 
ATOM      6  C   UNL     1      31.974 -23.138 -14.110  0.00  0.00    -0.005 C 
ENDROOT
BRANCH   1  10
ATOM      7  O   UNL     1      36.186 -23.462 -13.110  0.00  0.00    -0.347 OA
ATOM      8  C   UNL     1      36.358 -25.306 -14.704  0.00  0.00    +0.171 C 
ATOM      9  C   UNL     1      37.697 -25.709 -14.078  0.00  0.00    +0.169 C 
ATOM     10  C   UNL     1      35.478 -24.563 -13.687  0.00  0.00    +0.167 C 
ATOM     11  C   UNL     1      38.347 -24.532 -13.351  0.00  0.00    +0.169 C 
ATOM     12  C   UNL     1      37.354 -23.868 -12.396  0.00  0.00    +0.174 C 
BRANCH   8  13
ATOM     13  O   UNL     1      35.673 -26.483 -15.130  0.00  0.00    -0.379 OA
ATOM     14  H   UNL     1      36.318 -27.174 -15.347  0.00  0.00    +0.211 HD
ENDBRANCH   8  13
BRANCH   9  15
ATOM     15  O   UNL     1      38.591 -26.141 -15.106  0.00  0.00    -0.379 OA
ATOM     16  H   UNL     1      38.219 -25.915 -15.973  0.00  0.00    +0.211 HD
ENDBRANCH   9  15
BRANCH  11  17
ATOM     17  O   UNL     1      39.471 -25.000 -12.609  0.00  0.00    -0.379 OA
ATOM     18  H   UNL     1      39.613 -25.941 -12.798  0.00  0.00    +0.211 HD
ENDBRANCH  11  17
BRANCH  12  19
ATOM     19  C   UNL     1      37.946 -22.623 -11.741  0.00  0.00    +0.169 C 
BRANCH  19  20
ATOM     20  O   UNL     1      37.220 -22.349 -10.558  0.00  0.00    -0.379 OA
ATOM     21  H   UNL     1      37.303 -23.097  -9.946  0.00  0.00    +0.211 HD
ENDBRANCH  19  20
ENDBRANCH  12  19
ENDBRANCH   1  10
BRANCH   5  22
ATOM     22  C   UNL     1      30.638 -22.470 -16.100  0.00  0.00    +0.026 C 
ATOM     23  C   UNL     1      29.407 -22.780 -15.255  0.00  0.00    +0.005 C 
ENDBRANCH   5  22
BRANCH   4  24
ATOM     24  C   UNL     1      32.905 -23.260 -17.783  0.00  0.00    +0.052 C 
BRANCH  24  27
ATOM     25  O   UNL     1      34.198 -19.814 -20.984  0.00  0.00    -0.468 OA
ATOM     26  O   UNL     1      36.867 -19.793 -19.895  0.00  0.00    -0.468 OA
ATOM     27  C   UNL     1      33.953 -22.335 -18.367  0.00  0.00    -0.015 C 
ATOM     28  C   UNL     1      33.616 -21.472 -19.408  0.00  0.00    +0.036 C 
ATOM     29  C   UNL     1      35.256 -22.353 -17.865  0.00  0.00    -0.001 C 
ATOM     30  C   UNL     1      34.585 -20.626 -19.949  0.00  0.00    +0.172 C 
ATOM     31  C   UNL     1      35.881 -20.623 -19.429  0.00  0.00    +0.172 C 
ATOM     32  C   UNL     1      36.221 -21.498 -18.397  0.00  0.00    +0.040 C 
ATOM     33  C   UNL     1      35.321 -19.261 -21.676  0.00  0.00    +0.253 C 
ATOM     34  C   UNL     1      36.336 -18.727 -20.686  0.00  0.00    +0.253 C 
ENDBRANCH  24  27
ENDBRANCH   4  24
TORSDOF 9
ENDMDL
MODEL 3
REMARK VINA RESULT:     -10.6      3.399      7.841
REMARK  Name = 52913524
REMARK  9 active torsions:
REMARK  status: ('A' for Active; 'I' for Inactive)
REMARK    1  A    between atoms: C_1  and  C_10
REMARK    2  A    between atoms: C_4  and  C_24
REMARK    3  A    between atoms: C_5  and  C_22
REMARK    4  A    between atoms: C_8  and  O_13
REMARK    5  A    between atoms: C_9  and  O_15
REMARK    6  A    between atoms: C_11  and  O_17
REMARK    7  A    between atoms: C_12  and  C_19
REMARK    8  A    between atoms: C_19  and  O_20
REMARK    9  A    between atoms: C_24  and  C_27
REMARK                            x       y       z     vdW  Elec       q    Type
REMARK                         _______ _______ _______ _____ _____    ______ ____
ROOT
ATOM      1  C   UNL     1      35.494 -22.376 -17.155  0.00  0.00    +0.007 C 
ATOM      2  C   UNL     1      34.525 -23.090 -16.451  0.00  0.00    -0.006 C 
ATOM      3  C   UNL     1      36.712 -22.070 -16.549  0.00  0.00    -0.002 C 
ATOM      4  C   UNL     1      34.774 -23.497 -15.140  0.00  0.00    -0.022 C 
ATOM      5  C   UNL     1      35.993 -23.190 -14.534  0.00  0.00    -0.026 C 
ATOM      6  C   UNL     1      36.962 -22.476 -15.238  0.00  0.00    -0.005 C 
ENDROOT
BRANCH   1  10
ATOM      7  O   UNL     1      36.090 -20.832 -18.865  0.00  0.00    -0.347 OA
ATOM      8  C   UNL     1      33.753 -21.544 -18.792  0.00  0.00    +0.171 C 
ATOM      9  C   UNL     1      33.539 -20.952 -20.187  0.00  0.00    +0.169 C 
ATOM     10  C   UNL     1      35.224 -21.935 -18.580  0.00  0.00    +0.167 C 
ATOM     11  C   UNL     1      34.577 -19.875 -20.500  0.00  0.00    +0.169 C 
ATOM     12  C   UNL     1      35.991 -20.386 -20.218  0.00  0.00    +0.174 C 
BRANCH   8  13
ATOM     13  O   UNL     1      32.945 -22.712 -18.653  0.00  0.00    -0.379 OA
ATOM     14  H   UNL     1      33.388 -23.346 -18.068  0.00  0.00    +0.211 HD
ENDBRANCH   8  13
BRANCH   9  15
ATOM     15  O   UNL     1      32.245 -20.349 -20.254  0.00  0.00    -0.379 OA
ATOM     16  H   UNL     1      31.571 -21.041 -20.346  0.00  0.00    +0.211 HD
ENDBRANCH   9  15
BRANCH  11  17
ATOM     17  O   UNL     1      34.476 -19.508 -21.873  0.00  0.00    -0.379 OA
ATOM     18  H   UNL     1      35.225 -19.881 -22.364  0.00  0.00    +0.211 HD
ENDBRANCH  11  17
BRANCH  12  19
ATOM     19  C   UNL     1      37.037 -19.293 -20.417  0.00  0.00    +0.169 C 
BRANCH  19  20
ATOM     20  O   UNL     1      36.373 -18.048 -20.529  0.00  0.00    -0.379 OA
ATOM     21  H   UNL     1      36.951 -17.413 -20.979  0.00  0.00    +0.211 HD
ENDBRANCH  19  20
ENDBRANCH  12  19
ENDBRANCH   1  10
BRANCH   5  22
ATOM     22  C   UNL     1      36.281 -23.614 -13.131  0.00  0.00    +0.026 C 
ATOM     23  C   UNL     1      37.500 -24.527 -13.042  0.00  0.00    +0.005 C 
ENDBRANCH   5  22
BRANCH   4  24
ATOM     24  C   UNL     1      33.721 -24.260 -14.405  0.00  0.00    +0.052 C 
BRANCH  24  27
ATOM     25  O   UNL     1      29.236 -24.355 -16.320  0.00  0.00    -0.468 OA
ATOM     26  O   UNL     1      28.529 -22.008 -14.802  0.00  0.00    -0.468 OA
ATOM     27  C   UNL     1      32.333 -23.666 -14.531  0.00  0.00    -0.015 C 
ATOM     28  C   UNL     1      31.389 -24.275 -15.358  0.00  0.00    +0.036 C 
ATOM     29  C   UNL     1      32.003 -22.508 -13.826  0.00  0.00    -0.001 C 
ATOM     30  C   UNL     1      30.114 -23.722 -15.478  0.00  0.00    +0.172 C 
ATOM     31  C   UNL     1      29.774 -22.580 -14.751  0.00  0.00    +0.172 C 
ATOM     32  C   UNL     1      30.724 -21.963 -13.936  0.00  0.00    +0.040 C 
ATOM     33  C   UNL     1      28.109 -23.531 -16.632  0.00  0.00    +0.253 C 
ATOM     34  C   UNL     1      27.561 -22.892 -15.372  0.00  0.00    +0.253 C 
ENDBRANCH  24  27
ENDBRANCH   4  24
TORSDOF 9
ENDMDL
MODEL 4
REMARK VINA RESULT:     -10.5     10.932     17.101
REMARK  Name = 52913524
REMARK  9 active torsions:
REMARK  status: ('A' for Active; 'I' for Inactive)
REMARK    1  A    between atoms: C_1  and  C_10
REMARK    2  A    between atoms: C_4  and  C_24
REMARK    3  A    between atoms: C_5  and  C_22
REMARK    4  A    between atoms: C_8  and  O_13
REMARK    5  A    between atoms: C_9  and  O_15
REMARK    6  A    between atoms: C_11  and  O_17
REMARK    7  A    between atoms: C_12  and  C_19
REMARK    8  A    between atoms: C_19  and  O_20
REMARK    9  A    between atoms: C_24  and  C_27
REMARK                            x       y       z     vdW  Elec       q    Type
REMARK                         _______ _______ _______ _____ _____    ______ ____
ROOT
ATOM      1  C   UNL     1      32.635  -7.273 -21.748  0.00  0.00    +0.007 C 
ATOM      2  C   UNL     1      32.154  -8.469 -22.281  0.00  0.00    -0.006 C 
ATOM      3  C   UNL     1      32.605  -7.062 -20.370  0.00  0.00    -0.002 C 
ATOM      4  C   UNL     1      31.642  -9.453 -21.435  0.00  0.00    -0.022 C 
ATOM      5  C   UNL     1      31.612  -9.241 -20.057  0.00  0.00    -0.026 C 
ATOM      6  C   UNL     1      32.093  -8.046 -19.524  0.00  0.00    -0.005 C 
ENDROOT
BRANCH   1  10
ATOM      7  O   UNL     1      32.093  -5.630 -23.383  0.00  0.00    -0.347 OA
ATOM      8  C   UNL     1      34.240  -6.769 -23.638  0.00  0.00    +0.171 C 
ATOM      9  C   UNL     1      34.669  -5.711 -24.659  0.00  0.00    +0.169 C 
ATOM     10  C   UNL     1      33.191  -6.204 -22.668  0.00  0.00    +0.167 C 
ATOM     11  C   UNL     1      33.458  -5.028 -25.293  0.00  0.00    +0.169 C 
ATOM     12  C   UNL     1      32.484  -4.541 -24.219  0.00  0.00    +0.174 C 
BRANCH   8  13
ATOM     13  O   UNL     1      35.382  -7.181 -22.888  0.00  0.00    -0.379 OA
ATOM     14  H   UNL     1      35.100  -7.745 -22.152  0.00  0.00    +0.211 HD
ENDBRANCH   8  13
BRANCH   9  15
ATOM     15  O   UNL     1      35.420  -6.335 -25.702  0.00  0.00    -0.379 OA
ATOM     16  H   UNL     1      34.900  -7.056 -26.088  0.00  0.00    +0.211 HD
ENDBRANCH   9  15
BRANCH  11  17
ATOM     17  O   UNL     1      33.898  -3.915 -26.068  0.00  0.00    -0.379 OA
ATOM     18  H   UNL     1      34.340  -4.235 -26.870  0.00  0.00    +0.211 HD
ENDBRANCH  11  17
BRANCH  12  19
ATOM     19  C   UNL     1      31.215  -3.954 -24.830  0.00  0.00    +0.169 C 
BRANCH  19  20
ATOM     20  O   UNL     1      30.194  -3.972 -23.851  0.00  0.00    -0.379 OA
ATOM     21  H   UNL     1      29.885  -3.067 -23.689  0.00  0.00    +0.211 HD
ENDBRANCH  19  20
ENDBRANCH  12  19
ENDBRANCH   1  10
BRANCH   5  22
ATOM     22  C   UNL     1      31.069 -10.280 -19.132  0.00  0.00    +0.026 C 
ATOM     23  C   UNL     1      31.865 -10.373 -17.834  0.00  0.00    +0.005 C 
ENDBRANCH   5  22
BRANCH   4  24
ATOM     24  C   UNL     1      31.132 -10.725 -22.029  0.00  0.00    +0.052 C 
BRANCH  24  27
ATOM     25  O   UNL     1      33.471 -14.670 -20.368  0.00  0.00    -0.468 OA
ATOM     26  O   UNL     1      35.101 -14.715 -22.746  0.00  0.00    -0.468 OA
ATOM     27  C   UNL     1      32.194 -11.792 -22.199  0.00  0.00    -0.015 C 
ATOM     28  C   UNL     1      32.360 -12.770 -21.219  0.00  0.00    +0.036 C 
ATOM     29  C   UNL     1      33.009 -11.790 -23.332  0.00  0.00    -0.001 C 
ATOM     30  C   UNL     1      33.344 -13.747 -21.374  0.00  0.00    +0.172 C 
ATOM     31  C   UNL     1      34.140 -13.763 -22.521  0.00  0.00    +0.172 C 
ATOM     32  C   UNL     1      33.984 -12.775 -23.493  0.00  0.00    +0.040 C 
ATOM     33  C   UNL     1      34.704 -15.390 -20.458  0.00  0.00    +0.253 C 
ATOM     34  C   UNL     1      34.943 -15.844 -21.884  0.00  0.00    +0.253 C 
ENDBRANCH  24  27
ENDBRANCH   4  24
TORSDOF 9
ENDMDL
MODEL 5
REMARK VINA RESULT:     -10.4      2.476      7.034
REMARK  Name = 52913524
REMARK  9 active torsions:
REMARK  status: ('A' for Active; 'I' for Inactive)
REMARK    1  A    between atoms: C_1  and  C_10
REMARK    2  A    between atoms: C_4  and  C_24
REMARK    3  A    between atoms: C_5  and  C_22
REMARK    4  A    between atoms: C_8  and  O_13
REMARK    5  A    between atoms: C_9  and  O_15
REMARK    6  A    between atoms: C_11  and  O_17
REMARK    7  A    between atoms: C_12  and  C_19
REMARK    8  A    between atoms: C_19  and  O_20
REMARK    9  A    between atoms: C_24  and  C_27
REMARK                            x       y       z     vdW  Elec       q    Type
REMARK                         _______ _______ _______ _____ _____    ______ ____
ROOT
ATOM      1  C   UNL     1      33.582 -22.928 -17.056  0.00  0.00    +0.007 C 
ATOM      2  C   UNL     1      34.836 -22.735 -16.475  0.00  0.00    -0.006 C 
ATOM      3  C   UNL     1      33.333 -22.463 -18.347  0.00  0.00    -0.002 C 
ATOM      4  C   UNL     1      35.840 -22.076 -17.185  0.00  0.00    -0.022 C 
ATOM      5  C   UNL     1      35.589 -21.611 -18.477  0.00  0.00    -0.026 C 
ATOM      6  C   UNL     1      34.336 -21.804 -19.057  0.00  0.00    -0.005 C 
ENDROOT
BRANCH   1  10
ATOM      7  O   UNL     1      31.272 -22.924 -16.484  0.00  0.00    -0.347 OA
ATOM      8  C   UNL     1      32.823 -23.752 -14.787  0.00  0.00    +0.171 C 
ATOM      9  C   UNL     1      31.641 -24.333 -14.005  0.00  0.00    +0.169 C 
ATOM     10  C   UNL     1      32.492 -23.644 -16.284  0.00  0.00    +0.167 C 
ATOM     11  C   UNL     1      30.336 -23.622 -14.360  0.00  0.00    +0.169 C 
ATOM     12  C   UNL     1      30.146 -23.559 -15.877  0.00  0.00    +0.174 C 
BRANCH   8  13
ATOM     13  O   UNL     1      33.951 -24.611 -14.629  0.00  0.00    -0.379 OA
ATOM     14  H   UNL     1      34.758 -24.137 -14.885  0.00  0.00    +0.211 HD
ENDBRANCH   8  13
BRANCH   9  15
ATOM     15  O   UNL     1      31.869 -24.163 -12.605  0.00  0.00    -0.379 OA
ATOM     16  H   UNL     1      32.132 -23.246 -12.429  0.00  0.00    +0.211 HD
ENDBRANCH   9  15
BRANCH  11  17
ATOM     17  O   UNL     1      29.242 -24.328 -13.779  0.00  0.00    -0.379 OA
ATOM     18  H   UNL     1      28.986 -23.899 -12.947  0.00  0.00    +0.211 HD
ENDBRANCH  11  17
BRANCH  12  19
ATOM     19  C   UNL     1      28.906 -22.757 -16.259  0.00  0.00    +0.169 C 
BRANCH  19  20
ATOM     20  O   UNL     1      28.475 -22.027 -15.126  0.00  0.00    -0.379 OA
ATOM     21  H   UNL     1      29.151 -22.077 -14.432  0.00  0.00    +0.211 HD
ENDBRANCH  19  20
ENDBRANCH  12  19
ENDBRANCH   1  10
BRANCH   5  22
ATOM     22  C   UNL     1      36.648 -20.903 -19.256  0.00  0.00    +0.026 C 
ATOM     23  C   UNL     1      36.063 -19.976 -20.317  0.00  0.00    +0.005 C 
ENDBRANCH   5  22
BRANCH   4  24
ATOM     24  C   UNL     1      37.173 -21.881 -16.543  0.00  0.00    +0.052 C 
BRANCH  24  27
ATOM     25  O   UNL     1      36.102 -23.204 -11.972  0.00  0.00    -0.468 OA
ATOM     26  O   UNL     1      38.093 -25.286 -12.099  0.00  0.00    -0.468 OA
ATOM     27  C   UNL     1      37.413 -22.774 -15.343  0.00  0.00    -0.015 C 
ATOM     28  C   UNL     1      36.646 -22.609 -14.189  0.00  0.00    +0.036 C 
ATOM     29  C   UNL     1      38.403 -23.756 -15.391  0.00  0.00    -0.001 C 
ATOM     30  C   UNL     1      36.873 -23.428 -13.083  0.00  0.00    +0.172 C 
ATOM     31  C   UNL     1      37.845 -24.429 -13.140  0.00  0.00    +0.172 C 
ATOM     32  C   UNL     1      38.621 -24.584 -14.289  0.00  0.00    +0.040 C 
ATOM     33  C   UNL     1      36.641 -23.843 -10.811  0.00  0.00    +0.253 C 
ATOM     34  C   UNL     1      37.038 -25.270 -11.135  0.00  0.00    +0.253 C 
ENDBRANCH  24  27
ENDBRANCH   4  24
TORSDOF 9
ENDMDL
MODEL 6
REMARK VINA RESULT:     -10.3      2.478      5.548
REMARK  Name = 52913524
REMARK  9 active torsions:
REMARK  status: ('A' for Active; 'I' for Inactive)
REMARK    1  A    between atoms: C_1  and  C_10
REMARK    2  A    between atoms: C_4  and  C_24
REMARK    3  A    between atoms: C_5  and  C_22
REMARK    4  A    between atoms: C_8  and  O_13
REMARK    5  A    between atoms: C_9  and  O_15
REMARK    6  A    between atoms: C_11  and  O_17
REMARK    7  A    between atoms: C_12  and  C_19
REMARK    8  A    between atoms: C_19  and  O_20
REMARK    9  A    between atoms: C_24  and  C_27
REMARK                            x       y       z     vdW  Elec       q    Type
REMARK                         _______ _______ _______ _____ _____    ______ ____
ROOT
ATOM      1  C   UNL     1      36.640 -22.728 -15.739  0.00  0.00    +0.007 C 
ATOM      2  C   UNL     1      35.357 -22.986 -16.223  0.00  0.00    -0.006 C 
ATOM      3  C   UNL     1      37.513 -21.923 -16.470  0.00  0.00    -0.002 C 
ATOM      4  C   UNL     1      34.948 -22.439 -17.440  0.00  0.00    -0.022 C 
ATOM      5  C   UNL     1      35.823 -21.634 -18.171  0.00  0.00    -0.026 C 
ATOM      6  C   UNL     1      37.104 -21.376 -17.687  0.00  0.00    -0.005 C 
ENDROOT
BRANCH   1  10
ATOM      7  O   UNL     1      38.085 -24.306 -14.696  0.00  0.00    -0.347 OA
ATOM      8  C   UNL     1      35.910 -23.941 -13.642  0.00  0.00    +0.171 C 
ATOM      9  C   UNL     1      36.405 -24.674 -12.391  0.00  0.00    +0.169 C 
ATOM     10  C   UNL     1      37.084 -23.322 -14.417  0.00  0.00    +0.167 C 
ATOM     11  C   UNL     1      37.569 -25.608 -12.718  0.00  0.00    +0.169 C 
ATOM     12  C   UNL     1      38.649 -24.873 -13.513  0.00  0.00    +0.174 C 
BRANCH   8  13
ATOM     13  O   UNL     1      35.021 -22.898 -13.248  0.00  0.00    -0.379 OA
ATOM     14  H   UNL     1      35.533 -22.123 -12.969  0.00  0.00    +0.211 HD
ENDBRANCH   8  13
BRANCH   9  15
ATOM     15  O   UNL     1      35.343 -25.463 -11.852  0.00  0.00    -0.379 OA
ATOM     16  H   UNL     1      35.184 -25.205 -10.931  0.00  0.00    +0.211 HD
ENDBRANCH   9  15
BRANCH  11  17
ATOM     17  O   UNL     1      38.132 -26.100 -11.504  0.00  0.00    -0.379 OA
ATOM     18  H   UNL     1      38.649 -25.397 -11.080  0.00  0.00    +0.211 HD
ENDBRANCH  11  17
BRANCH  12  19
ATOM     19  C   UNL     1      39.770 -25.813 -13.947  0.00  0.00    +0.169 C 
BRANCH  19  20
ATOM     20  O   UNL     1      40.920 -25.040 -14.236  0.00  0.00    -0.379 OA
ATOM     21  H   UNL     1      40.899 -24.223 -13.713  0.00  0.00    +0.211 HD
ENDBRANCH  19  20
ENDBRANCH  12  19
ENDBRANCH   1  10
BRANCH   5  22
ATOM     22  C   UNL     1      35.408 -21.038 -19.476  0.00  0.00    +0.026 C 
ATOM     23  C   UNL     1      36.415 -20.016 -19.992  0.00  0.00    +0.005 C 
ENDBRANCH   5  22
BRANCH   4  24
ATOM     24  C   UNL     1      33.571 -22.729 -17.938  0.00  0.00    +0.052 C 
BRANCH  24  27
ATOM     25  O   UNL     1      32.456 -24.797 -13.664  0.00  0.00    -0.468 OA
ATOM     26  O   UNL     1      29.781 -23.737 -13.840  0.00  0.00    -0.468 OA
ATOM     27  C   UNL     1      32.569 -23.017 -16.840  0.00  0.00    -0.015 C 
ATOM     28  C   UNL     1      32.952 -23.767 -15.728  0.00  0.00    +0.036 C 
ATOM     29  C   UNL     1      31.263 -22.536 -16.943  0.00  0.00    -0.001 C 
ATOM     30  C   UNL     1      32.026 -24.037 -14.721  0.00  0.00    +0.172 C 
ATOM     31  C   UNL     1      30.727 -23.533 -14.811  0.00  0.00    +0.172 C 
ATOM     32  C   UNL     1      30.340 -22.795 -15.930  0.00  0.00    +0.040 C 
ATOM     33  C   UNL     1      31.364 -25.296 -12.886  0.00  0.00    +0.253 C 
ATOM     34  C   UNL     1      30.364 -24.189 -12.615  0.00  0.00    +0.253 C 
ENDBRANCH  24  27
ENDBRANCH   4  24
TORSDOF 9
ENDMDL
MODEL 7
REMARK VINA RESULT:     -10.3      2.401      5.234
REMARK  Name = 52913524
REMARK  9 active torsions:
REMARK  status: ('A' for Active; 'I' for Inactive)
REMARK    1  A    between atoms: C_1  and  C_10
REMARK    2  A    between atoms: C_4  and  C_24
REMARK    3  A    between atoms: C_5  and  C_22
REMARK    4  A    between atoms: C_8  and  O_13
REMARK    5  A    between atoms: C_9  and  O_15
REMARK    6  A    between atoms: C_11  and  O_17
REMARK    7  A    between atoms: C_12  and  C_19
REMARK    8  A    between atoms: C_19  and  O_20
REMARK    9  A    between atoms: C_24  and  C_27
REMARK                            x       y       z     vdW  Elec       q    Type
REMARK                         _______ _______ _______ _____ _____    ______ ____
ROOT
ATOM      1  C   UNL     1      36.793 -22.695 -15.520  0.00  0.00    +0.007 C 
ATOM      2  C   UNL     1      35.573 -23.057 -16.093  0.00  0.00    -0.006 C 
ATOM      3  C   UNL     1      37.611 -21.761 -16.154  0.00  0.00    -0.002 C 
ATOM      4  C   UNL     1      35.173 -22.484 -17.300  0.00  0.00    -0.022 C 
ATOM      5  C   UNL     1      35.993 -21.549 -17.934  0.00  0.00    -0.026 C 
ATOM      6  C   UNL     1      37.211 -21.188 -17.362  0.00  0.00    -0.005 C 
ENDROOT
BRANCH   1  10
ATOM      7  O   UNL     1      38.230 -24.294 -14.500  0.00  0.00    -0.347 OA
ATOM      8  C   UNL     1      36.048 -23.952 -13.455  0.00  0.00    +0.171 C 
ATOM      9  C   UNL     1      36.534 -24.711 -12.216  0.00  0.00    +0.169 C 
ATOM     10  C   UNL     1      37.227 -23.317 -14.207  0.00  0.00    +0.167 C 
ATOM     11  C   UNL     1      37.700 -25.638 -12.554  0.00  0.00    +0.169 C 
ATOM     12  C   UNL     1      38.786 -24.886 -13.325  0.00  0.00    +0.174 C 
BRANCH   8  13
ATOM     13  O   UNL     1      35.155 -22.918 -13.045  0.00  0.00    -0.379 OA
ATOM     14  H   UNL     1      34.807 -23.121 -12.163  0.00  0.00    +0.211 HD
ENDBRANCH   8  13
BRANCH   9  15
ATOM     15  O   UNL     1      35.468 -25.512 -11.702  0.00  0.00    -0.379 OA
ATOM     16  H   UNL     1      34.670 -24.968 -11.610  0.00  0.00    +0.211 HD
ENDBRANCH   9  15
BRANCH  11  17
ATOM     17  O   UNL     1      38.255 -26.156 -11.347  0.00  0.00    -0.379 OA
ATOM     18  H   UNL     1      37.542 -26.331 -10.713  0.00  0.00    +0.211 HD
ENDBRANCH  11  17
BRANCH  12  19
ATOM     19  C   UNL     1      39.911 -25.817 -13.771  0.00  0.00    +0.169 C 
BRANCH  19  20
ATOM     20  O   UNL     1      40.994 -25.028 -14.225  0.00  0.00    -0.379 OA
ATOM     21  H   UNL     1      41.050 -24.218 -13.694  0.00  0.00    +0.211 HD
ENDBRANCH  19  20
ENDBRANCH  12  19
ENDBRANCH   1  10
BRANCH   5  22
ATOM     22  C   UNL     1      35.586 -20.924 -19.228  0.00  0.00    +0.026 C 
ATOM     23  C   UNL     1      36.721 -20.133 -19.871  0.00  0.00    +0.005 C 
ENDBRANCH   5  22
BRANCH   4  24
ATOM     24  C   UNL     1      33.864 -22.887 -17.895  0.00  0.00    +0.052 C 
BRANCH  24  27
ATOM     25  O   UNL     1      29.225 -22.393 -16.471  0.00  0.00    -0.468 OA
ATOM     26  O   UNL     1      29.810 -23.826 -14.039  0.00  0.00    -0.468 OA
ATOM     27  C   UNL     1      32.771 -23.119 -16.871  0.00  0.00    -0.015 C 
ATOM     28  C   UNL     1      31.476 -22.668 -17.123  0.00  0.00    +0.036 C 
ATOM     29  C   UNL     1      33.063 -23.779 -15.677  0.00  0.00    -0.001 C 
ATOM     30  C   UNL     1      30.473 -22.877 -16.176  0.00  0.00    +0.172 C 
ATOM     31  C   UNL     1      30.759 -23.561 -14.993  0.00  0.00    +0.172 C 
ATOM     32  C   UNL     1      32.058 -23.999 -14.736  0.00  0.00    +0.040 C 
ATOM     33  C   UNL     1      28.383 -22.350 -15.316  0.00  0.00    +0.253 C 
ATOM     34  C   UNL     1      28.484 -23.650 -14.544  0.00  0.00    +0.253 C 
ENDBRANCH  24  27
ENDBRANCH   4  24
TORSDOF 9
ENDMDL
MODEL 8
REMARK VINA RESULT:      -9.9      1.532      2.585
REMARK  Name = 52913524
REMARK  9 active torsions:
REMARK  status: ('A' for Active; 'I' for Inactive)
REMARK    1  A    between atoms: C_1  and  C_10
REMARK    2  A    between atoms: C_4  and  C_24
REMARK    3  A    between atoms: C_5  and  C_22
REMARK    4  A    between atoms: C_8  and  O_13
REMARK    5  A    between atoms: C_9  and  O_15
REMARK    6  A    between atoms: C_11  and  O_17
REMARK    7  A    between atoms: C_12  and  C_19
REMARK    8  A    between atoms: C_19  and  O_20
REMARK    9  A    between atoms: C_24  and  C_27
REMARK                            x       y       z     vdW  Elec       q    Type
REMARK                         _______ _______ _______ _____ _____    ______ ____
ROOT
ATOM      1  C   UNL     1      34.231 -23.617 -14.359  0.00  0.00    +0.007 C 
ATOM      2  C   UNL     1      34.310 -23.758 -15.744  0.00  0.00    -0.006 C 
ATOM      3  C   UNL     1      33.053 -23.157 -13.770  0.00  0.00    -0.002 C 
ATOM      4  C   UNL     1      33.211 -23.437 -16.541  0.00  0.00    -0.022 C 
ATOM      5  C   UNL     1      32.033 -22.977 -15.952  0.00  0.00    -0.026 C 
ATOM      6  C   UNL     1      31.954 -22.837 -14.567  0.00  0.00    -0.005 C 
ENDROOT
BRANCH   1  10
ATOM      7  O   UNL     1      34.928 -24.454 -12.242  0.00  0.00    -0.347 OA
ATOM      8  C   UNL     1      36.353 -22.761 -13.279  0.00  0.00    +0.171 C 
ATOM      9  C   UNL     1      37.461 -23.092 -12.275  0.00  0.00    +0.169 C 
ATOM     10  C   UNL     1      35.425 -23.966 -13.493  0.00  0.00    +0.167 C 
ATOM     11  C   UNL     1      36.892 -23.741 -11.014  0.00  0.00    +0.169 C 
ATOM     12  C   UNL     1      35.966 -24.904 -11.371  0.00  0.00    +0.174 C 
BRANCH   8  13
ATOM     13  O   UNL     1      36.947 -22.413 -14.529  0.00  0.00    -0.379 OA
ATOM     14  H   UNL     1      36.461 -22.842 -15.250  0.00  0.00    +0.211 HD
ENDBRANCH   8  13
BRANCH   9  15
ATOM     15  O   UNL     1      38.128 -21.889 -11.890  0.00  0.00    -0.379 OA
ATOM     16  H   UNL     1      39.064 -21.945 -12.137  0.00  0.00    +0.211 HD
ENDBRANCH   9  15
BRANCH  11  17
ATOM     17  O   UNL     1      37.964 -24.224 -10.208  0.00  0.00    -0.379 OA
ATOM     18  H   UNL     1      38.670 -23.558 -10.177  0.00  0.00    +0.211 HD
ENDBRANCH  11  17
BRANCH  12  19
ATOM     19  C   UNL     1      35.299 -25.497 -10.134  0.00  0.00    +0.169 C 
BRANCH  19  20
ATOM     20  O   UNL     1      35.460 -24.592  -9.058  0.00  0.00    -0.379 OA
ATOM     21  H   UNL     1      36.405 -24.467  -8.879  0.00  0.00    +0.211 HD
ENDBRANCH  19  20
ENDBRANCH  12  19
ENDBRANCH   1  10
BRANCH   5  22
ATOM     22  C   UNL     1      30.844 -22.627 -16.785  0.00  0.00    +0.026 C 
ATOM     23  C   UNL     1      29.531 -22.845 -16.040  0.00  0.00    +0.005 C 
ENDBRANCH   5  22
BRANCH   4  24
ATOM     24  C   UNL     1      33.319 -23.595 -18.022  0.00  0.00    +0.052 C 
BRANCH  24  27
ATOM     25  O   UNL     1      36.838 -20.697 -19.756  0.00  0.00    -0.468 OA
ATOM     26  O   UNL     1      34.848 -18.872 -20.767  0.00  0.00    -0.468 OA
ATOM     27  C   UNL     1      33.746 -22.333 -18.744  0.00  0.00    -0.015 C 
ATOM     28  C   UNL     1      35.101 -22.073 -18.946  0.00  0.00    +0.036 C 
ATOM     29  C   UNL     1      32.784 -21.431 -19.199  0.00  0.00    -0.001 C 
ATOM     30  C   UNL     1      35.492 -20.907 -19.605  0.00  0.00    +0.172 C 
ATOM     31  C   UNL     1      34.528 -20.017 -20.085  0.00  0.00    +0.172 C 
ATOM     32  C   UNL     1      33.174 -20.272 -19.869  0.00  0.00    +0.040 C 
ATOM     33  C   UNL     1      37.129 -19.344 -20.118  0.00  0.00    +0.253 C 
ATOM     34  C   UNL     1      36.202 -18.887 -21.227  0.00  0.00    +0.253 C 
ENDBRANCH  24  27
ENDBRANCH   4  24
TORSDOF 9
ENDMDL
MODEL 9
REMARK VINA RESULT:      -9.8     11.097     17.019
REMARK  Name = 52913524
REMARK  9 active torsions:
REMARK  status: ('A' for Active; 'I' for Inactive)
REMARK    1  A    between atoms: C_1  and  C_10
REMARK    2  A    between atoms: C_4  and  C_24
REMARK    3  A    between atoms: C_5  and  C_22
REMARK    4  A    between atoms: C_8  and  O_13
REMARK    5  A    between atoms: C_9  and  O_15
REMARK    6  A    between atoms: C_11  and  O_17
REMARK    7  A    between atoms: C_12  and  C_19
REMARK    8  A    between atoms: C_19  and  O_20
REMARK    9  A    between atoms: C_24  and  C_27
REMARK                            x       y       z     vdW  Elec       q    Type
REMARK                         _______ _______ _______ _____ _____    ______ ____
ROOT
ATOM      1  C   UNL     1      31.601  -7.586 -21.892  0.00  0.00    +0.007 C 
ATOM      2  C   UNL     1      31.211  -8.872 -22.268  0.00  0.00    -0.006 C 
ATOM      3  C   UNL     1      32.076  -7.350 -20.602  0.00  0.00    -0.002 C 
ATOM      4  C   UNL     1      31.295  -9.921 -21.352  0.00  0.00    -0.022 C 
ATOM      5  C   UNL     1      31.770  -9.684 -20.061  0.00  0.00    -0.026 C 
ATOM      6  C   UNL     1      32.160  -8.399 -19.686  0.00  0.00    -0.005 C 
ENDROOT
BRANCH   1  10
ATOM      7  O   UNL     1      32.785  -6.326 -23.527  0.00  0.00    -0.347 OA
ATOM      8  C   UNL     1      31.110  -5.125 -22.213  0.00  0.00    +0.171 C 
ATOM      9  C   UNL     1      31.182  -3.960 -23.205  0.00  0.00    +0.169 C 
ATOM     10  C   UNL     1      31.511  -6.446 -22.887  0.00  0.00    +0.167 C 
ATOM     11  C   UNL     1      32.507  -3.958 -23.966  0.00  0.00    +0.169 C 
ATOM     12  C   UNL     1      32.796  -5.338 -24.559  0.00  0.00    +0.174 C 
BRANCH   8  13
ATOM     13  O   UNL     1      29.773  -5.244 -21.732  0.00  0.00    -0.379 OA
ATOM     14  H   UNL     1      29.678  -4.737 -20.910  0.00  0.00    +0.211 HD
ENDBRANCH   8  13
BRANCH   9  15
ATOM     15  O   UNL     1      31.079  -2.725 -22.494  0.00  0.00    -0.379 OA
ATOM     16  H   UNL     1      30.239  -2.293 -22.716  0.00  0.00    +0.211 HD
ENDBRANCH   9  15
BRANCH  11  17
ATOM     17  O   UNL     1      32.444  -2.999 -25.018  0.00  0.00    -0.379 OA
ATOM     18  H   UNL     1      32.579  -3.444 -25.870  0.00  0.00    +0.211 HD
ENDBRANCH  11  17
BRANCH  12  19
ATOM     19  C   UNL     1      34.165  -5.391 -25.229  0.00  0.00    +0.169 C 
BRANCH  19  20
ATOM     20  O   UNL     1      35.084  -5.981 -24.328  0.00  0.00    -0.379 OA
ATOM     21  H   UNL     1      35.908  -6.190 -24.797  0.00  0.00    +0.211 HD
ENDBRANCH  19  20
ENDBRANCH  12  19
ENDBRANCH   1  10
BRANCH   5  22
ATOM     22  C   UNL     1      31.868 -10.792 -19.064  0.00  0.00    +0.026 C 
ATOM     23  C   UNL     1      31.812 -10.283 -17.627  0.00  0.00    +0.005 C 
ENDBRANCH   5  22
BRANCH   4  24
ATOM     24  C   UNL     1      30.871 -11.289 -21.776  0.00  0.00    +0.052 C 
BRANCH  24  27
ATOM     25  O   UNL     1      33.574 -15.134 -20.474  0.00  0.00    -0.468 OA
ATOM     26  O   UNL     1      35.182 -14.818 -22.845  0.00  0.00    -0.468 OA
ATOM     27  C   UNL     1      32.025 -12.234 -22.040  0.00  0.00    -0.015 C 
ATOM     28  C   UNL     1      32.287 -13.277 -21.152  0.00  0.00    +0.036 C 
ATOM     29  C   UNL     1      32.828 -12.057 -23.168  0.00  0.00    -0.001 C 
ATOM     30  C   UNL     1      33.354 -14.142 -21.393  0.00  0.00    +0.172 C 
ATOM     31  C   UNL     1      34.141 -13.982 -22.536  0.00  0.00    +0.172 C 
ATOM     32  C   UNL     1      33.887 -12.930 -23.417  0.00  0.00    +0.040 C 
ATOM     33  C   UNL     1      34.867 -15.727 -20.627  0.00  0.00    +0.253 C 
ATOM     34  C   UNL     1      35.135 -16.030 -22.088  0.00  0.00    +0.253 C 
ENDBRANCH  24  27
ENDBRANCH   4  24
TORSDOF 9
ENDMDL
