MODEL 1
REMARK VINA RESULT:     -11.4      0.000      0.000
REMARK  Name = 11610526
REMARK  3 active torsions:
REMARK  status: ('A' for Active; 'I' for Inactive)
REMARK    1  A    between atoms: C_2  and  C_21
REMARK    2  A    between atoms: C_9  and  C_14
REMARK    3  A    between atoms: C_21  and  C_23
REMARK                            x       y       z     vdW  Elec       q    Type
REMARK                         _______ _______ _______ _____ _____    ______ ____
ROOT
ATOM      1  N   UNL     1      35.016 -16.733 -21.943  0.00  0.00    -0.388 NA
ATOM      2  C   UNL     1      35.358 -17.994 -22.221  0.00  0.00    +0.167 C 
ATOM      3  C   UNL     1      35.220 -18.635 -23.421  0.00  0.00    +0.031 C 
ATOM      4  C   UNL     1      34.480 -16.047 -22.976  0.00  0.00    +0.167 C 
ATOM      5  C   UNL     1      34.665 -17.896 -24.460  0.00  0.00    -0.015 C 
ATOM      6  C   UNL     1      34.285 -16.576 -24.241  0.00  0.00    +0.101 C 
ATOM      7  O   UNL     1      33.255 -14.064 -24.862  0.00  0.00    -0.270 OA
ATOM      8  N   UNL     1      34.095 -14.717 -22.766  0.00  0.00    -0.259 N 
ATOM      9  C   UNL     1      33.524 -13.834 -23.688  0.00  0.00    +0.255 C 
ATOM     10  H   UNL     1      34.242 -14.362 -21.860  0.00  0.00    +0.157 HD
ENDROOT
BRANCH   9  14
ATOM     11  F   UNL     1      31.632 -13.355 -21.674  0.00  0.00    -0.204 F 
ATOM     12  F   UNL     1      34.866 -11.571 -24.661  0.00  0.00    -0.204 F 
ATOM     13  F   UNL     1      32.493  -8.703 -21.742  0.00  0.00    -0.204 F 
ATOM     14  C   UNL     1      33.250 -12.468 -23.169  0.00  0.00    +0.109 C 
ATOM     15  C   UNL     1      32.304 -12.310 -22.177  0.00  0.00    +0.149 C 
ATOM     16  C   UNL     1      33.949 -11.403 -23.697  0.00  0.00    +0.149 C 
ATOM     17  C   UNL     1      32.047 -11.028 -21.692  0.00  0.00    +0.060 C 
ATOM     18  C   UNL     1      33.691 -10.121 -23.211  0.00  0.00    +0.060 C 
ATOM     19  C   UNL     1      32.739  -9.933 -22.209  0.00  0.00    +0.145 C 
ENDBRANCH   9  14
BRANCH   2  21
ATOM     20  O   UNL     1      36.895 -18.262 -20.452  0.00  0.00    -0.289 OA
ATOM     21  C   UNL     1      35.946 -18.737 -21.071  0.00  0.00    +0.202 C 
BRANCH  21  23
ATOM     22  N   UNL     1      34.150 -21.715 -18.603  0.00  0.00    +0.386 N 
ATOM     23  C   UNL     1      35.365 -20.063 -20.688  0.00  0.00    +0.060 C 
ATOM     24  C   UNL     1      33.915 -19.876 -20.241  0.00  0.00    -0.015 C 
ATOM     25  C   UNL     1      36.188 -20.697 -19.568  0.00  0.00    -0.015 C 
ATOM     26  C   UNL     1      33.330 -21.182 -19.699  0.00  0.00    -0.077 C 
ATOM     27  C   UNL     1      35.526 -21.974 -19.049  0.00  0.00    -0.077 C 
ATOM     28  C   UNL     1      33.549 -22.934 -18.061  0.00  0.00    -0.101 C 
ATOM     29  H   UNL     1      34.186 -21.011 -17.865  0.00  0.00    -0.080 HD
ENDBRANCH  21  23
ENDBRANCH   2  21
TORSDOF 3
ENDMDL
MODEL 2
REMARK VINA RESULT:     -11.2      3.680      6.381
REMARK  Name = 11610526
REMARK  3 active torsions:
REMARK  status: ('A' for Active; 'I' for Inactive)
REMARK    1  A    between atoms: C_2  and  C_21
REMARK    2  A    between atoms: C_9  and  C_14
REMARK    3  A    between atoms: C_21  and  C_23
REMARK                            x       y       z     vdW  Elec       q    Type
REMARK                         _______ _______ _______ _____ _____    ______ ____
ROOT
ATOM      1  N   UNL     1      34.422 -21.383 -19.244  0.00  0.00    -0.388 NA
ATOM      2  C   UNL     1      34.797 -22.166 -18.230  0.00  0.00    +0.167 C 
ATOM      3  C   UNL     1      36.017 -22.177 -17.611  0.00  0.00    +0.031 C 
ATOM      4  C   UNL     1      35.369 -20.525 -19.683  0.00  0.00    +0.167 C 
ATOM      5  C   UNL     1      36.965 -21.280 -18.090  0.00  0.00    -0.015 C 
ATOM      6  C   UNL     1      36.642 -20.434 -19.146  0.00  0.00    +0.101 C 
ATOM      7  O   UNL     1      37.036 -18.446 -21.056  0.00  0.00    -0.270 OA
ATOM      8  N   UNL     1      35.054 -19.669 -20.745  0.00  0.00    -0.259 N 
ATOM      9  C   UNL     1      35.876 -18.713 -21.350  0.00  0.00    +0.255 C 
ATOM     10  H   UNL     1      34.144 -19.751 -21.111  0.00  0.00    +0.157 HD
ENDROOT
BRANCH   9  14
ATOM     11  F   UNL     1      34.935 -19.929 -23.695  0.00  0.00    -0.204 F 
ATOM     12  F   UNL     1      35.544 -15.931 -21.203  0.00  0.00    -0.204 F 
ATOM     13  F   UNL     1      33.494 -15.784 -25.464  0.00  0.00    -0.204 F 
ATOM     14  C   UNL     1      35.242 -17.934 -22.445  0.00  0.00    +0.109 C 
ATOM     15  C   UNL     1      34.803 -18.601 -23.570  0.00  0.00    +0.149 C 
ATOM     16  C   UNL     1      35.113 -16.568 -22.301  0.00  0.00    +0.149 C 
ATOM     17  C   UNL     1      34.208 -17.869 -24.597  0.00  0.00    +0.060 C 
ATOM     18  C   UNL     1      34.518 -15.836 -23.330  0.00  0.00    +0.060 C 
ATOM     19  C   UNL     1      34.066 -16.487 -24.478  0.00  0.00    +0.145 C 
ENDBRANCH   9  14
BRANCH   2  21
ATOM     20  O   UNL     1      33.429 -24.075 -18.448  0.00  0.00    -0.289 OA
ATOM     21  C   UNL     1      33.743 -23.107 -17.759  0.00  0.00    +0.202 C 
BRANCH  21  23
ATOM     22  N   UNL     1      31.504 -23.931 -14.224  0.00  0.00    +0.386 N 
ATOM     23  C   UNL     1      33.077 -22.854 -16.441  0.00  0.00    +0.060 C 
ATOM     24  C   UNL     1      33.687 -23.767 -15.377  0.00  0.00    -0.015 C 
ATOM     25  C   UNL     1      31.573 -23.099 -16.553  0.00  0.00    -0.015 C 
ATOM     26  C   UNL     1      32.935 -23.649 -14.049  0.00  0.00    -0.077 C 
ATOM     27  C   UNL     1      30.893 -23.003 -15.186  0.00  0.00    -0.077 C 
ATOM     28  C   UNL     1      30.809 -23.866 -12.938  0.00  0.00    -0.101 C 
ATOM     29  H   UNL     1      31.412 -24.876 -14.598  0.00  0.00    -0.080 HD
ENDBRANCH  21  23
ENDBRANCH   2  21
TORSDOF 3
ENDMDL
MODEL 3
REMARK VINA RESULT:     -10.9      3.780      9.137
REMARK  Name = 11610526
REMARK  3 active torsions:
REMARK  status: ('A' for Active; 'I' for Inactive)
REMARK    1  A    between atoms: C_2  and  C_21
REMARK    2  A    between atoms: C_9  and  C_14
REMARK    3  A    between atoms: C_21  and  C_23
REMARK                            x       y       z     vdW  Elec       q    Type
REMARK                         _______ _______ _______ _____ _____    ______ ____
ROOT
ATOM      1  N   UNL     1      34.602 -16.001 -21.476  0.00  0.00    -0.388 NA
ATOM      2  C   UNL     1      34.562 -15.047 -22.410  0.00  0.00    +0.167 C 
ATOM      3  C   UNL     1      34.689 -15.217 -23.761  0.00  0.00    +0.031 C 
ATOM      4  C   UNL     1      34.788 -17.254 -21.948  0.00  0.00    +0.167 C 
ATOM      5  C   UNL     1      34.879 -16.520 -24.209  0.00  0.00    -0.015 C 
ATOM      6  C   UNL     1      34.931 -17.564 -23.291  0.00  0.00    +0.101 C 
ATOM      7  O   UNL     1      35.175 -20.192 -22.402  0.00  0.00    -0.270 OA
ATOM      8  N   UNL     1      34.841 -18.311 -21.033  0.00  0.00    -0.259 N 
ATOM      9  C   UNL     1      35.025 -19.671 -21.302  0.00  0.00    +0.255 C 
ATOM     10  H   UNL     1      34.738 -18.068 -20.084  0.00  0.00    +0.157 HD
ENDROOT
BRANCH   9  14
ATOM     11  F   UNL     1      37.357 -20.308 -19.880  0.00  0.00    -0.204 F 
ATOM     12  F   UNL     1      32.657 -20.821 -20.333  0.00  0.00    -0.204 F 
ATOM     13  F   UNL     1      34.957 -23.014 -16.830  0.00  0.00    -0.204 F 
ATOM     14  C   UNL     1      35.007 -20.560 -20.111  0.00  0.00    +0.109 C 
ATOM     15  C   UNL     1      36.195 -20.829 -19.462  0.00  0.00    +0.149 C 
ATOM     16  C   UNL     1      33.804 -21.089 -19.694  0.00  0.00    +0.149 C 
ATOM     17  C   UNL     1      36.177 -21.664 -18.345  0.00  0.00    +0.060 C 
ATOM     18  C   UNL     1      33.788 -21.925 -18.577  0.00  0.00    +0.060 C 
ATOM     19  C   UNL     1      34.974 -22.213 -17.902  0.00  0.00    +0.145 C 
ENDBRANCH   9  14
BRANCH   2  21
ATOM     20  O   UNL     1      35.030 -13.275 -20.926  0.00  0.00    -0.289 OA
ATOM     21  C   UNL     1      34.357 -13.673 -21.874  0.00  0.00    +0.202 C 
BRANCH  21  23
ATOM     22  N   UNL     1      32.130 -10.129 -22.690  0.00  0.00    +0.386 N 
ATOM     23  C   UNL     1      33.324 -12.792 -22.505  0.00  0.00    +0.060 C 
ATOM     24  C   UNL     1      34.012 -11.638 -23.236  0.00  0.00    -0.015 C 
ATOM     25  C   UNL     1      32.368 -12.253 -21.443  0.00  0.00    -0.015 C 
ATOM     26  C   UNL     1      32.991 -10.632 -23.768  0.00  0.00    -0.077 C 
ATOM     27  C   UNL     1      31.402 -11.226 -22.037  0.00  0.00    -0.077 C 
ATOM     28  C   UNL     1      31.195  -9.129 -23.205  0.00  0.00    -0.101 C 
ATOM     29  H   UNL     1      32.727  -9.688 -21.990  0.00  0.00    -0.080 HD
ENDBRANCH  21  23
ENDBRANCH   2  21
TORSDOF 3
ENDMDL
MODEL 4
REMARK VINA RESULT:     -10.9      3.030      5.482
REMARK  Name = 11610526
REMARK  3 active torsions:
REMARK  status: ('A' for Active; 'I' for Inactive)
REMARK    1  A    between atoms: C_2  and  C_21
REMARK    2  A    between atoms: C_9  and  C_14
REMARK    3  A    between atoms: C_21  and  C_23
REMARK                            x       y       z     vdW  Elec       q    Type
REMARK                         _______ _______ _______ _____ _____    ______ ____
ROOT
ATOM      1  N   UNL     1      34.105 -20.632 -19.583  0.00  0.00    -0.388 NA
ATOM      2  C   UNL     1      34.480 -21.634 -18.783  0.00  0.00    +0.167 C 
ATOM      3  C   UNL     1      35.755 -22.084 -18.577  0.00  0.00    +0.031 C 
ATOM      4  C   UNL     1      35.114 -20.022 -20.245  0.00  0.00    +0.167 C 
ATOM      5  C   UNL     1      36.766 -21.432 -19.274  0.00  0.00    -0.015 C 
ATOM      6  C   UNL     1      36.447 -20.380 -20.126  0.00  0.00    +0.101 C 
ATOM      7  O   UNL     1      36.902 -18.320 -21.946  0.00  0.00    -0.270 OA
ATOM      8  N   UNL     1      34.804 -18.961 -21.104  0.00  0.00    -0.259 N 
ATOM      9  C   UNL     1      35.683 -18.199 -21.878  0.00  0.00    +0.255 C 
ATOM     10  H   UNL     1      33.851 -18.725 -21.173  0.00  0.00    +0.157 HD
ENDROOT
BRANCH   9  14
ATOM     11  F   UNL     1      35.322 -15.613 -20.854  0.00  0.00    -0.204 F 
ATOM     12  F   UNL     1      34.774 -18.608 -24.500  0.00  0.00    -0.204 F 
ATOM     13  F   UNL     1      33.305 -14.126 -24.867  0.00  0.00    -0.204 F 
ATOM     14  C   UNL     1      35.050 -17.115 -22.673  0.00  0.00    +0.109 C 
ATOM     15  C   UNL     1      34.906 -15.867 -22.102  0.00  0.00    +0.149 C 
ATOM     16  C   UNL     1      34.628 -17.391 -23.957  0.00  0.00    +0.149 C 
ATOM     17  C   UNL     1      34.312 -14.850 -22.850  0.00  0.00    +0.060 C 
ATOM     18  C   UNL     1      34.033 -16.373 -24.703  0.00  0.00    +0.060 C 
ATOM     19  C   UNL     1      33.875 -15.103 -24.150  0.00  0.00    +0.145 C 
ENDBRANCH   9  14
BRANCH   2  21
ATOM     20  O   UNL     1      32.198 -22.115 -18.429  0.00  0.00    -0.289 OA
ATOM     21  C   UNL     1      33.357 -22.296 -18.063  0.00  0.00    +0.202 C 
BRANCH  21  23
ATOM     22  N   UNL     1      33.982 -23.417 -13.996  0.00  0.00    +0.386 N 
ATOM     23  C   UNL     1      33.663 -23.179 -16.893  0.00  0.00    +0.060 C 
ATOM     24  C   UNL     1      32.468 -23.200 -15.940  0.00  0.00    -0.015 C 
ATOM     25  C   UNL     1      34.912 -22.682 -16.168  0.00  0.00    -0.015 C 
ATOM     26  C   UNL     1      32.794 -23.970 -14.659  0.00  0.00    -0.077 C 
ATOM     27  C   UNL     1      35.156 -23.470 -14.879  0.00  0.00    -0.077 C 
ATOM     28  C   UNL     1      34.249 -24.129 -12.747  0.00  0.00    -0.101 C 
ATOM     29  H   UNL     1      33.795 -22.437 -13.780  0.00  0.00    -0.080 HD
ENDBRANCH  21  23
ENDBRANCH   2  21
TORSDOF 3
ENDMDL
MODEL 5
REMARK VINA RESULT:     -10.8      3.424      8.306
REMARK  Name = 11610526
REMARK  3 active torsions:
REMARK  status: ('A' for Active; 'I' for Inactive)
REMARK    1  A    between atoms: C_2  and  C_21
REMARK    2  A    between atoms: C_9  and  C_14
REMARK    3  A    between atoms: C_21  and  C_23
REMARK                            x       y       z     vdW  Elec       q    Type
REMARK                         _______ _______ _______ _____ _____    ______ ____
ROOT
ATOM      1  N   UNL     1      34.233 -14.806 -22.784  0.00  0.00    -0.388 NA
ATOM      2  C   UNL     1      33.780 -13.936 -23.690  0.00  0.00    +0.167 C 
ATOM      3  C   UNL     1      33.421 -14.208 -24.981  0.00  0.00    +0.031 C 
ATOM      4  C   UNL     1      34.337 -16.081 -23.221  0.00  0.00    +0.167 C 
ATOM      5  C   UNL     1      33.541 -15.531 -25.394  0.00  0.00    -0.015 C 
ATOM      6  C   UNL     1      34.007 -16.492 -24.502  0.00  0.00    +0.101 C 
ATOM      7  O   UNL     1      34.769 -19.021 -23.619  0.00  0.00    -0.270 OA
ATOM      8  N   UNL     1      34.804 -17.056 -22.331  0.00  0.00    -0.259 N 
ATOM      9  C   UNL     1      34.988 -18.420 -22.572  0.00  0.00    +0.255 C 
ATOM     10  H   UNL     1      35.032 -16.742 -21.427  0.00  0.00    +0.157 HD
ENDROOT
BRANCH   9  14
ATOM     11  F   UNL     1      33.306 -20.131 -21.119  0.00  0.00    -0.204 F 
ATOM     12  F   UNL     1      37.649 -18.294 -21.693  0.00  0.00    -0.204 F 
ATOM     13  F   UNL     1      36.819 -21.383 -18.208  0.00  0.00    -0.204 F 
ATOM     14  C   UNL     1      35.475 -19.209 -21.411  0.00  0.00    +0.109 C 
ATOM     15  C   UNL     1      34.589 -20.030 -20.744  0.00  0.00    +0.149 C 
ATOM     16  C   UNL     1      36.798 -19.095 -21.037  0.00  0.00    +0.149 C 
ATOM     17  C   UNL     1      35.047 -20.769 -19.654  0.00  0.00    +0.060 C 
ATOM     18  C   UNL     1      37.255 -19.835 -19.946  0.00  0.00    +0.060 C 
ATOM     19  C   UNL     1      36.379 -20.672 -19.254  0.00  0.00    +0.145 C 
ENDBRANCH   9  14
BRANCH   2  21
ATOM     20  O   UNL     1      34.464 -11.681 -23.585  0.00  0.00    -0.289 OA
ATOM     21  C   UNL     1      33.673 -12.535 -23.194  0.00  0.00    +0.202 C 
BRANCH  21  23
ATOM     22  N   UNL     1      31.789 -10.645 -19.867  0.00  0.00    +0.386 N 
ATOM     23  C   UNL     1      32.592 -12.190 -22.217  0.00  0.00    +0.060 C 
ATOM     24  C   UNL     1      32.296 -10.692 -22.288  0.00  0.00    -0.015 C 
ATOM     25  C   UNL     1      33.013 -12.581 -20.802  0.00  0.00    -0.015 C 
ATOM     26  C   UNL     1      31.304 -10.270 -21.202  0.00  0.00    -0.077 C 
ATOM     27  C   UNL     1      31.997 -12.096 -19.766  0.00  0.00    -0.077 C 
ATOM     28  C   UNL     1      30.856 -10.189 -18.837  0.00  0.00    -0.101 C 
ATOM     29  H   UNL     1      32.689 -10.188 -19.719  0.00  0.00    -0.080 HD
ENDBRANCH  21  23
ENDBRANCH   2  21
TORSDOF 3
ENDMDL
MODEL 6
REMARK VINA RESULT:     -10.6      6.233     11.623
REMARK  Name = 11610526
REMARK  3 active torsions:
REMARK  status: ('A' for Active; 'I' for Inactive)
REMARK    1  A    between atoms: C_2  and  C_21
REMARK    2  A    between atoms: C_9  and  C_14
REMARK    3  A    between atoms: C_21  and  C_23
REMARK                            x       y       z     vdW  Elec       q    Type
REMARK                         _______ _______ _______ _____ _____    ______ ____
ROOT
ATOM      1  N   UNL     1      35.695 -21.650 -18.307  0.00  0.00    -0.388 NA
ATOM      2  C   UNL     1      34.992 -21.034 -19.261  0.00  0.00    +0.167 C 
ATOM      3  C   UNL     1      33.641 -21.111 -19.462  0.00  0.00    +0.031 C 
ATOM      4  C   UNL     1      34.967 -22.423 -17.471  0.00  0.00    +0.167 C 
ATOM      5  C   UNL     1      32.926 -21.916 -18.582  0.00  0.00    -0.015 C 
ATOM      6  C   UNL     1      33.594 -22.588 -17.564  0.00  0.00    +0.101 C 
ATOM      7  O   UNL     1      33.894 -24.250 -15.350  0.00  0.00    -0.270 OA
ATOM      8  N   UNL     1      35.630 -23.103 -16.442  0.00  0.00    -0.259 N 
ATOM      9  C   UNL     1      35.076 -23.948 -15.476  0.00  0.00    +0.255 C 
ATOM     10  H   UNL     1      36.604 -22.971 -16.395  0.00  0.00    +0.157 HD
ENDROOT
BRANCH   9  14
ATOM     11  F   UNL     1      35.951 -26.610 -15.585  0.00  0.00    -0.204 F 
ATOM     12  F   UNL     1      36.140 -22.401 -13.391  0.00  0.00    -0.204 F 
ATOM     13  F   UNL     1      38.703 -26.036 -11.780  0.00  0.00    -0.204 F 
ATOM     14  C   UNL     1      36.042 -24.503 -14.492  0.00  0.00    +0.109 C 
ATOM     15  C   UNL     1      36.426 -25.823 -14.609  0.00  0.00    +0.149 C 
ATOM     16  C   UNL     1      36.522 -23.682 -13.494  0.00  0.00    +0.149 C 
ATOM     17  C   UNL     1      37.332 -26.345 -13.685  0.00  0.00    +0.060 C 
ATOM     18  C   UNL     1      37.427 -24.205 -12.570  0.00  0.00    +0.060 C 
ATOM     19  C   UNL     1      37.832 -25.536 -12.666  0.00  0.00    +0.145 C 
ENDBRANCH   9  14
BRANCH   2  21
ATOM     20  O   UNL     1      37.032 -20.304 -20.193  0.00  0.00    -0.289 OA
ATOM     21  C   UNL     1      35.809 -20.187 -20.174  0.00  0.00    +0.202 C 
BRANCH  21  23
ATOM     22  N   UNL     1      35.274 -17.453 -23.403  0.00  0.00    +0.386 N 
ATOM     23  C   UNL     1      35.118 -19.199 -21.062  0.00  0.00    +0.060 C 
ATOM     24  C   UNL     1      35.066 -19.742 -22.490  0.00  0.00    -0.015 C 
ATOM     25  C   UNL     1      35.850 -17.858 -21.031  0.00  0.00    -0.015 C 
ATOM     26  C   UNL     1      34.503 -18.701 -23.459  0.00  0.00    -0.077 C 
ATOM     27  C   UNL     1      35.260 -16.881 -22.049  0.00  0.00    -0.077 C 
ATOM     28  C   UNL     1      34.757 -16.487 -24.372  0.00  0.00    -0.101 C 
ATOM     29  H   UNL     1      36.243 -17.669 -23.642  0.00  0.00    -0.080 HD
ENDBRANCH  21  23
ENDBRANCH   2  21
TORSDOF 3
ENDMDL
MODEL 7
REMARK VINA RESULT:     -10.6      6.231     11.632
REMARK  Name = 11610526
REMARK  3 active torsions:
REMARK  status: ('A' for Active; 'I' for Inactive)
REMARK    1  A    between atoms: C_2  and  C_21
REMARK    2  A    between atoms: C_9  and  C_14
REMARK    3  A    between atoms: C_21  and  C_23
REMARK                            x       y       z     vdW  Elec       q    Type
REMARK                         _______ _______ _______ _____ _____    ______ ____
ROOT
ATOM      1  N   UNL     1      35.673 -21.663 -18.302  0.00  0.00    -0.388 NA
ATOM      2  C   UNL     1      34.974 -21.047 -19.258  0.00  0.00    +0.167 C 
ATOM      3  C   UNL     1      33.623 -21.117 -19.459  0.00  0.00    +0.031 C 
ATOM      4  C   UNL     1      34.941 -22.429 -17.463  0.00  0.00    +0.167 C 
ATOM      5  C   UNL     1      32.903 -21.915 -18.576  0.00  0.00    -0.015 C 
ATOM      6  C   UNL     1      33.568 -22.587 -17.556  0.00  0.00    +0.101 C 
ATOM      7  O   UNL     1      33.859 -24.244 -15.336  0.00  0.00    -0.270 OA
ATOM      8  N   UNL     1      35.601 -23.109 -16.432  0.00  0.00    -0.259 N 
ATOM      9  C   UNL     1      35.042 -23.948 -15.463  0.00  0.00    +0.255 C 
ATOM     10  H   UNL     1      36.576 -22.983 -16.385  0.00  0.00    +0.157 HD
ENDROOT
BRANCH   9  14
ATOM     11  F   UNL     1      36.088 -22.410 -13.364  0.00  0.00    -0.204 F 
ATOM     12  F   UNL     1      35.930 -26.606 -15.584  0.00  0.00    -0.204 F 
ATOM     13  F   UNL     1      38.659 -26.044 -11.761  0.00  0.00    -0.204 F 
ATOM     14  C   UNL     1      36.005 -24.506 -14.478  0.00  0.00    +0.109 C 
ATOM     15  C   UNL     1      36.477 -23.688 -13.471  0.00  0.00    +0.149 C 
ATOM     16  C   UNL     1      36.396 -25.823 -14.601  0.00  0.00    +0.149 C 
ATOM     17  C   UNL     1      37.380 -24.212 -12.547  0.00  0.00    +0.060 C 
ATOM     18  C   UNL     1      37.300 -26.346 -13.676  0.00  0.00    +0.060 C 
ATOM     19  C   UNL     1      37.792 -25.541 -12.649  0.00  0.00    +0.145 C 
ENDBRANCH   9  14
BRANCH   2  21
ATOM     20  O   UNL     1      37.017 -20.336 -20.197  0.00  0.00    -0.289 OA
ATOM     21  C   UNL     1      35.795 -20.207 -20.174  0.00  0.00    +0.202 C 
BRANCH  21  23
ATOM     22  N   UNL     1      35.284 -17.446 -23.383  0.00  0.00    +0.386 N 
ATOM     23  C   UNL     1      35.111 -19.212 -21.059  0.00  0.00    +0.060 C 
ATOM     24  C   UNL     1      35.070 -19.743 -22.492  0.00  0.00    -0.015 C 
ATOM     25  C   UNL     1      35.841 -17.871 -21.010  0.00  0.00    -0.015 C 
ATOM     26  C   UNL     1      34.514 -18.694 -23.457  0.00  0.00    -0.077 C 
ATOM     27  C   UNL     1      35.258 -16.885 -22.025  0.00  0.00    -0.077 C 
ATOM     28  C   UNL     1      34.773 -16.472 -24.348  0.00  0.00    -0.101 C 
ATOM     29  H   UNL     1      36.254 -17.659 -23.616  0.00  0.00    -0.080 HD
ENDBRANCH  21  23
ENDBRANCH   2  21
TORSDOF 3
ENDMDL
MODEL 8
REMARK VINA RESULT:     -10.1      3.463      9.260
REMARK  Name = 11610526
REMARK  3 active torsions:
REMARK  status: ('A' for Active; 'I' for Inactive)
REMARK    1  A    between atoms: C_2  and  C_21
REMARK    2  A    between atoms: C_9  and  C_14
REMARK    3  A    between atoms: C_21  and  C_23
REMARK                            x       y       z     vdW  Elec       q    Type
REMARK                         _______ _______ _______ _____ _____    ______ ____
ROOT
ATOM      1  N   UNL     1      33.803 -14.633 -22.098  0.00  0.00    -0.388 NA
ATOM      2  C   UNL     1      33.378 -13.650 -22.895  0.00  0.00    +0.167 C 
ATOM      3  C   UNL     1      33.361 -13.653 -24.263  0.00  0.00    +0.031 C 
ATOM      4  C   UNL     1      34.258 -15.732 -22.740  0.00  0.00    +0.167 C 
ATOM      5  C   UNL     1      33.837 -14.801 -24.888  0.00  0.00    -0.015 C 
ATOM      6  C   UNL     1      34.296 -15.865 -24.119  0.00  0.00    +0.101 C 
ATOM      7  O   UNL     1      35.366 -18.383 -23.597  0.00  0.00    -0.270 OA
ATOM      8  N   UNL     1      34.721 -16.809 -21.975  0.00  0.00    -0.259 N 
ATOM      9  C   UNL     1      35.231 -18.028 -22.430  0.00  0.00    +0.255 C 
ATOM     10  H   UNL     1      34.686 -16.692 -20.998  0.00  0.00    +0.157 HD
ENDROOT
BRANCH   9  14
ATOM     11  F   UNL     1      37.855 -18.198 -21.456  0.00  0.00    -0.204 F 
ATOM     12  F   UNL     1      33.384 -19.790 -21.266  0.00  0.00    -0.204 F 
ATOM     13  F   UNL     1      36.686 -21.642 -18.431  0.00  0.00    -0.204 F 
ATOM     14  C   UNL     1      35.618 -18.990 -21.365  0.00  0.00    +0.109 C 
ATOM     15  C   UNL     1      36.929 -19.016 -20.937  0.00  0.00    +0.149 C 
ATOM     16  C   UNL     1      34.655 -19.825 -20.841  0.00  0.00    +0.149 C 
ATOM     17  C   UNL     1      37.292 -19.920 -19.938  0.00  0.00    +0.060 C 
ATOM     18  C   UNL     1      35.019 -20.729 -19.842  0.00  0.00    +0.060 C 
ATOM     19  C   UNL     1      36.338 -20.776 -19.390  0.00  0.00    +0.145 C 
ENDBRANCH   9  14
BRANCH   2  21
ATOM     20  O   UNL     1      32.741 -12.475 -20.952  0.00  0.00    -0.289 OA
ATOM     21  C   UNL     1      32.881 -12.446 -22.172  0.00  0.00    +0.202 C 
BRANCH  21  23
ATOM     22  N   UNL     1      32.431  -8.290 -23.014  0.00  0.00    +0.386 N 
ATOM     23  C   UNL     1      32.556 -11.210 -22.954  0.00  0.00    +0.060 C 
ATOM     24  C   UNL     1      33.808 -10.343 -23.085  0.00  0.00    -0.015 C 
ATOM     25  C   UNL     1      31.438 -10.429 -22.266  0.00  0.00    -0.015 C 
ATOM     26  C   UNL     1      33.486  -9.001 -23.746  0.00  0.00    -0.077 C 
ATOM     27  C   UNL     1      31.196  -9.085 -22.955  0.00  0.00    -0.077 C 
ATOM     28  C   UNL     1      32.172  -6.987 -23.627  0.00  0.00    -0.101 C 
ATOM     29  H   UNL     1      32.755  -8.142 -22.057  0.00  0.00    -0.080 HD
ENDBRANCH  21  23
ENDBRANCH   2  21
TORSDOF 3
ENDMDL
MODEL 9
REMARK VINA RESULT:     -10.1      7.395     12.386
REMARK  Name = 11610526
REMARK  3 active torsions:
REMARK  status: ('A' for Active; 'I' for Inactive)
REMARK    1  A    between atoms: C_2  and  C_21
REMARK    2  A    between atoms: C_9  and  C_14
REMARK    3  A    between atoms: C_21  and  C_23
REMARK                            x       y       z     vdW  Elec       q    Type
REMARK                         _______ _______ _______ _____ _____    ______ ____
ROOT
ATOM      1  N   UNL     1      34.347 -22.896 -17.318  0.00  0.00    -0.388 NA
ATOM      2  C   UNL     1      33.195 -22.392 -17.768  0.00  0.00    +0.167 C 
ATOM      3  C   UNL     1      31.989 -22.403 -17.123  0.00  0.00    +0.031 C 
ATOM      4  C   UNL     1      34.280 -23.470 -16.096  0.00  0.00    +0.167 C 
ATOM      5  C   UNL     1      31.959 -23.003 -15.869  0.00  0.00    -0.015 C 
ATOM      6  C   UNL     1      33.123 -23.549 -15.338  0.00  0.00    +0.101 C 
ATOM      7  O   UNL     1      34.731 -24.851 -13.473  0.00  0.00    -0.270 OA
ATOM      8  N   UNL     1      35.447 -24.022 -15.553  0.00  0.00    -0.259 N 
ATOM      9  C   UNL     1      35.600 -24.659 -14.318  0.00  0.00    +0.255 C 
ATOM     10  H   UNL     1      36.256 -23.955 -16.109  0.00  0.00    +0.157 HD
ENDROOT
BRANCH   9  14
ATOM     11  F   UNL     1      37.314 -23.206 -12.640  0.00  0.00    -0.204 F 
ATOM     12  F   UNL     1      36.655 -27.033 -15.375  0.00  0.00    -0.204 F 
ATOM     13  F   UNL     1      40.782 -26.382 -13.156  0.00  0.00    -0.204 F 
ATOM     14  C   UNL     1      36.979 -25.117 -14.008  0.00  0.00    +0.109 C 
ATOM     15  C   UNL     1      37.765 -24.349 -13.174  0.00  0.00    +0.149 C 
ATOM     16  C   UNL     1      37.429 -26.296 -14.565  0.00  0.00    +0.149 C 
ATOM     17  C   UNL     1      39.060 -24.781 -12.885  0.00  0.00    +0.060 C 
ATOM     18  C   UNL     1      38.724 -26.726 -14.276  0.00  0.00    +0.060 C 
ATOM     19  C   UNL     1      39.540 -25.968 -13.435  0.00  0.00    +0.145 C 
ENDBRANCH   9  14
BRANCH   2  21
ATOM     20  O   UNL     1      32.541 -22.137 -20.019  0.00  0.00    -0.289 OA
ATOM     21  C   UNL     1      33.285 -21.764 -19.115  0.00  0.00    +0.202 C 
BRANCH  21  23
ATOM     22  N   UNL     1      36.303 -19.516 -21.122  0.00  0.00    +0.386 N 
ATOM     23  C   UNL     1      34.291 -20.679 -19.347  0.00  0.00    +0.060 C 
ATOM     24  C   UNL     1      33.914 -19.890 -20.600  0.00  0.00    -0.015 C 
ATOM     25  C   UNL     1      35.689 -21.277 -19.496  0.00  0.00    -0.015 C 
ATOM     26  C   UNL     1      34.995 -18.868 -20.958  0.00  0.00    -0.077 C 
ATOM     27  C   UNL     1      36.710 -20.209 -19.891  0.00  0.00    -0.077 C 
ATOM     28  C   UNL     1      37.314 -18.535 -21.515  0.00  0.00    -0.101 C 
ATOM     29  H   UNL     1      36.219 -20.214 -21.862  0.00  0.00    -0.080 HD
ENDBRANCH  21  23
ENDBRANCH   2  21
TORSDOF 3
ENDMDL
