MODEL 1
REMARK VINA RESULT:     -11.8      0.000      0.000
REMARK  Name = 448903
REMARK  11 active torsions:
REMARK  status: ('A' for Active; 'I' for Inactive)
REMARK    1  A    between atoms: N_1  and  C_22
REMARK    2  A    between atoms: C_8  and  N_11
REMARK    3  A    between atoms: C_12  and  C_14
REMARK    4  A    between atoms: C_14  and  C_15
REMARK    5  A    between atoms: C_15  and  C_16
REMARK    6  A    between atoms: C_22  and  C_23
REMARK    7  A    between atoms: C_23  and  C_24
REMARK    8  A    between atoms: C_24  and  N_25
REMARK    9  A    between atoms: C_24  and  C_35
REMARK   10  A    between atoms: C_29  and  C_32
REMARK   11  A    between atoms: C_35  and  O_36
REMARK                            x       y       z     vdW  Elec       q    Type
REMARK                         _______ _______ _______ _____ _____    ______ ____
ROOT
ATOM      1  N   UNL     1      33.490 -23.306 -15.906  0.00  0.00    -0.286 N 
ATOM      2  C   UNL     1      34.303 -22.695 -16.835  0.00  0.00    +0.053 C 
ATOM      3  C   UNL     1      35.604 -22.730 -16.326  0.00  0.00    +0.015 C 
ATOM      4  C   UNL     1      34.230 -23.726 -14.834  0.00  0.00    +0.065 C 
ATOM      5  C   UNL     1      35.541 -23.384 -15.064  0.00  0.00    +0.017 C 
ATOM      6  C   UNL     1      33.990 -22.120 -18.071  0.00  0.00    +0.029 C 
ATOM      7  C   UNL     1      36.645 -22.163 -17.089  0.00  0.00    +0.003 C 
ATOM      8  C   UNL     1      35.039 -21.565 -18.810  0.00  0.00    +0.052 C 
ATOM      9  C   UNL     1      36.347 -21.585 -18.328  0.00  0.00    +0.015 C 
ENDROOT
BRANCH   8  11
ATOM     10  O   UNL     1      36.264 -19.166 -20.146  0.00  0.00    -0.275 OA
ATOM     11  N   UNL     1      34.770 -20.982 -20.050  0.00  0.00    -0.284 N 
ATOM     12  C   UNL     1      35.382 -19.867 -20.634  0.00  0.00    +0.226 C 
ATOM     13  H   UNL     1      34.059 -21.410 -20.581  0.00  0.00    +0.155 HD
BRANCH  12  14
ATOM     14  C   UNL     1      34.809 -19.538 -22.003  0.00  0.00    +0.090 C 
BRANCH  14  15
ATOM     15  C   UNL     1      35.739 -18.622 -22.800  0.00  0.00    +0.036 C 
BRANCH  15  16
ATOM     16  C   UNL     1      35.141 -17.266 -23.087  0.00  0.00    -0.022 C 
ATOM     17  C   UNL     1      35.163 -16.273 -22.109  0.00  0.00    -0.004 C 
ATOM     18  C   UNL     1      34.569 -17.006 -24.333  0.00  0.00    -0.004 C 
ATOM     19  C   UNL     1      34.610 -15.019 -22.375  0.00  0.00    -0.000 C 
ATOM     20  C   UNL     1      34.016 -15.753 -24.598  0.00  0.00    -0.000 C 
ATOM     21  C   UNL     1      34.037 -14.760 -23.619  0.00  0.00    -0.000 C 
ENDBRANCH  15  16
ENDBRANCH  14  15
ENDBRANCH  12  14
ENDBRANCH   8  11
BRANCH   1  22
ATOM     22  C   UNL     1      32.059 -23.487 -16.031  0.00  0.00    +0.097 C 
BRANCH  22  23
ATOM     23  C   UNL     1      31.245 -22.906 -14.868  0.00  0.00    +0.040 C 
BRANCH  23  24
ATOM     24  C   UNL     1      29.927 -23.650 -14.553  0.00  0.00    +0.091 C 
BRANCH  24  25
ATOM     25  N   UNL     1      28.898 -23.491 -15.595  0.00  0.00    -0.246 NA
ATOM     26  N   UNL     1      27.467 -23.872 -17.250  0.00  0.00    -0.251 NA
ATOM     27  C   UNL     1      28.224 -22.338 -15.911  0.00  0.00    +0.125 C 
ATOM     28  C   UNL     1      28.419 -24.396 -16.418  0.00  0.00    +0.201 C 
ATOM     29  C   UNL     1      27.331 -22.550 -16.935  0.00  0.00    +0.124 C 
BRANCH  29  32
ATOM     30  O   UNL     1      26.240 -20.465 -17.162  0.00  0.00    -0.269 OA
ATOM     31  N   UNL     1      25.763 -22.063 -18.715  0.00  0.00    -0.324 N 
ATOM     32  C   UNL     1      26.439 -21.636 -17.566  0.00  0.00    +0.257 C 
ATOM     33  H   UNL     1      25.139 -21.455 -19.174  0.00  0.00    +0.145 HD
ATOM     34  H   UNL     1      25.911 -22.972 -19.065  0.00  0.00    +0.145 HD
ENDBRANCH  29  32
ENDBRANCH  24  25
BRANCH  24  35
ATOM     35  C   UNL     1      30.197 -25.140 -14.288  0.00  0.00    +0.153 C 
BRANCH  35  36
ATOM     36  O   UNL     1      30.448 -25.343 -12.903  0.00  0.00    -0.381 OA
ATOM     37  H   UNL     1      31.377 -25.140 -12.709  0.00  0.00    +0.210 HD
ENDBRANCH  35  36
ENDBRANCH  24  35
ENDBRANCH  23  24
ENDBRANCH  22  23
ENDBRANCH   1  22
TORSDOF 11
ENDMDL
MODEL 2
REMARK VINA RESULT:     -11.5      1.587      2.202
REMARK  Name = 448903
REMARK  11 active torsions:
REMARK  status: ('A' for Active; 'I' for Inactive)
REMARK    1  A    between atoms: N_1  and  C_22
REMARK    2  A    between atoms: C_8  and  N_11
REMARK    3  A    between atoms: C_12  and  C_14
REMARK    4  A    between atoms: C_14  and  C_15
REMARK    5  A    between atoms: C_15  and  C_16
REMARK    6  A    between atoms: C_22  and  C_23
REMARK    7  A    between atoms: C_23  and  C_24
REMARK    8  A    between atoms: C_24  and  N_25
REMARK    9  A    between atoms: C_24  and  C_35
REMARK   10  A    between atoms: C_29  and  C_32
REMARK   11  A    between atoms: C_35  and  O_36
REMARK                            x       y       z     vdW  Elec       q    Type
REMARK                         _______ _______ _______ _____ _____    ______ ____
ROOT
ATOM      1  N   UNL     1      34.413 -24.001 -14.273  0.00  0.00    -0.286 N 
ATOM      2  C   UNL     1      35.086 -23.313 -15.258  0.00  0.00    +0.053 C 
ATOM      3  C   UNL     1      36.430 -23.265 -14.879  0.00  0.00    +0.015 C 
ATOM      4  C   UNL     1      35.282 -24.390 -13.290  0.00  0.00    +0.065 C 
ATOM      5  C   UNL     1      36.538 -23.950 -13.637  0.00  0.00    +0.017 C 
ATOM      6  C   UNL     1      34.613 -22.734 -16.441  0.00  0.00    +0.029 C 
ATOM      7  C   UNL     1      37.348 -22.608 -15.723  0.00  0.00    +0.003 C 
ATOM      8  C   UNL     1      35.543 -22.089 -17.262  0.00  0.00    +0.052 C 
ATOM      9  C   UNL     1      36.890 -22.026 -16.910  0.00  0.00    +0.015 C 
ENDROOT
BRANCH   8  11
ATOM     10  O   UNL     1      32.806 -21.967 -18.501  0.00  0.00    -0.275 OA
ATOM     11  N   UNL     1      35.113 -21.500 -18.452  0.00  0.00    -0.284 N 
ATOM     12  C   UNL     1      33.816 -21.460 -18.980  0.00  0.00    +0.226 C 
ATOM     13  H   UNL     1      35.809 -21.056 -18.989  0.00  0.00    +0.155 HD
BRANCH  12  14
ATOM     14  C   UNL     1      33.750 -20.721 -20.307  0.00  0.00    +0.090 C 
BRANCH  14  15
ATOM     15  C   UNL     1      35.120 -20.184 -20.723  0.00  0.00    +0.036 C 
BRANCH  15  16
ATOM     16  C   UNL     1      35.042 -19.064 -21.732  0.00  0.00    -0.022 C 
ATOM     17  C   UNL     1      34.614 -19.324 -23.033  0.00  0.00    -0.004 C 
ATOM     18  C   UNL     1      35.399 -17.766 -21.361  0.00  0.00    -0.004 C 
ATOM     19  C   UNL     1      34.542 -18.289 -23.965  0.00  0.00    -0.000 C 
ATOM     20  C   UNL     1      35.327 -16.731 -22.293  0.00  0.00    -0.000 C 
ATOM     21  C   UNL     1      34.899 -16.992 -23.595  0.00  0.00    -0.000 C 
ENDBRANCH  15  16
ENDBRANCH  14  15
ENDBRANCH  12  14
ENDBRANCH   8  11
BRANCH   1  22
ATOM     22  C   UNL     1      32.993 -24.282 -14.264  0.00  0.00    +0.097 C 
BRANCH  22  23
ATOM     23  C   UNL     1      32.110 -23.064 -13.959  0.00  0.00    +0.040 C 
BRANCH  23  24
ATOM     24  C   UNL     1      30.622 -23.383 -13.691  0.00  0.00    +0.091 C 
BRANCH  24  25
ATOM     25  N   UNL     1      29.731 -23.012 -14.803  0.00  0.00    -0.246 NA
ATOM     26  N   UNL     1      28.932 -22.501 -16.812  0.00  0.00    -0.251 NA
ATOM     27  C   UNL     1      28.384 -22.764 -14.727  0.00  0.00    +0.125 C 
ATOM     28  C   UNL     1      30.030 -22.845 -16.072  0.00  0.00    +0.201 C 
ATOM     29  C   UNL     1      27.866 -22.445 -15.960  0.00  0.00    +0.124 C 
BRANCH  29  32
ATOM     30  O   UNL     1      25.569 -22.097 -15.519  0.00  0.00    -0.269 OA
ATOM     31  N   UNL     1      26.275 -21.788 -17.664  0.00  0.00    -0.324 N 
ATOM     32  C   UNL     1      26.528 -22.121 -16.327  0.00  0.00    +0.257 C 
ATOM     33  H   UNL     1      25.361 -21.559 -17.949  0.00  0.00    +0.145 HD
ATOM     34  H   UNL     1      27.011 -21.783 -18.318  0.00  0.00    +0.145 HD
ENDBRANCH  29  32
ENDBRANCH  24  25
BRANCH  24  35
ATOM     35  C   UNL     1      30.443 -24.867 -13.332  0.00  0.00    +0.153 C 
BRANCH  35  36
ATOM     36  O   UNL     1      30.432 -25.021 -11.918  0.00  0.00    -0.381 OA
ATOM     37  H   UNL     1      30.490 -24.148 -11.497  0.00  0.00    +0.210 HD
ENDBRANCH  35  36
ENDBRANCH  24  35
ENDBRANCH  23  24
ENDBRANCH  22  23
ENDBRANCH   1  22
TORSDOF 11
ENDMDL
MODEL 3
REMARK VINA RESULT:     -11.5      3.619      7.555
REMARK  Name = 448903
REMARK  11 active torsions:
REMARK  status: ('A' for Active; 'I' for Inactive)
REMARK    1  A    between atoms: N_1  and  C_22
REMARK    2  A    between atoms: C_8  and  N_11
REMARK    3  A    between atoms: C_12  and  C_14
REMARK    4  A    between atoms: C_14  and  C_15
REMARK    5  A    between atoms: C_15  and  C_16
REMARK    6  A    between atoms: C_22  and  C_23
REMARK    7  A    between atoms: C_23  and  C_24
REMARK    8  A    between atoms: C_24  and  N_25
REMARK    9  A    between atoms: C_24  and  C_35
REMARK   10  A    between atoms: C_29  and  C_32
REMARK   11  A    between atoms: C_35  and  O_36
REMARK                            x       y       z     vdW  Elec       q    Type
REMARK                         _______ _______ _______ _____ _____    ______ ____
ROOT
ATOM      1  N   UNL     1      32.653 -24.809 -13.558  0.00  0.00    -0.286 N 
ATOM      2  C   UNL     1      32.052 -24.083 -14.562  0.00  0.00    +0.053 C 
ATOM      3  C   UNL     1      30.674 -24.141 -14.341  0.00  0.00    +0.015 C 
ATOM      4  C   UNL     1      31.706 -25.322 -12.714  0.00  0.00    +0.065 C 
ATOM      5  C   UNL     1      30.471 -24.925 -13.171  0.00  0.00    +0.017 C 
ATOM      6  C   UNL     1      32.617 -23.387 -15.637  0.00  0.00    +0.029 C 
ATOM      7  C   UNL     1      29.815 -23.472 -15.237  0.00  0.00    +0.003 C 
ATOM      8  C   UNL     1      31.745 -22.730 -16.511  0.00  0.00    +0.052 C 
ATOM      9  C   UNL     1      30.366 -22.771 -16.315  0.00  0.00    +0.015 C 
ENDROOT
BRANCH   8  11
ATOM     10  O   UNL     1      33.818 -23.521 -18.540  0.00  0.00    -0.275 OA
ATOM     11  N   UNL     1      32.267 -22.023 -17.595  0.00  0.00    -0.284 N 
ATOM     12  C   UNL     1      33.227 -22.445 -18.523  0.00  0.00    +0.226 C 
ATOM     13  H   UNL     1      31.916 -21.112 -17.724  0.00  0.00    +0.155 HD
BRANCH  12  14
ATOM     14  C   UNL     1      33.538 -21.381 -19.565  0.00  0.00    +0.090 C 
BRANCH  14  15
ATOM     15  C   UNL     1      35.036 -21.085 -19.640  0.00  0.00    +0.036 C 
BRANCH  15  16
ATOM     16  C   UNL     1      35.387 -20.032 -20.663  0.00  0.00    -0.022 C 
ATOM     17  C   UNL     1      34.531 -19.790 -21.737  0.00  0.00    -0.004 C 
ATOM     18  C   UNL     1      36.568 -19.300 -20.533  0.00  0.00    -0.004 C 
ATOM     19  C   UNL     1      34.856 -18.816 -22.682  0.00  0.00    -0.000 C 
ATOM     20  C   UNL     1      36.892 -18.327 -21.479  0.00  0.00    -0.000 C 
ATOM     21  C   UNL     1      36.036 -18.085 -22.553  0.00  0.00    -0.000 C 
ENDBRANCH  15  16
ENDBRANCH  14  15
ENDBRANCH  12  14
ENDBRANCH   8  11
BRANCH   1  22
ATOM     22  C   UNL     1      34.078 -25.011 -13.405  0.00  0.00    +0.097 C 
BRANCH  22  23
ATOM     23  C   UNL     1      34.742 -24.078 -12.385  0.00  0.00    +0.040 C 
BRANCH  23  24
ATOM     24  C   UNL     1      36.085 -24.583 -11.809  0.00  0.00    +0.091 C 
BRANCH  24  25
ATOM     25  N   UNL     1      37.177 -24.608 -12.796  0.00  0.00    -0.246 NA
ATOM     26  N   UNL     1      38.550 -24.096 -14.465  0.00  0.00    -0.251 NA
ATOM     27  C   UNL     1      38.145 -25.572 -12.924  0.00  0.00    +0.125 C 
ATOM     28  C   UNL     1      37.449 -23.733 -13.739  0.00  0.00    +0.201 C 
ATOM     29  C   UNL     1      39.008 -25.277 -13.952  0.00  0.00    +0.124 C 
BRANCH  29  32
ATOM     30  O   UNL     1      40.519 -26.004 -15.619  0.00  0.00    -0.269 OA
ATOM     31  N   UNL     1      40.891 -26.728 -13.490  0.00  0.00    -0.324 N 
ATOM     32  C   UNL     1      40.142 -26.000 -14.422  0.00  0.00    +0.257 C 
ATOM     33  H   UNL     1      41.681 -27.238 -13.783  0.00  0.00    +0.145 HD
ATOM     34  H   UNL     1      40.628 -26.730 -12.540  0.00  0.00    +0.145 HD
ENDBRANCH  29  32
ENDBRANCH  24  25
BRANCH  24  35
ATOM     35  C   UNL     1      36.492 -23.755 -10.579  0.00  0.00    +0.153 C 
BRANCH  35  36
ATOM     36  O   UNL     1      35.982 -24.366  -9.399  0.00  0.00    -0.381 OA
ATOM     37  H   UNL     1      35.795 -23.684  -8.736  0.00  0.00    +0.210 HD
ENDBRANCH  35  36
ENDBRANCH  24  35
ENDBRANCH  23  24
ENDBRANCH  22  23
ENDBRANCH   1  22
TORSDOF 11
ENDMDL
MODEL 4
REMARK VINA RESULT:     -11.3      3.987      6.800
REMARK  Name = 448903
REMARK  11 active torsions:
REMARK  status: ('A' for Active; 'I' for Inactive)
REMARK    1  A    between atoms: N_1  and  C_22
REMARK    2  A    between atoms: C_8  and  N_11
REMARK    3  A    between atoms: C_12  and  C_14
REMARK    4  A    between atoms: C_14  and  C_15
REMARK    5  A    between atoms: C_15  and  C_16
REMARK    6  A    between atoms: C_22  and  C_23
REMARK    7  A    between atoms: C_23  and  C_24
REMARK    8  A    between atoms: C_24  and  N_25
REMARK    9  A    between atoms: C_24  and  C_35
REMARK   10  A    between atoms: C_29  and  C_32
REMARK   11  A    between atoms: C_35  and  O_36
REMARK                            x       y       z     vdW  Elec       q    Type
REMARK                         _______ _______ _______ _____ _____    ______ ____
ROOT
ATOM      1  N   UNL     1      36.151 -23.193 -15.379  0.00  0.00    -0.286 N 
ATOM      2  C   UNL     1      35.435 -22.787 -16.483  0.00  0.00    +0.053 C 
ATOM      3  C   UNL     1      34.120 -23.223 -16.300  0.00  0.00    +0.015 C 
ATOM      4  C   UNL     1      35.337 -23.866 -14.508  0.00  0.00    +0.065 C 
ATOM      5  C   UNL     1      34.074 -23.901 -15.050  0.00  0.00    +0.017 C 
ATOM      6  C   UNL     1      35.846 -22.077 -17.616  0.00  0.00    +0.029 C 
ATOM      7  C   UNL     1      33.167 -22.935 -17.298  0.00  0.00    +0.003 C 
ATOM      8  C   UNL     1      34.882 -21.803 -18.592  0.00  0.00    +0.052 C 
ATOM      9  C   UNL     1      33.563 -22.224 -18.436  0.00  0.00    +0.015 C 
ENDROOT
BRANCH   8  11
ATOM     10  O   UNL     1      33.336 -19.820 -20.240  0.00  0.00    -0.275 OA
ATOM     11  N   UNL     1      35.250 -21.095 -19.737  0.00  0.00    -0.284 N 
ATOM     12  C   UNL     1      34.492 -20.168 -20.463  0.00  0.00    +0.226 C 
ATOM     13  H   UNL     1      36.157 -21.270 -20.078  0.00  0.00    +0.155 HD
BRANCH  12  14
ATOM     14  C   UNL     1      35.246 -19.608 -21.659  0.00  0.00    +0.090 C 
BRANCH  14  15
ATOM     15  C   UNL     1      36.018 -18.339 -21.296  0.00  0.00    +0.036 C 
BRANCH  15  16
ATOM     16  C   UNL     1      35.389 -17.079 -21.841  0.00  0.00    -0.022 C 
ATOM     17  C   UNL     1      35.043 -16.042 -20.976  0.00  0.00    -0.004 C 
ATOM     18  C   UNL     1      35.156 -16.953 -23.210  0.00  0.00    -0.004 C 
ATOM     19  C   UNL     1      34.461 -14.878 -21.479  0.00  0.00    -0.000 C 
ATOM     20  C   UNL     1      34.575 -15.789 -23.714  0.00  0.00    -0.000 C 
ATOM     21  C   UNL     1      34.227 -14.752 -22.848  0.00  0.00    -0.000 C 
ENDBRANCH  15  16
ENDBRANCH  14  15
ENDBRANCH  12  14
ENDBRANCH   8  11
BRANCH   1  22
ATOM     22  C   UNL     1      37.561 -22.951 -15.156  0.00  0.00    +0.097 C 
BRANCH  22  23
ATOM     23  C   UNL     1      38.450 -24.190 -15.331  0.00  0.00    +0.040 C 
BRANCH  23  24
ATOM     24  C   UNL     1      39.163 -24.672 -14.047  0.00  0.00    +0.091 C 
BRANCH  24  25
ATOM     25  N   UNL     1      38.238 -25.028 -12.958  0.00  0.00    -0.246 NA
ATOM     26  N   UNL     1      36.893 -26.141 -11.586  0.00  0.00    -0.251 NA
ATOM     27  C   UNL     1      37.742 -24.184 -11.996  0.00  0.00    +0.125 C 
ATOM     28  C   UNL     1      37.708 -26.198 -12.683  0.00  0.00    +0.201 C 
ATOM     29  C   UNL     1      36.905 -24.852 -11.133  0.00  0.00    +0.124 C 
BRANCH  29  32
ATOM     30  O   UNL     1      35.318 -25.029  -9.390  0.00  0.00    -0.269 OA
ATOM     31  N   UNL     1      36.483 -23.076  -9.542  0.00  0.00    -0.324 N 
ATOM     32  C   UNL     1      36.186 -24.364 -10.005  0.00  0.00    +0.257 C 
ATOM     33  H   UNL     1      36.004 -22.710  -8.764  0.00  0.00    +0.145 HD
ATOM     34  H   UNL     1      37.171 -22.537  -9.995  0.00  0.00    +0.145 HD
ENDBRANCH  29  32
ENDBRANCH  24  25
BRANCH  24  35
ATOM     35  C   UNL     1      40.103 -25.848 -14.360  0.00  0.00    +0.153 C 
BRANCH  35  36
ATOM     36  O   UNL     1      40.350 -25.905 -15.760  0.00  0.00    -0.381 OA
ATOM     37  H   UNL     1      39.535 -26.154 -16.223  0.00  0.00    +0.210 HD
ENDBRANCH  35  36
ENDBRANCH  24  35
ENDBRANCH  23  24
ENDBRANCH  22  23
ENDBRANCH   1  22
TORSDOF 11
ENDMDL
MODEL 5
REMARK VINA RESULT:     -10.8      1.842      2.820
REMARK  Name = 448903
REMARK  11 active torsions:
REMARK  status: ('A' for Active; 'I' for Inactive)
REMARK    1  A    between atoms: N_1  and  C_22
REMARK    2  A    between atoms: C_8  and  N_11
REMARK    3  A    between atoms: C_12  and  C_14
REMARK    4  A    between atoms: C_14  and  C_15
REMARK    5  A    between atoms: C_15  and  C_16
REMARK    6  A    between atoms: C_22  and  C_23
REMARK    7  A    between atoms: C_23  and  C_24
REMARK    8  A    between atoms: C_24  and  N_25
REMARK    9  A    between atoms: C_24  and  C_35
REMARK   10  A    between atoms: C_29  and  C_32
REMARK   11  A    between atoms: C_35  and  O_36
REMARK                            x       y       z     vdW  Elec       q    Type
REMARK                         _______ _______ _______ _____ _____    ______ ____
ROOT
ATOM      1  N   UNL     1      34.673 -22.008 -18.166  0.00  0.00    -0.286 N 
ATOM      2  C   UNL     1      35.130 -21.106 -19.101  0.00  0.00    +0.053 C 
ATOM      3  C   UNL     1      36.479 -20.874 -18.821  0.00  0.00    +0.015 C 
ATOM      4  C   UNL     1      35.682 -22.353 -17.309  0.00  0.00    +0.065 C 
ATOM      5  C   UNL     1      36.813 -21.668 -17.688  0.00  0.00    +0.017 C 
ATOM      6  C   UNL     1      34.460 -20.485 -20.161  0.00  0.00    +0.029 C 
ATOM      7  C   UNL     1      37.196 -19.977 -19.638  0.00  0.00    +0.003 C 
ATOM      8  C   UNL     1      35.193 -19.600 -20.958  0.00  0.00    +0.052 C 
ATOM      9  C   UNL     1      36.539 -19.349 -20.702  0.00  0.00    +0.015 C 
ENDROOT
BRANCH   8  11
ATOM     10  O   UNL     1      35.210 -20.235 -23.897  0.00  0.00    -0.275 OA
ATOM     11  N   UNL     1      34.563 -18.960 -22.027  0.00  0.00    -0.284 N 
ATOM     12  C   UNL     1      34.593 -19.307 -23.383  0.00  0.00    +0.226 C 
ATOM     13  H   UNL     1      34.030 -18.164 -21.799  0.00  0.00    +0.155 HD
BRANCH  12  14
ATOM     14  C   UNL     1      33.775 -18.358 -24.246  0.00  0.00    +0.090 C 
BRANCH  14  15
ATOM     15  C   UNL     1      34.633 -17.221 -24.803  0.00  0.00    +0.036 C 
BRANCH  15  16
ATOM     16  C   UNL     1      34.302 -15.874 -24.207  0.00  0.00    -0.022 C 
ATOM     17  C   UNL     1      34.824 -15.514 -22.965  0.00  0.00    -0.004 C 
ATOM     18  C   UNL     1      33.474 -14.990 -24.899  0.00  0.00    -0.004 C 
ATOM     19  C   UNL     1      34.518 -14.269 -22.414  0.00  0.00    -0.000 C 
ATOM     20  C   UNL     1      33.168 -13.745 -24.348  0.00  0.00    -0.000 C 
ATOM     21  C   UNL     1      33.690 -13.385 -23.106  0.00  0.00    -0.000 C 
ENDBRANCH  15  16
ENDBRANCH  14  15
ENDBRANCH  12  14
ENDBRANCH   8  11
BRANCH   1  22
ATOM     22  C   UNL     1      33.323 -22.526 -18.088  0.00  0.00    +0.097 C 
BRANCH  22  23
ATOM     23  C   UNL     1      33.130 -23.630 -17.040  0.00  0.00    +0.040 C 
BRANCH  23  24
ATOM     24  C   UNL     1      32.534 -23.160 -15.694  0.00  0.00    +0.091 C 
BRANCH  24  25
ATOM     25  N   UNL     1      31.091 -23.425 -15.564  0.00  0.00    -0.246 NA
ATOM     26  N   UNL     1      29.126 -24.257 -14.949  0.00  0.00    -0.251 NA
ATOM     27  C   UNL     1      30.077 -22.787 -16.234  0.00  0.00    +0.125 C 
ATOM     28  C   UNL     1      30.485 -24.304 -14.799  0.00  0.00    +0.201 C 
ATOM     29  C   UNL     1      28.849 -23.286 -15.869  0.00  0.00    +0.124 C 
BRANCH  29  32
ATOM     30  O   UNL     1      27.110 -23.153 -17.466  0.00  0.00    -0.269 OA
ATOM     31  N   UNL     1      26.703 -22.262 -15.408  0.00  0.00    -0.324 N 
ATOM     32  C   UNL     1      27.548 -22.913 -16.315  0.00  0.00    +0.257 C 
ATOM     33  H   UNL     1      25.798 -21.992 -15.685  0.00  0.00    +0.145 HD
ATOM     34  H   UNL     1      27.014 -22.075 -14.492  0.00  0.00    +0.145 HD
ENDBRANCH  29  32
ENDBRANCH  24  25
BRANCH  24  35
ATOM     35  C   UNL     1      33.301 -23.782 -14.515  0.00  0.00    +0.153 C 
BRANCH  35  36
ATOM     36  O   UNL     1      34.308 -22.880 -14.070  0.00  0.00    -0.381 OA
ATOM     37  H   UNL     1      34.590 -22.319 -14.809  0.00  0.00    +0.210 HD
ENDBRANCH  35  36
ENDBRANCH  24  35
ENDBRANCH  23  24
ENDBRANCH  22  23
ENDBRANCH   1  22
TORSDOF 11
ENDMDL
MODEL 6
REMARK VINA RESULT:     -10.7      3.671      6.905
REMARK  Name = 448903
REMARK  11 active torsions:
REMARK  status: ('A' for Active; 'I' for Inactive)
REMARK    1  A    between atoms: N_1  and  C_22
REMARK    2  A    between atoms: C_8  and  N_11
REMARK    3  A    between atoms: C_12  and  C_14
REMARK    4  A    between atoms: C_14  and  C_15
REMARK    5  A    between atoms: C_15  and  C_16
REMARK    6  A    between atoms: C_22  and  C_23
REMARK    7  A    between atoms: C_23  and  C_24
REMARK    8  A    between atoms: C_24  and  N_25
REMARK    9  A    between atoms: C_24  and  C_35
REMARK   10  A    between atoms: C_29  and  C_32
REMARK   11  A    between atoms: C_35  and  O_36
REMARK                            x       y       z     vdW  Elec       q    Type
REMARK                         _______ _______ _______ _____ _____    ______ ____
ROOT
ATOM      1  N   UNL     1      34.622 -22.859 -16.593  0.00  0.00    -0.286 N 
ATOM      2  C   UNL     1      34.331 -22.149 -17.736  0.00  0.00    +0.053 C 
ATOM      3  C   UNL     1      32.961 -22.295 -17.971  0.00  0.00    +0.015 C 
ATOM      4  C   UNL     1      33.488 -23.445 -16.098  0.00  0.00    +0.065 C 
ATOM      5  C   UNL     1      32.443 -23.114 -16.929  0.00  0.00    +0.017 C 
ATOM      6  C   UNL     1      35.166 -21.398 -18.571  0.00  0.00    +0.029 C 
ATOM      7  C   UNL     1      32.396 -21.660 -19.096  0.00  0.00    +0.003 C 
ATOM      8  C   UNL     1      34.582 -20.777 -19.680  0.00  0.00    +0.052 C 
ATOM      9  C   UNL     1      33.218 -20.904 -19.939  0.00  0.00    +0.015 C 
ENDROOT
BRANCH   8  11
ATOM     10  O   UNL     1      37.218 -19.414 -19.197  0.00  0.00    -0.275 OA
ATOM     11  N   UNL     1      35.379 -20.017 -20.537  0.00  0.00    -0.284 N 
ATOM     12  C   UNL     1      36.612 -19.412 -20.265  0.00  0.00    +0.226 C 
ATOM     13  H   UNL     1      35.029 -19.889 -21.449  0.00  0.00    +0.155 HD
BRANCH  12  14
ATOM     14  C   UNL     1      37.172 -18.665 -21.465  0.00  0.00    +0.090 C 
BRANCH  14  15
ATOM     15  C   UNL     1      36.077 -18.317 -22.475  0.00  0.00    +0.036 C 
BRANCH  15  16
ATOM     16  C   UNL     1      35.458 -16.960 -22.243  0.00  0.00    -0.022 C 
ATOM     17  C   UNL     1      35.129 -16.149 -23.328  0.00  0.00    -0.004 C 
ATOM     18  C   UNL     1      35.214 -16.519 -20.942  0.00  0.00    -0.004 C 
ATOM     19  C   UNL     1      34.557 -14.895 -23.114  0.00  0.00    -0.000 C 
ATOM     20  C   UNL     1      34.642 -15.264 -20.728  0.00  0.00    -0.000 C 
ATOM     21  C   UNL     1      34.313 -14.453 -21.814  0.00  0.00    -0.000 C 
ENDBRANCH  15  16
ENDBRANCH  14  15
ENDBRANCH  12  14
ENDBRANCH   8  11
BRANCH   1  22
ATOM     22  C   UNL     1      35.931 -22.978 -15.988  0.00  0.00    +0.097 C 
BRANCH  22  23
ATOM     23  C   UNL     1      35.932 -22.880 -14.457  0.00  0.00    +0.040 C 
BRANCH  23  24
ATOM     24  C   UNL     1      35.723 -24.218 -13.713  0.00  0.00    +0.091 C 
BRANCH  24  25
ATOM     25  N   UNL     1      36.977 -24.934 -13.427  0.00  0.00    -0.246 NA
ATOM     26  N   UNL     1      38.498 -26.302 -12.561  0.00  0.00    -0.251 NA
ATOM     27  C   UNL     1      38.184 -24.759 -14.057  0.00  0.00    +0.125 C 
ATOM     28  C   UNL     1      37.201 -25.870 -12.531  0.00  0.00    +0.201 C 
ATOM     29  C   UNL     1      39.143 -25.597 -13.537  0.00  0.00    +0.124 C 
BRANCH  29  32
ATOM     30  O   UNL     1      41.236 -24.792 -14.287  0.00  0.00    -0.269 OA
ATOM     31  N   UNL     1      41.093 -27.011 -13.783  0.00  0.00    -0.324 N 
ATOM     32  C   UNL     1      40.514 -25.741 -13.896  0.00  0.00    +0.257 C 
ATOM     33  H   UNL     1      42.039 -27.143 -14.023  0.00  0.00    +0.145 HD
ATOM     34  H   UNL     1      40.555 -27.771 -13.464  0.00  0.00    +0.145 HD
ENDBRANCH  29  32
ENDBRANCH  24  25
BRANCH  24  35
ATOM     35  C   UNL     1      34.923 -23.998 -12.418  0.00  0.00    +0.153 C 
BRANCH  35  36
ATOM     36  O   UNL     1      33.777 -24.842 -12.414  0.00  0.00    -0.381 OA
ATOM     37  H   UNL     1      33.784 -25.393 -11.615  0.00  0.00    +0.210 HD
ENDBRANCH  35  36
ENDBRANCH  24  35
ENDBRANCH  23  24
ENDBRANCH  22  23
ENDBRANCH   1  22
TORSDOF 11
ENDMDL
MODEL 7
REMARK VINA RESULT:     -10.7      3.755      7.175
REMARK  Name = 448903
REMARK  11 active torsions:
REMARK  status: ('A' for Active; 'I' for Inactive)
REMARK    1  A    between atoms: N_1  and  C_22
REMARK    2  A    between atoms: C_8  and  N_11
REMARK    3  A    between atoms: C_12  and  C_14
REMARK    4  A    between atoms: C_14  and  C_15
REMARK    5  A    between atoms: C_15  and  C_16
REMARK    6  A    between atoms: C_22  and  C_23
REMARK    7  A    between atoms: C_23  and  C_24
REMARK    8  A    between atoms: C_24  and  N_25
REMARK    9  A    between atoms: C_24  and  C_35
REMARK   10  A    between atoms: C_29  and  C_32
REMARK   11  A    between atoms: C_35  and  O_36
REMARK                            x       y       z     vdW  Elec       q    Type
REMARK                         _______ _______ _______ _____ _____    ______ ____
ROOT
ATOM      1  N   UNL     1      33.757 -23.641 -14.142  0.00  0.00    -0.286 N 
ATOM      2  C   UNL     1      33.322 -23.190 -15.368  0.00  0.00    +0.053 C 
ATOM      3  C   UNL     1      31.925 -23.171 -15.325  0.00  0.00    +0.015 C 
ATOM      4  C   UNL     1      32.689 -23.906 -13.329  0.00  0.00    +0.065 C 
ATOM      5  C   UNL     1      31.541 -23.625 -14.032  0.00  0.00    +0.017 C 
ATOM      6  C   UNL     1      34.049 -22.801 -16.498  0.00  0.00    +0.029 C 
ATOM      7  C   UNL     1      31.218 -22.744 -16.467  0.00  0.00    +0.003 C 
ATOM      8  C   UNL     1      33.325 -22.381 -17.619  0.00  0.00    +0.052 C 
ATOM      9  C   UNL     1      31.932 -22.351 -17.604  0.00  0.00    +0.015 C 
ENDROOT
BRANCH   8  11
ATOM     10  O   UNL     1      32.683 -20.245 -19.635  0.00  0.00    -0.275 OA
ATOM     11  N   UNL     1      34.011 -21.983 -18.767  0.00  0.00    -0.284 N 
ATOM     12  C   UNL     1      33.674 -20.967 -19.670  0.00  0.00    +0.226 C 
ATOM     13  H   UNL     1      34.837 -22.481 -18.968  0.00  0.00    +0.155 HD
BRANCH  12  14
ATOM     14  C   UNL     1      34.679 -20.838 -20.804  0.00  0.00    +0.090 C 
BRANCH  14  15
ATOM     15  C   UNL     1      35.412 -19.497 -20.759  0.00  0.00    +0.036 C 
BRANCH  15  16
ATOM     16  C   UNL     1      35.130 -18.620 -21.955  0.00  0.00    -0.022 C 
ATOM     17  C   UNL     1      35.411 -17.256 -21.902  0.00  0.00    -0.004 C 
ATOM     18  C   UNL     1      34.590 -19.177 -23.115  0.00  0.00    -0.004 C 
ATOM     19  C   UNL     1      35.150 -16.446 -23.007  0.00  0.00    -0.000 C 
ATOM     20  C   UNL     1      34.329 -18.367 -24.220  0.00  0.00    -0.000 C 
ATOM     21  C   UNL     1      34.609 -17.002 -24.167  0.00  0.00    -0.000 C 
ENDBRANCH  15  16
ENDBRANCH  14  15
ENDBRANCH  12  14
ENDBRANCH   8  11
BRANCH   1  22
ATOM     22  C   UNL     1      35.141 -23.816 -13.754  0.00  0.00    +0.097 C 
BRANCH  22  23
ATOM     23  C   UNL     1      35.407 -23.619 -12.255  0.00  0.00    +0.040 C 
BRANCH  23  24
ATOM     24  C   UNL     1      36.007 -24.844 -11.529  0.00  0.00    +0.091 C 
BRANCH  24  25
ATOM     25  N   UNL     1      37.071 -25.517 -12.292  0.00  0.00    -0.246 NA
ATOM     26  N   UNL     1      38.220 -26.976 -13.510  0.00  0.00    -0.251 NA
ATOM     27  C   UNL     1      38.339 -25.045 -12.522  0.00  0.00    +0.125 C 
ATOM     28  C   UNL     1      37.032 -26.682 -12.900  0.00  0.00    +0.201 C 
ATOM     29  C   UNL     1      39.071 -25.933 -13.275  0.00  0.00    +0.124 C 
BRANCH  29  32
ATOM     30  O   UNL     1      40.958 -24.766 -14.092  0.00  0.00    -0.269 OA
ATOM     31  N   UNL     1      41.181 -27.012 -13.776  0.00  0.00    -0.324 N 
ATOM     32  C   UNL     1      40.415 -25.840 -13.738  0.00  0.00    +0.257 C 
ATOM     33  H   UNL     1      42.113 -26.981 -14.091  0.00  0.00    +0.145 HD
ATOM     34  H   UNL     1      40.786 -27.868 -13.489  0.00  0.00    +0.145 HD
ENDBRANCH  29  32
ENDBRANCH  24  25
BRANCH  24  35
ATOM     35  C   UNL     1      36.516 -24.449 -10.132  0.00  0.00    +0.153 C 
BRANCH  35  36
ATOM     36  O   UNL     1      35.535 -24.777  -9.155  0.00  0.00    -0.381 OA
ATOM     37  H   UNL     1      34.969 -24.005  -8.993  0.00  0.00    +0.210 HD
ENDBRANCH  35  36
ENDBRANCH  24  35
ENDBRANCH  23  24
ENDBRANCH  22  23
ENDBRANCH   1  22
TORSDOF 11
ENDMDL
MODEL 8
REMARK VINA RESULT:     -10.7      6.863     11.950
REMARK  Name = 448903
REMARK  11 active torsions:
REMARK  status: ('A' for Active; 'I' for Inactive)
REMARK    1  A    between atoms: N_1  and  C_22
REMARK    2  A    between atoms: C_8  and  N_11
REMARK    3  A    between atoms: C_12  and  C_14
REMARK    4  A    between atoms: C_14  and  C_15
REMARK    5  A    between atoms: C_15  and  C_16
REMARK    6  A    between atoms: C_22  and  C_23
REMARK    7  A    between atoms: C_23  and  C_24
REMARK    8  A    between atoms: C_24  and  N_25
REMARK    9  A    between atoms: C_24  and  C_35
REMARK   10  A    between atoms: C_29  and  C_32
REMARK   11  A    between atoms: C_35  and  O_36
REMARK                            x       y       z     vdW  Elec       q    Type
REMARK                         _______ _______ _______ _____ _____    ______ ____
ROOT
ATOM      1  N   UNL     1      32.913 -13.544 -21.790  0.00  0.00    -0.286 N 
ATOM      2  C   UNL     1      32.377 -12.321 -21.454  0.00  0.00    +0.053 C 
ATOM      3  C   UNL     1      32.104 -12.357 -20.084  0.00  0.00    +0.015 C 
ATOM      4  C   UNL     1      32.990 -14.348 -20.685  0.00  0.00    +0.065 C 
ATOM      5  C   UNL     1      32.497 -13.642 -19.613  0.00  0.00    +0.017 C 
ATOM      6  C   UNL     1      32.115 -11.199 -22.247  0.00  0.00    +0.029 C 
ATOM      7  C   UNL     1      31.542 -11.217 -19.475  0.00  0.00    +0.003 C 
ATOM      8  C   UNL     1      31.558 -10.080 -21.621  0.00  0.00    +0.052 C 
ATOM      9  C   UNL     1      31.276 -10.087 -20.256  0.00  0.00    +0.015 C 
ENDROOT
BRANCH   8  11
ATOM     10  O   UNL     1      31.892  -7.168 -20.949  0.00  0.00    -0.275 OA
ATOM     11  N   UNL     1      31.283  -8.939 -22.376  0.00  0.00    -0.284 N 
ATOM     12  C   UNL     1      31.470  -7.598 -22.019  0.00  0.00    +0.226 C 
ATOM     13  H   UNL     1      30.909  -9.097 -23.273  0.00  0.00    +0.155 HD
BRANCH  12  14
ATOM     14  C   UNL     1      31.047  -6.638 -23.120  0.00  0.00    +0.090 C 
BRANCH  14  15
ATOM     15  C   UNL     1      31.866  -5.346 -23.088  0.00  0.00    +0.036 C 
BRANCH  15  16
ATOM     16  C   UNL     1      33.103  -5.400 -23.951  0.00  0.00    -0.022 C 
ATOM     17  C   UNL     1      34.189  -6.185 -23.566  0.00  0.00    -0.004 C 
ATOM     18  C   UNL     1      33.158  -4.666 -25.136  0.00  0.00    -0.004 C 
ATOM     19  C   UNL     1      35.332  -6.235 -24.364  0.00  0.00    -0.000 C 
ATOM     20  C   UNL     1      34.302  -4.715 -25.934  0.00  0.00    -0.000 C 
ATOM     21  C   UNL     1      35.389  -5.500 -25.548  0.00  0.00    -0.000 C 
ENDBRANCH  15  16
ENDBRANCH  14  15
ENDBRANCH  12  14
ENDBRANCH   8  11
BRANCH   1  22
ATOM     22  C   UNL     1      33.339 -13.938 -23.117  0.00  0.00    +0.097 C 
BRANCH  22  23
ATOM     23  C   UNL     1      34.662 -14.714 -23.151  0.00  0.00    +0.040 C 
BRANCH  23  24
ATOM     24  C   UNL     1      34.669 -15.961 -24.063  0.00  0.00    +0.091 C 
BRANCH  24  25
ATOM     25  N   UNL     1      34.931 -17.218 -23.342  0.00  0.00    -0.246 NA
ATOM     26  N   UNL     1      35.010 -19.357 -22.751  0.00  0.00    -0.251 NA
ATOM     27  C   UNL     1      35.605 -17.355 -22.154  0.00  0.00    +0.125 C 
ATOM     28  C   UNL     1      34.587 -18.442 -23.675  0.00  0.00    +0.201 C 
ATOM     29  C   UNL     1      35.666 -18.674 -21.767  0.00  0.00    +0.124 C 
BRANCH  29  32
ATOM     30  O   UNL     1      37.401 -18.937 -20.183  0.00  0.00    -0.269 OA
ATOM     31  N   UNL     1      35.536 -20.218 -19.906  0.00  0.00    -0.324 N 
ATOM     32  C   UNL     1      36.266 -19.255 -20.613  0.00  0.00    +0.257 C 
ATOM     33  H   UNL     1      35.923 -20.638 -19.104  0.00  0.00    +0.145 HD
ATOM     34  H   UNL     1      34.636 -20.476 -20.212  0.00  0.00    +0.145 HD
ENDBRANCH  29  32
ENDBRANCH  24  25
BRANCH  24  35
ATOM     35  C   UNL     1      33.353 -16.061 -24.853  0.00  0.00    +0.153 C 
BRANCH  35  36
ATOM     36  O   UNL     1      33.459 -15.309 -26.057  0.00  0.00    -0.381 OA
ATOM     37  H   UNL     1      34.084 -14.578 -25.928  0.00  0.00    +0.210 HD
ENDBRANCH  35  36
ENDBRANCH  24  35
ENDBRANCH  23  24
ENDBRANCH  22  23
ENDBRANCH   1  22
TORSDOF 11
ENDMDL
MODEL 9
REMARK VINA RESULT:     -10.6      6.951     12.223
REMARK  Name = 448903
REMARK  11 active torsions:
REMARK  status: ('A' for Active; 'I' for Inactive)
REMARK    1  A    between atoms: N_1  and  C_22
REMARK    2  A    between atoms: C_8  and  N_11
REMARK    3  A    between atoms: C_12  and  C_14
REMARK    4  A    between atoms: C_14  and  C_15
REMARK    5  A    between atoms: C_15  and  C_16
REMARK    6  A    between atoms: C_22  and  C_23
REMARK    7  A    between atoms: C_23  and  C_24
REMARK    8  A    between atoms: C_24  and  N_25
REMARK    9  A    between atoms: C_24  and  C_35
REMARK   10  A    between atoms: C_29  and  C_32
REMARK   11  A    between atoms: C_35  and  O_36
REMARK                            x       y       z     vdW  Elec       q    Type
REMARK                         _______ _______ _______ _____ _____    ______ ____
ROOT
ATOM      1  N   UNL     1      32.744 -13.481 -21.882  0.00  0.00    -0.286 N 
ATOM      2  C   UNL     1      32.372 -12.166 -21.713  0.00  0.00    +0.053 C 
ATOM      3  C   UNL     1      32.046 -12.003 -20.364  0.00  0.00    +0.015 C 
ATOM      4  C   UNL     1      32.666 -14.151 -20.692  0.00  0.00    +0.065 C 
ATOM      5  C   UNL     1      32.237 -13.264 -19.733  0.00  0.00    +0.017 C 
ATOM      6  C   UNL     1      32.300 -11.120 -22.640  0.00  0.00    +0.029 C 
ATOM      7  C   UNL     1      31.626 -10.734 -19.917  0.00  0.00    +0.003 C 
ATOM      8  C   UNL     1      31.882  -9.870 -22.172  0.00  0.00    +0.052 C 
ATOM      9  C   UNL     1      31.550  -9.678 -20.832  0.00  0.00    +0.015 C 
ENDROOT
BRANCH   8  11
ATOM     10  O   UNL     1      34.047  -8.240 -23.475  0.00  0.00    -0.275 OA
ATOM     11  N   UNL     1      31.797  -8.800 -23.064  0.00  0.00    -0.284 N 
ATOM     12  C   UNL     1      32.843  -8.080 -23.655  0.00  0.00    +0.226 C 
ATOM     13  H   UNL     1      30.887  -8.514 -23.308  0.00  0.00    +0.155 HD
BRANCH  12  14
ATOM     14  C   UNL     1      32.345  -6.977 -24.576  0.00  0.00    +0.090 C 
BRANCH  14  15
ATOM     15  C   UNL     1      30.902  -6.583 -24.255  0.00  0.00    +0.036 C 
BRANCH  15  16
ATOM     16  C   UNL     1      30.793  -5.303 -23.463  0.00  0.00    -0.022 C 
ATOM     17  C   UNL     1      30.553  -5.351 -22.090  0.00  0.00    -0.004 C 
ATOM     18  C   UNL     1      30.935  -4.072 -24.104  0.00  0.00    -0.004 C 
ATOM     19  C   UNL     1      30.452  -4.168 -21.358  0.00  0.00    -0.000 C 
ATOM     20  C   UNL     1      30.834  -2.889 -23.371  0.00  0.00    -0.000 C 
ATOM     21  C   UNL     1      30.593  -2.937 -21.998  0.00  0.00    -0.000 C 
ENDBRANCH  15  16
ENDBRANCH  14  15
ENDBRANCH  12  14
ENDBRANCH   8  11
BRANCH   1  22
ATOM     22  C   UNL     1      33.160 -14.082 -23.131  0.00  0.00    +0.097 C 
BRANCH  22  23
ATOM     23  C   UNL     1      34.513 -14.803 -23.066  0.00  0.00    +0.040 C 
BRANCH  23  24
ATOM     24  C   UNL     1      34.659 -16.013 -24.016  0.00  0.00    +0.091 C 
BRANCH  24  25
ATOM     25  N   UNL     1      34.885 -17.288 -23.316  0.00  0.00    -0.246 NA
ATOM     26  N   UNL     1      34.915 -19.440 -22.769  0.00  0.00    -0.251 NA
ATOM     27  C   UNL     1      35.532 -17.462 -22.118  0.00  0.00    +0.125 C 
ATOM     28  C   UNL     1      34.526 -18.498 -23.682  0.00  0.00    +0.201 C 
ATOM     29  C   UNL     1      35.563 -18.789 -21.758  0.00  0.00    +0.124 C 
BRANCH  29  32
ATOM     30  O   UNL     1      37.133 -18.958 -19.998  0.00  0.00    -0.269 OA
ATOM     31  N   UNL     1      35.515 -20.560 -20.108  0.00  0.00    -0.324 N 
ATOM     32  C   UNL     1      36.129 -19.404 -20.605  0.00  0.00    +0.257 C 
ATOM     33  H   UNL     1      35.882 -21.009 -19.312  0.00  0.00    +0.145 HD
ATOM     34  H   UNL     1      34.716 -20.924 -20.554  0.00  0.00    +0.145 HD
ENDBRANCH  29  32
ENDBRANCH  24  25
BRANCH  24  35
ATOM     35  C   UNL     1      33.440 -16.119 -24.947  0.00  0.00    +0.153 C 
BRANCH  35  36
ATOM     36  O   UNL     1      33.599 -15.233 -26.049  0.00  0.00    -0.381 OA
ATOM     37  H   UNL     1      32.809 -15.271 -26.611  0.00  0.00    +0.210 HD
ENDBRANCH  35  36
ENDBRANCH  24  35
ENDBRANCH  23  24
ENDBRANCH  22  23
ENDBRANCH   1  22
TORSDOF 11
ENDMDL
