MODEL 1
REMARK VINA RESULT:     -12.7      0.000      0.000
REMARK  Name = 46926973
REMARK  4 active torsions:
REMARK  status: ('A' for Active; 'I' for Inactive)
REMARK    1  A    between atoms: C_4  and  C_17
REMARK    2  A    between atoms: C_6  and  C_13
REMARK    3  A    between atoms: C_17  and  C_19
REMARK    4  A    between atoms: C_21  and  C_26
REMARK                            x       y       z     vdW  Elec       q    Type
REMARK                         _______ _______ _______ _____ _____    ______ ____
ROOT
ATOM      1  O   UNL     1      33.822 -19.680 -22.146  0.00  0.00    -0.274 OA
ATOM      2  N   UNL     1      35.893 -19.638 -21.032  0.00  0.00    -0.269 N 
ATOM      3  N   UNL     1      36.691 -20.632 -19.040  0.00  0.00    -0.229 NA
ATOM      4  C   UNL     1      34.988 -19.311 -22.052  0.00  0.00    +0.232 C 
ATOM      5  C   UNL     1      35.673 -20.445 -19.909  0.00  0.00    +0.134 C 
ATOM      6  C   UNL     1      35.209 -22.027 -17.735  0.00  0.00    +0.038 C 
ATOM      7  C   UNL     1      34.414 -21.005 -19.762  0.00  0.00    +0.035 C 
ATOM      8  C   UNL     1      34.185 -21.809 -18.651  0.00  0.00    +0.006 C 
ATOM      9  C   UNL     1      36.432 -21.420 -17.972  0.00  0.00    +0.102 C 
ATOM     10  H   UNL     1      36.795 -19.252 -21.116  0.00  0.00    +0.156 HD
ENDROOT
BRANCH   6  13
ATOM     11  N   UNL     1      36.117 -23.253 -15.925  0.00  0.00    -0.241 NA
ATOM     12  N   UNL     1      33.555 -23.995 -15.059  0.00  0.00    -0.239 NA
ATOM     13  C   UNL     1      35.002 -22.856 -16.571  0.00  0.00    +0.102 C 
ATOM     14  C   UNL     1      33.744 -23.221 -16.146  0.00  0.00    +0.118 C 
ATOM     15  C   UNL     1      35.928 -24.027 -14.838  0.00  0.00    +0.119 C 
ATOM     16  C   UNL     1      34.670 -24.392 -14.413  0.00  0.00    +0.120 C 
ENDBRANCH   6  13
BRANCH   4  17
ATOM     17  C   UNL     1      35.640 -18.406 -23.086  0.00  0.00    +0.113 C 
BRANCH  17  19
ATOM     18  N   UNL     1      34.609 -14.933 -21.986  0.00  0.00    -0.244 NA
ATOM     19  C   UNL     1      35.052 -17.019 -23.124  0.00  0.00    +0.006 C 
ATOM     20  C   UNL     1      33.892 -15.253 -24.273  0.00  0.00    -0.004 C 
ATOM     21  C   UNL     1      34.009 -14.498 -23.117  0.00  0.00    +0.077 C 
ATOM     22  C   UNL     1      34.427 -16.537 -24.268  0.00  0.00    -0.005 C 
ATOM     23  C   UNL     1      35.116 -16.185 -22.019  0.00  0.00    +0.095 C 
ATOM     24  C   UNL     1      33.222 -14.739 -25.501  0.00  0.00    +0.033 C 
BRANCH  21  26
ATOM     25  N   UNL     1      32.468 -10.555 -22.853  0.00  0.00    -0.248 NA
ATOM     26  C   UNL     1      33.483 -13.154 -23.027  0.00  0.00    +0.020 C 
ATOM     27  C   UNL     1      32.373 -12.890 -22.232  0.00  0.00    +0.016 C 
ATOM     28  C   UNL     1      34.086 -12.120 -23.735  0.00  0.00    +0.022 C 
ATOM     29  C   UNL     1      31.909 -11.585 -22.179  0.00  0.00    +0.059 C 
ATOM     30  C   UNL     1      33.545 -10.850 -23.616  0.00  0.00    +0.098 C 
ATOM     31  C   UNL     1      30.720 -11.265 -21.336  0.00  0.00    +0.052 C 
ENDBRANCH  21  26
ENDBRANCH  17  19
ENDBRANCH   4  17
TORSDOF 4
ENDMDL
MODEL 2
REMARK VINA RESULT:     -12.5      1.255      1.982
REMARK  Name = 46926973
REMARK  4 active torsions:
REMARK  status: ('A' for Active; 'I' for Inactive)
REMARK    1  A    between atoms: C_4  and  C_17
REMARK    2  A    between atoms: C_6  and  C_13
REMARK    3  A    between atoms: C_17  and  C_19
REMARK    4  A    between atoms: C_21  and  C_26
REMARK                            x       y       z     vdW  Elec       q    Type
REMARK                         _______ _______ _______ _____ _____    ______ ____
ROOT
ATOM      1  O   UNL     1      37.047 -18.637 -21.968  0.00  0.00    -0.274 OA
ATOM      2  N   UNL     1      34.927 -19.593 -21.621  0.00  0.00    -0.269 N 
ATOM      3  N   UNL     1      34.032 -21.009 -19.950  0.00  0.00    -0.229 NA
ATOM      4  C   UNL     1      35.879 -18.819 -22.297  0.00  0.00    +0.232 C 
ATOM      5  C   UNL     1      35.091 -20.324 -20.437  0.00  0.00    +0.134 C 
ATOM      6  C   UNL     1      35.447 -21.732 -18.127  0.00  0.00    +0.038 C 
ATOM      7  C   UNL     1      36.340 -20.294 -19.836  0.00  0.00    +0.035 C 
ATOM      8  C   UNL     1      36.513 -21.015 -18.660  0.00  0.00    +0.006 C 
ATOM      9  C   UNL     1      34.239 -21.698 -18.805  0.00  0.00    +0.102 C 
ATOM     10  H   UNL     1      34.031 -19.629 -22.028  0.00  0.00    +0.156 HD
ENDROOT
BRANCH   6  13
ATOM     11  N   UNL     1      34.544 -23.257 -16.558  0.00  0.00    -0.241 NA
ATOM     12  N   UNL     1      36.878 -23.145 -15.009  0.00  0.00    -0.239 NA
ATOM     13  C   UNL     1      35.596 -22.490 -16.908  0.00  0.00    +0.102 C 
ATOM     14  C   UNL     1      36.743 -22.436 -16.147  0.00  0.00    +0.118 C 
ATOM     15  C   UNL     1      34.680 -23.966 -15.420  0.00  0.00    +0.119 C 
ATOM     16  C   UNL     1      35.826 -23.911 -14.659  0.00  0.00    +0.120 C 
ENDBRANCH   6  13
BRANCH   4  17
ATOM     17  C   UNL     1      35.279 -18.191 -23.546  0.00  0.00    +0.113 C 
BRANCH  17  19
ATOM     18  N   UNL     1      33.702 -14.816 -24.224  0.00  0.00    -0.244 NA
ATOM     19  C   UNL     1      34.791 -16.781 -23.332  0.00  0.00    +0.006 C 
ATOM     20  C   UNL     1      34.500 -14.840 -21.942  0.00  0.00    -0.004 C 
ATOM     21  C   UNL     1      33.883 -14.228 -23.021  0.00  0.00    +0.077 C 
ATOM     22  C   UNL     1      34.960 -16.142 -22.109  0.00  0.00    -0.005 C 
ATOM     23  C   UNL     1      34.161 -16.081 -24.349  0.00  0.00    +0.095 C 
ATOM     24  C   UNL     1      34.682 -14.157 -20.630  0.00  0.00    +0.033 C 
BRANCH  21  26
ATOM     25  N   UNL     1      32.389 -10.264 -22.791  0.00  0.00    -0.248 NA
ATOM     26  C   UNL     1      33.374 -12.876 -22.942  0.00  0.00    +0.020 C 
ATOM     27  C   UNL     1      32.269 -12.591 -22.147  0.00  0.00    +0.016 C 
ATOM     28  C   UNL     1      33.987 -11.857 -23.662  0.00  0.00    +0.022 C 
ATOM     29  C   UNL     1      31.820 -11.281 -22.107  0.00  0.00    +0.059 C 
ATOM     30  C   UNL     1      33.461 -10.579 -23.554  0.00  0.00    +0.098 C 
ATOM     31  C   UNL     1      30.636 -10.938 -21.264  0.00  0.00    +0.052 C 
ENDBRANCH  21  26
ENDBRANCH  17  19
ENDBRANCH   4  17
TORSDOF 4
ENDMDL
MODEL 3
REMARK VINA RESULT:     -11.9      0.848      1.414
REMARK  Name = 46926973
REMARK  4 active torsions:
REMARK  status: ('A' for Active; 'I' for Inactive)
REMARK    1  A    between atoms: C_4  and  C_17
REMARK    2  A    between atoms: C_6  and  C_13
REMARK    3  A    between atoms: C_17  and  C_19
REMARK    4  A    between atoms: C_21  and  C_26
REMARK                            x       y       z     vdW  Elec       q    Type
REMARK                         _______ _______ _______ _____ _____    ______ ____
ROOT
ATOM      1  O   UNL     1      34.278 -20.020 -21.482  0.00  0.00    -0.274 OA
ATOM      2  N   UNL     1      36.256 -19.826 -20.224  0.00  0.00    -0.269 N 
ATOM      3  N   UNL     1      36.985 -20.768 -18.181  0.00  0.00    -0.229 NA
ATOM      4  C   UNL     1      35.404 -19.563 -21.305  0.00  0.00    +0.232 C 
ATOM      5  C   UNL     1      36.019 -20.654 -19.120  0.00  0.00    +0.134 C 
ATOM      6  C   UNL     1      35.526 -22.281 -16.985  0.00  0.00    +0.038 C 
ATOM      7  C   UNL     1      34.800 -21.311 -19.063  0.00  0.00    +0.035 C 
ATOM      8  C   UNL     1      34.556 -22.137 -17.972  0.00  0.00    +0.006 C 
ATOM      9  C   UNL     1      36.712 -21.581 -17.134  0.00  0.00    +0.102 C 
ATOM     10  H   UNL     1      37.129 -19.372 -20.243  0.00  0.00    +0.156 HD
ENDROOT
BRANCH   6  13
ATOM     11  N   UNL     1      36.349 -23.886 -15.452  0.00  0.00    -0.241 NA
ATOM     12  N   UNL     1      33.887 -23.964 -14.113  0.00  0.00    -0.239 NA
ATOM     13  C   UNL     1      35.302 -23.131 -15.840  0.00  0.00    +0.102 C 
ATOM     14  C   UNL     1      34.093 -23.169 -15.181  0.00  0.00    +0.118 C 
ATOM     15  C   UNL     1      36.144 -24.680 -14.383  0.00  0.00    +0.119 C 
ATOM     16  C   UNL     1      34.934 -24.719 -13.725  0.00  0.00    +0.120 C 
ENDBRANCH   6  13
BRANCH   4  17
ATOM     17  C   UNL     1      36.055 -18.604 -22.289  0.00  0.00    +0.113 C 
BRANCH  17  19
ATOM     18  N   UNL     1      34.606 -15.258 -21.272  0.00  0.00    -0.244 NA
ATOM     19  C   UNL     1      35.358 -17.271 -22.378  0.00  0.00    +0.006 C 
ATOM     20  C   UNL     1      34.194 -15.581 -23.633  0.00  0.00    -0.004 C 
ATOM     21  C   UNL     1      34.108 -14.848 -22.461  0.00  0.00    +0.077 C 
ATOM     22  C   UNL     1      34.834 -16.816 -23.581  0.00  0.00    -0.005 C 
ATOM     23  C   UNL     1      35.219 -16.462 -21.262  0.00  0.00    +0.095 C 
ATOM     24  C   UNL     1      33.632 -15.096 -24.924  0.00  0.00    +0.033 C 
BRANCH  21  26
ATOM     25  N   UNL     1      32.212 -11.056 -22.327  0.00  0.00    -0.248 NA
ATOM     26  C   UNL     1      33.462 -13.555 -22.415  0.00  0.00    +0.020 C 
ATOM     27  C   UNL     1      34.006 -12.478 -23.107  0.00  0.00    +0.016 C 
ATOM     28  C   UNL     1      32.294 -13.384 -21.680  0.00  0.00    +0.022 C 
ATOM     29  C   UNL     1      33.348 -11.260 -23.031  0.00  0.00    +0.059 C 
ATOM     30  C   UNL     1      31.714 -12.126 -21.667  0.00  0.00    +0.098 C 
ATOM     31  C   UNL     1      33.903 -10.082 -23.760  0.00  0.00    +0.052 C 
ENDBRANCH  21  26
ENDBRANCH  17  19
ENDBRANCH   4  17
TORSDOF 4
ENDMDL
MODEL 4
REMARK VINA RESULT:     -11.8      2.822     11.389
REMARK  Name = 46926973
REMARK  4 active torsions:
REMARK  status: ('A' for Active; 'I' for Inactive)
REMARK    1  A    between atoms: C_4  and  C_17
REMARK    2  A    between atoms: C_6  and  C_13
REMARK    3  A    between atoms: C_17  and  C_19
REMARK    4  A    between atoms: C_21  and  C_26
REMARK                            x       y       z     vdW  Elec       q    Type
REMARK                         _______ _______ _______ _____ _____    ______ ____
ROOT
ATOM      1  O   UNL     1      32.442 -13.832 -23.406  0.00  0.00    -0.274 OA
ATOM      2  N   UNL     1      34.136 -12.315 -24.004  0.00  0.00    -0.269 N 
ATOM      3  N   UNL     1      34.415  -9.984 -23.709  0.00  0.00    -0.229 NA
ATOM      4  C   UNL     1      33.524 -13.573 -23.923  0.00  0.00    +0.232 C 
ATOM      5  C   UNL     1      33.658 -11.090 -23.523  0.00  0.00    +0.134 C 
ATOM      6  C   UNL     1      32.697  -8.721 -22.569  0.00  0.00    +0.038 C 
ATOM      7  C   UNL     1      32.431 -11.091 -22.881  0.00  0.00    +0.035 C 
ATOM      8  C   UNL     1      31.947  -9.879 -22.398  0.00  0.00    +0.006 C 
ATOM      9  C   UNL     1      33.912  -8.825 -23.227  0.00  0.00    +0.102 C 
ATOM     10  H   UNL     1      35.011 -12.289 -24.456  0.00  0.00    +0.156 HD
ENDROOT
BRANCH   6  13
ATOM     11  N   UNL     1      31.056  -7.014 -22.599  0.00  0.00    -0.241 NA
ATOM     12  N   UNL     1      32.472  -5.531 -20.687  0.00  0.00    -0.239 NA
ATOM     13  C   UNL     1      32.222  -7.448 -22.080  0.00  0.00    +0.102 C 
ATOM     14  C   UNL     1      32.918  -6.719 -21.141  0.00  0.00    +0.118 C 
ATOM     15  C   UNL     1      30.610  -5.827 -22.144  0.00  0.00    +0.119 C 
ATOM     16  C   UNL     1      31.306  -5.098 -21.206  0.00  0.00    +0.120 C 
ENDBRANCH   6  13
BRANCH   4  17
ATOM     17  C   UNL     1      34.390 -14.641 -24.573  0.00  0.00    +0.113 C 
BRANCH  17  19
ATOM     18  N   UNL     1      35.192 -16.704 -21.502  0.00  0.00    -0.244 NA
ATOM     19  C   UNL     1      34.635 -15.835 -23.688  0.00  0.00    +0.006 C 
ATOM     20  C   UNL     1      34.776 -18.212 -23.346  0.00  0.00    -0.004 C 
ATOM     21  C   UNL     1      35.094 -17.948 -22.024  0.00  0.00    +0.077 C 
ATOM     22  C   UNL     1      34.544 -17.129 -24.187  0.00  0.00    -0.005 C 
ATOM     23  C   UNL     1      34.960 -15.678 -22.349  0.00  0.00    +0.095 C 
ATOM     24  C   UNL     1      34.679 -19.598 -23.885  0.00  0.00    +0.033 C 
BRANCH  21  26
ATOM     25  N   UNL     1      35.855 -21.057 -19.240  0.00  0.00    -0.248 NA
ATOM     26  C   UNL     1      35.353 -19.008 -21.075  0.00  0.00    +0.020 C 
ATOM     27  C   UNL     1      34.305 -19.784 -20.591  0.00  0.00    +0.016 C 
ATOM     28  C   UNL     1      36.652 -19.255 -20.643  0.00  0.00    +0.022 C 
ATOM     29  C   UNL     1      34.607 -20.787 -19.683  0.00  0.00    +0.059 C 
ATOM     30  C   UNL     1      36.848 -20.281 -19.733  0.00  0.00    +0.098 C 
ATOM     31  C   UNL     1      33.507 -21.639 -19.142  0.00  0.00    +0.052 C 
ENDBRANCH  21  26
ENDBRANCH  17  19
ENDBRANCH   4  17
TORSDOF 4
ENDMDL
MODEL 5
REMARK VINA RESULT:     -11.4      1.531     11.063
REMARK  Name = 46926973
REMARK  4 active torsions:
REMARK  status: ('A' for Active; 'I' for Inactive)
REMARK    1  A    between atoms: C_4  and  C_17
REMARK    2  A    between atoms: C_6  and  C_13
REMARK    3  A    between atoms: C_17  and  C_19
REMARK    4  A    between atoms: C_21  and  C_26
REMARK                            x       y       z     vdW  Elec       q    Type
REMARK                         _______ _______ _______ _____ _____    ______ ____
ROOT
ATOM      1  O   UNL     1      35.334 -16.493 -20.606  0.00  0.00    -0.274 OA
ATOM      2  N   UNL     1      34.760 -16.227 -22.871  0.00  0.00    -0.269 N 
ATOM      3  N   UNL     1      33.878 -14.428 -24.129  0.00  0.00    -0.229 NA
ATOM      4  C   UNL     1      35.236 -16.923 -21.752  0.00  0.00    +0.232 C 
ATOM      5  C   UNL     1      34.296 -14.908 -22.935  0.00  0.00    +0.134 C 
ATOM      6  C   UNL     1      33.402 -12.331 -23.023  0.00  0.00    +0.038 C 
ATOM      7  C   UNL     1      34.298 -14.172 -21.761  0.00  0.00    +0.035 C 
ATOM      8  C   UNL     1      33.840 -12.861 -21.814  0.00  0.00    +0.006 C 
ATOM      9  C   UNL     1      33.440 -13.149 -24.141  0.00  0.00    +0.102 C 
ATOM     10  H   UNL     1      34.750 -16.729 -23.719  0.00  0.00    +0.156 HD
ENDROOT
BRANCH   6  13
ATOM     11  N   UNL     1      31.664 -10.763 -22.671  0.00  0.00    -0.241 NA
ATOM     12  N   UNL     1      33.246  -8.685 -23.693  0.00  0.00    -0.239 NA
ATOM     13  C   UNL     1      32.921 -10.973 -23.111  0.00  0.00    +0.102 C 
ATOM     14  C   UNL     1      33.698  -9.951 -23.612  0.00  0.00    +0.118 C 
ATOM     15  C   UNL     1      31.212  -9.496 -22.751  0.00  0.00    +0.119 C 
ATOM     16  C   UNL     1      31.988  -8.475 -23.253  0.00  0.00    +0.120 C 
ENDBRANCH   6  13
BRANCH   4  17
ATOM     17  C   UNL     1      35.642 -18.340 -22.125  0.00  0.00    +0.113 C 
BRANCH  17  19
ATOM     18  N   UNL     1      36.559 -20.578 -19.212  0.00  0.00    -0.244 NA
ATOM     19  C   UNL     1      35.508 -19.320 -20.989  0.00  0.00    +0.006 C 
ATOM     20  C   UNL     1      34.181 -20.773 -19.604  0.00  0.00    -0.004 C 
ATOM     21  C   UNL     1      35.343 -21.091 -18.920  0.00  0.00    +0.077 C 
ATOM     22  C   UNL     1      34.275 -19.869 -20.658  0.00  0.00    -0.005 C 
ATOM     23  C   UNL     1      36.610 -19.704 -20.241  0.00  0.00    +0.095 C 
ATOM     24  C   UNL     1      32.858 -21.360 -19.252  0.00  0.00    +0.033 C 
BRANCH  21  26
ATOM     25  N   UNL     1      35.350 -23.816 -15.670  0.00  0.00    -0.248 NA
ATOM     26  C   UNL     1      35.345 -22.020 -17.812  0.00  0.00    +0.020 C 
ATOM     27  C   UNL     1      36.435 -22.074 -16.948  0.00  0.00    +0.016 C 
ATOM     28  C   UNL     1      34.259 -22.862 -17.605  0.00  0.00    +0.022 C 
ATOM     29  C   UNL     1      36.388 -22.982 -15.902  0.00  0.00    +0.059 C 
ATOM     30  C   UNL     1      34.310 -23.735 -16.530  0.00  0.00    +0.098 C 
ATOM     31  C   UNL     1      37.539 -23.068 -14.956  0.00  0.00    +0.052 C 
ENDBRANCH  21  26
ENDBRANCH  17  19
ENDBRANCH   4  17
TORSDOF 4
ENDMDL
MODEL 6
REMARK VINA RESULT:     -11.3      3.460      6.401
REMARK  Name = 46926973
REMARK  4 active torsions:
REMARK  status: ('A' for Active; 'I' for Inactive)
REMARK    1  A    between atoms: C_4  and  C_17
REMARK    2  A    between atoms: C_6  and  C_13
REMARK    3  A    between atoms: C_17  and  C_19
REMARK    4  A    between atoms: C_21  and  C_26
REMARK                            x       y       z     vdW  Elec       q    Type
REMARK                         _______ _______ _______ _____ _____    ______ ____
ROOT
ATOM      1  O   UNL     1      33.922 -12.814 -21.919  0.00  0.00    -0.274 OA
ATOM      2  N   UNL     1      34.419 -14.392 -23.591  0.00  0.00    -0.269 N 
ATOM      3  N   UNL     1      35.068 -16.666 -23.544  0.00  0.00    -0.229 NA
ATOM      4  C   UNL     1      34.047 -13.135 -23.098  0.00  0.00    +0.232 C 
ATOM      5  C   UNL     1      34.730 -15.548 -22.863  0.00  0.00    +0.134 C 
ATOM      6  C   UNL     1      35.324 -17.781 -21.413  0.00  0.00    +0.038 C 
ATOM      7  C   UNL     1      34.667 -15.469 -21.482  0.00  0.00    +0.035 C 
ATOM      8  C   UNL     1      34.973 -16.611 -20.750  0.00  0.00    +0.006 C 
ATOM      9  C   UNL     1      35.358 -17.757 -22.798  0.00  0.00    +0.102 C 
ATOM     10  H   UNL     1      34.469 -14.473 -24.571  0.00  0.00    +0.156 HD
ENDROOT
BRANCH   6  13
ATOM     11  N   UNL     1      36.880 -19.031 -20.140  0.00  0.00    -0.241 NA
ATOM     12  N   UNL     1      35.055 -21.141 -19.862  0.00  0.00    -0.239 NA
ATOM     13  C   UNL     1      35.647 -18.983 -20.682  0.00  0.00    +0.102 C 
ATOM     14  C   UNL     1      34.750 -20.020 -20.545  0.00  0.00    +0.118 C 
ATOM     15  C   UNL     1      37.184 -20.152 -19.456  0.00  0.00    +0.119 C 
ATOM     16  C   UNL     1      36.288 -21.189 -19.320  0.00  0.00    +0.120 C 
ENDBRANCH   6  13
BRANCH   4  17
ATOM     17  C   UNL     1      33.796 -12.157 -24.236  0.00  0.00    +0.113 C 
BRANCH  17  19
ATOM     18  N   UNL     1      31.981  -9.079 -22.983  0.00  0.00    -0.244 NA
ATOM     19  C   UNL     1      33.545 -10.747 -23.770  0.00  0.00    +0.006 C 
ATOM     20  C   UNL     1      34.319  -8.528 -23.256  0.00  0.00    -0.004 C 
ATOM     21  C   UNL     1      33.014  -8.210 -22.918  0.00  0.00    +0.077 C 
ATOM     22  C   UNL     1      34.581  -9.824 -23.689  0.00  0.00    -0.005 C 
ATOM     23  C   UNL     1      32.274 -10.328 -23.408  0.00  0.00    +0.095 C 
ATOM     24  C   UNL     1      35.432  -7.540 -23.172  0.00  0.00    +0.033 C 
BRANCH  21  26
ATOM     25  N   UNL     1      31.931  -4.337 -21.570  0.00  0.00    -0.248 NA
ATOM     26  C   UNL     1      32.645  -6.889 -22.459  0.00  0.00    +0.020 C 
ATOM     27  C   UNL     1      32.212  -5.929 -23.368  0.00  0.00    +0.016 C 
ATOM     28  C   UNL     1      32.721  -6.574 -21.107  0.00  0.00    +0.022 C 
ATOM     29  C   UNL     1      31.870  -4.679 -22.876  0.00  0.00    +0.059 C 
ATOM     30  C   UNL     1      32.356  -5.296 -20.717  0.00  0.00    +0.098 C 
ATOM     31  C   UNL     1      31.402  -3.624 -23.823  0.00  0.00    +0.052 C 
ENDBRANCH  21  26
ENDBRANCH  17  19
ENDBRANCH   4  17
TORSDOF 4
ENDMDL
MODEL 7
REMARK VINA RESULT:     -10.8      1.796     10.906
REMARK  Name = 46926973
REMARK  4 active torsions:
REMARK  status: ('A' for Active; 'I' for Inactive)
REMARK    1  A    between atoms: C_4  and  C_17
REMARK    2  A    between atoms: C_6  and  C_13
REMARK    3  A    between atoms: C_17  and  C_19
REMARK    4  A    between atoms: C_21  and  C_26
REMARK                            x       y       z     vdW  Elec       q    Type
REMARK                         _______ _______ _______ _____ _____    ______ ____
ROOT
ATOM      1  O   UNL     1      35.458 -17.125 -20.580  0.00  0.00    -0.274 OA
ATOM      2  N   UNL     1      34.648 -16.940 -22.780  0.00  0.00    -0.269 N 
ATOM      3  N   UNL     1      33.895 -15.121 -24.092  0.00  0.00    -0.229 NA
ATOM      4  C   UNL     1      35.152 -17.617 -21.662  0.00  0.00    +0.232 C 
ATOM      5  C   UNL     1      34.384 -15.571 -22.914  0.00  0.00    +0.134 C 
ATOM      6  C   UNL     1      33.886 -12.898 -23.140  0.00  0.00    +0.038 C 
ATOM      7  C   UNL     1      34.646 -14.760 -21.822  0.00  0.00    +0.035 C 
ATOM      8  C   UNL     1      34.388 -13.400 -21.945  0.00  0.00    +0.006 C 
ATOM      9  C   UNL     1      33.657 -13.792 -24.174  0.00  0.00    +0.102 C 
ATOM     10  H   UNL     1      34.455 -17.495 -23.570  0.00  0.00    +0.156 HD
ENDROOT
BRANCH   6  13
ATOM     11  N   UNL     1      32.328 -11.116 -23.101  0.00  0.00    -0.241 NA
ATOM     12  N   UNL     1      34.327  -9.270 -23.780  0.00  0.00    -0.239 NA
ATOM     13  C   UNL     1      33.608 -11.490 -23.299  0.00  0.00    +0.102 C 
ATOM     14  C   UNL     1      34.590 -10.583 -23.632  0.00  0.00    +0.118 C 
ATOM     15  C   UNL     1      32.066  -9.802 -23.249  0.00  0.00    +0.119 C 
ATOM     16  C   UNL     1      33.047  -8.895 -23.582  0.00  0.00    +0.120 C 
ENDBRANCH   6  13
BRANCH   4  17
ATOM     17  C   UNL     1      35.289 -19.105 -21.944  0.00  0.00    +0.113 C 
BRANCH  17  19
ATOM     18  N   UNL     1      33.206 -21.061 -19.459  0.00  0.00    -0.244 NA
ATOM     19  C   UNL     1      34.924 -19.975 -20.769  0.00  0.00    +0.006 C 
ATOM     20  C   UNL     1      35.535 -21.285 -18.847  0.00  0.00    -0.004 C 
ATOM     21  C   UNL     1      34.186 -21.540 -18.660  0.00  0.00    +0.077 C 
ATOM     22  C   UNL     1      35.902 -20.486 -19.925  0.00  0.00    -0.005 C 
ATOM     23  C   UNL     1      33.602 -20.289 -20.495  0.00  0.00    +0.095 C 
ATOM     24  C   UNL     1      36.586 -21.832 -17.943  0.00  0.00    +0.033 C 
BRANCH  21  26
ATOM     25  N   UNL     1      32.784 -23.941 -15.456  0.00  0.00    -0.248 NA
ATOM     26  C   UNL     1      33.708 -22.358 -17.568  0.00  0.00    +0.020 C 
ATOM     27  C   UNL     1      32.350 -22.403 -17.271  0.00  0.00    +0.016 C 
ATOM     28  C   UNL     1      34.605 -23.104 -16.810  0.00  0.00    +0.022 C 
ATOM     29  C   UNL     1      31.943 -23.203 -16.215  0.00  0.00    +0.059 C 
ATOM     30  C   UNL     1      34.097 -23.872 -15.775  0.00  0.00    +0.098 C 
ATOM     31  C   UNL     1      30.494 -23.275 -15.867  0.00  0.00    +0.052 C 
ENDBRANCH  21  26
ENDBRANCH  17  19
ENDBRANCH   4  17
TORSDOF 4
ENDMDL
MODEL 8
REMARK VINA RESULT:     -10.8      2.143     10.648
REMARK  Name = 46926973
REMARK  4 active torsions:
REMARK  status: ('A' for Active; 'I' for Inactive)
REMARK    1  A    between atoms: C_4  and  C_17
REMARK    2  A    between atoms: C_6  and  C_13
REMARK    3  A    between atoms: C_17  and  C_19
REMARK    4  A    between atoms: C_21  and  C_26
REMARK                            x       y       z     vdW  Elec       q    Type
REMARK                         _______ _______ _______ _____ _____    ______ ____
ROOT
ATOM      1  O   UNL     1      37.050 -19.394 -19.104  0.00  0.00    -0.274 OA
ATOM      2  N   UNL     1      35.776 -20.342 -20.839  0.00  0.00    -0.269 N 
ATOM      3  N   UNL     1      34.621 -19.438 -22.694  0.00  0.00    -0.229 NA
ATOM      4  C   UNL     1      36.559 -20.362 -19.676  0.00  0.00    +0.232 C 
ATOM      5  C   UNL     1      35.384 -19.232 -21.597  0.00  0.00    +0.134 C 
ATOM      6  C   UNL     1      34.642 -17.046 -23.052  0.00  0.00    +0.038 C 
ATOM      7  C   UNL     1      35.809 -17.984 -21.170  0.00  0.00    +0.035 C 
ATOM      8  C   UNL     1      35.426 -16.876 -21.916  0.00  0.00    +0.006 C 
ATOM      9  C   UNL     1      34.268 -18.336 -23.395  0.00  0.00    +0.102 C 
ATOM     10  H   UNL     1      35.463 -21.218 -21.163  0.00  0.00    +0.156 HD
ENDROOT
BRANCH   6  13
ATOM     11  N   UNL     1      34.335 -14.708 -23.257  0.00  0.00    -0.241 NA
ATOM     12  N   UNL     1      33.365 -15.000 -25.871  0.00  0.00    -0.239 NA
ATOM     13  C   UNL     1      34.227 -15.915 -23.847  0.00  0.00    +0.102 C 
ATOM     14  C   UNL     1      33.751 -16.058 -25.132  0.00  0.00    +0.118 C 
ATOM     15  C   UNL     1      33.949 -13.650 -23.997  0.00  0.00    +0.119 C 
ATOM     16  C   UNL     1      33.472 -13.793 -25.281  0.00  0.00    +0.120 C 
ENDBRANCH   6  13
BRANCH   4  17
ATOM     17  C   UNL     1      36.748 -21.784 -19.173  0.00  0.00    +0.113 C 
BRANCH  17  19
ATOM     18  N   UNL     1      33.434 -22.857 -17.688  0.00  0.00    -0.244 NA
ATOM     19  C   UNL     1      35.714 -22.205 -18.162  0.00  0.00    +0.006 C 
ATOM     20  C   UNL     1      35.062 -22.720 -15.905  0.00  0.00    -0.004 C 
ATOM     21  C   UNL     1      33.787 -22.969 -16.388  0.00  0.00    +0.077 C 
ATOM     22  C   UNL     1      36.038 -22.331 -16.816  0.00  0.00    -0.005 C 
ATOM     23  C   UNL     1      34.409 -22.477 -18.543  0.00  0.00    +0.095 C 
ATOM     24  C   UNL     1      35.411 -22.854 -14.462  0.00  0.00    +0.033 C 
BRANCH  21  26
ATOM     25  N   UNL     1      30.619 -24.166 -13.834  0.00  0.00    -0.248 NA
ATOM     26  C   UNL     1      32.707 -23.377 -15.517  0.00  0.00    +0.020 C 
ATOM     27  C   UNL     1      31.420 -22.892 -15.727  0.00  0.00    +0.016 C 
ATOM     28  C   UNL     1      32.951 -24.256 -14.468  0.00  0.00    +0.022 C 
ATOM     29  C   UNL     1      30.420 -23.314 -14.864  0.00  0.00    +0.059 C 
ATOM     30  C   UNL     1      31.882 -24.616 -13.662  0.00  0.00    +0.098 C 
ATOM     31  C   UNL     1      29.027 -22.814 -15.059  0.00  0.00    +0.052 C 
ENDBRANCH  21  26
ENDBRANCH  17  19
ENDBRANCH   4  17
TORSDOF 4
ENDMDL
MODEL 9
REMARK VINA RESULT:     -10.3      3.251     10.508
REMARK  Name = 46926973
REMARK  4 active torsions:
REMARK  status: ('A' for Active; 'I' for Inactive)
REMARK    1  A    between atoms: C_4  and  C_17
REMARK    2  A    between atoms: C_6  and  C_13
REMARK    3  A    between atoms: C_17  and  C_19
REMARK    4  A    between atoms: C_21  and  C_26
REMARK                            x       y       z     vdW  Elec       q    Type
REMARK                         _______ _______ _______ _____ _____    ______ ____
ROOT
ATOM      1  O   UNL     1      37.580 -21.163 -17.252  0.00  0.00    -0.274 OA
ATOM      2  N   UNL     1      35.464 -21.731 -18.108  0.00  0.00    -0.269 N 
ATOM      3  N   UNL     1      34.188 -20.956 -19.943  0.00  0.00    -0.229 NA
ATOM      4  C   UNL     1      36.545 -21.822 -17.221  0.00  0.00    +0.232 C 
ATOM      5  C   UNL     1      35.323 -20.881 -19.213  0.00  0.00    +0.134 C 
ATOM      6  C   UNL     1      35.085 -19.214 -21.360  0.00  0.00    +0.038 C 
ATOM      7  C   UNL     1      36.367 -20.013 -19.488  0.00  0.00    +0.035 C 
ATOM      8  C   UNL     1      36.238 -19.166 -20.583  0.00  0.00    +0.006 C 
ATOM      9  C   UNL     1      34.098 -20.118 -21.000  0.00  0.00    +0.102 C 
ATOM     10  H   UNL     1      34.710 -22.339 -17.934  0.00  0.00    +0.156 HD
ENDROOT
BRANCH   6  13
ATOM     11  N   UNL     1      35.346 -17.078 -22.346  0.00  0.00    -0.241 NA
ATOM     12  N   UNL     1      34.211 -17.978 -24.747  0.00  0.00    -0.239 NA
ATOM     13  C   UNL     1      34.921 -18.347 -22.503  0.00  0.00    +0.102 C 
ATOM     14  C   UNL     1      34.363 -18.789 -23.682  0.00  0.00    +0.118 C 
ATOM     15  C   UNL     1      35.194 -16.267 -23.411  0.00  0.00    +0.119 C 
ATOM     16  C   UNL     1      34.636 -16.708 -24.591  0.00  0.00    +0.120 C 
ENDBRANCH   6  13
BRANCH   4  17
ATOM     17  C   UNL     1      36.288 -22.881 -16.160  0.00  0.00    +0.113 C 
BRANCH  17  19
ATOM     18  N   UNL     1      32.634 -23.677 -16.753  0.00  0.00    -0.244 NA
ATOM     19  C   UNL     1      34.824 -23.120 -15.894  0.00  0.00    +0.006 C 
ATOM     20  C   UNL     1      32.947 -23.240 -14.395  0.00  0.00    -0.004 C 
ATOM     21  C   UNL     1      32.163 -23.565 -15.491  0.00  0.00    +0.077 C 
ATOM     22  C   UNL     1      34.302 -23.015 -14.610  0.00  0.00    -0.005 C 
ATOM     23  C   UNL     1      33.955 -23.451 -16.922  0.00  0.00    +0.095 C 
ATOM     24  C   UNL     1      32.389 -23.125 -13.018  0.00  0.00    +0.033 C 
BRANCH  21  26
ATOM     25  N   UNL     1      28.002 -24.302 -15.126  0.00  0.00    -0.248 NA
ATOM     26  C   UNL     1      30.744 -23.816 -15.366  0.00  0.00    +0.020 C 
ATOM     27  C   UNL     1      29.827 -22.937 -15.933  0.00  0.00    +0.016 C 
ATOM     28  C   UNL     1      30.291 -24.938 -14.680  0.00  0.00    +0.022 C 
ATOM     29  C   UNL     1      28.479 -23.223 -15.786  0.00  0.00    +0.059 C 
ATOM     30  C   UNL     1      28.923 -25.134 -14.589  0.00  0.00    +0.098 C 
ATOM     31  C   UNL     1      27.467 -22.302 -16.380  0.00  0.00    +0.052 C 
ENDBRANCH  21  26
ENDBRANCH  17  19
ENDBRANCH   4  17
TORSDOF 4
ENDMDL
