MODEL 1
REMARK VINA RESULT:     -11.2      0.000      0.000
REMARK  Name = 16045340
REMARK  6 active torsions:
REMARK  status: ('A' for Active; 'I' for Inactive)
REMARK    1  A    between atoms: C_2  and  O_8
REMARK    2  A    between atoms: C_4  and  O_20
REMARK    3  A    between atoms: O_8  and  C_9
REMARK    4  A    between atoms: C_9  and  C_13
REMARK    5  A    between atoms: O_20  and  C_22
REMARK    6  A    between atoms: C_25  and  C_29
REMARK                            x       y       z     vdW  Elec       q    Type
REMARK                         _______ _______ _______ _____ _____    ______ ____
ROOT
ATOM      1 CL   UNL     1      31.714 -10.126 -17.850  0.00  0.00    -0.079 Cl
ATOM      2  C   UNL     1      32.185 -11.826 -21.998  0.00  0.00    +0.142 C 
ATOM      3  C   UNL     1      31.905 -10.472 -21.843  0.00  0.00    +0.075 C 
ATOM      4  C   UNL     1      31.758  -9.937 -20.562  0.00  0.00    +0.159 C 
ATOM      5  C   UNL     1      32.319 -12.651 -20.885  0.00  0.00    +0.038 C 
ATOM      6  C   UNL     1      31.892 -10.760 -19.445  0.00  0.00    +0.092 C 
ATOM      7  C   UNL     1      32.173 -12.116 -19.606  0.00  0.00    +0.018 C 
ENDROOT
BRANCH   2   8
ATOM      8  O   UNL     1      32.329 -12.350 -23.254  0.00  0.00    -0.469 OA
BRANCH   8   9
ATOM      9  C   UNL     1      33.653 -12.714 -23.645  0.00  0.00    +0.248 C 
BRANCH   9  13
ATOM     10  N   UNL     1      33.043 -14.413 -25.352  0.00  0.00    -0.228 N 
ATOM     11  N   UNL     1      33.145 -15.714 -25.699  0.00  0.00    -0.128 NA
ATOM     12  N   UNL     1      34.253 -17.547 -24.561  0.00  0.00    -0.192 NA
ATOM     13  C   UNL     1      33.663 -14.088 -24.176  0.00  0.00    +0.093 C 
ATOM     14  C   UNL     1      34.205 -15.263 -23.730  0.00  0.00    +0.060 C 
ATOM     15  C   UNL     1      33.861 -16.249 -24.705  0.00  0.00    +0.050 C 
ATOM     16  C   UNL     1      34.936 -15.432 -22.565  0.00  0.00    +0.065 C 
ATOM     17  C   UNL     1      35.328 -16.768 -22.436  0.00  0.00    +0.001 C 
ATOM     18  C   UNL     1      34.978 -17.734 -23.412  0.00  0.00    +0.105 C 
ATOM     19  H   UNL     1      32.562 -13.753 -25.900  0.00  0.00    +0.175 HD
ENDBRANCH   9  13
ENDBRANCH   8   9
ENDBRANCH   2   8
BRANCH   4  20
ATOM     20  O   UNL     1      31.486  -8.608 -20.435  0.00  0.00    -0.452 OA
BRANCH  20  22
ATOM     21 CL   UNL     1      35.636  -7.011 -22.906  0.00  0.00    -0.082 Cl
ATOM     22  C   UNL     1      32.037  -7.747 -21.368  0.00  0.00    +0.147 C 
ATOM     23  C   UNL     1      31.217  -6.841 -22.017  0.00  0.00    +0.048 C 
ATOM     24  C   UNL     1      33.394  -7.814 -21.626  0.00  0.00    +0.049 C 
ATOM     25  C   UNL     1      31.774  -5.973 -22.957  0.00  0.00    +0.072 C 
ATOM     26  C   UNL     1      33.950  -6.946 -22.566  0.00  0.00    +0.061 C 
ATOM     27  C   UNL     1      33.140  -6.026 -23.232  0.00  0.00    +0.022 C 
BRANCH  25  29
ATOM     28  N   UNL     1      30.265  -4.264 -24.193  0.00  0.00    -0.191 NA
ATOM     29  C   UNL     1      30.943  -5.032 -23.638  0.00  0.00    +0.101 C 
ENDBRANCH  25  29
ENDBRANCH  20  22
ENDBRANCH   4  20
TORSDOF 6
ENDMDL
MODEL 2
REMARK VINA RESULT:     -11.2      3.096      4.567
REMARK  Name = 16045340
REMARK  6 active torsions:
REMARK  status: ('A' for Active; 'I' for Inactive)
REMARK    1  A    between atoms: C_2  and  O_8
REMARK    2  A    between atoms: C_4  and  O_20
REMARK    3  A    between atoms: O_8  and  C_9
REMARK    4  A    between atoms: C_9  and  C_13
REMARK    5  A    between atoms: O_20  and  C_22
REMARK    6  A    between atoms: C_25  and  C_29
REMARK                            x       y       z     vdW  Elec       q    Type
REMARK                         _______ _______ _______ _____ _____    ______ ____
ROOT
ATOM      1 CL   UNL     1      31.982 -12.548 -19.914  0.00  0.00    -0.079 Cl
ATOM      2  C   UNL     1      34.682 -15.329 -22.215  0.00  0.00    +0.142 C 
ATOM      3  C   UNL     1      33.874 -14.433 -22.908  0.00  0.00    +0.075 C 
ATOM      4  C   UNL     1      33.035 -13.569 -22.204  0.00  0.00    +0.159 C 
ATOM      5  C   UNL     1      34.659 -15.369 -20.823  0.00  0.00    +0.038 C 
ATOM      6  C   UNL     1      33.009 -13.604 -20.810  0.00  0.00    +0.092 C 
ATOM      7  C   UNL     1      33.821 -14.504 -20.120  0.00  0.00    +0.018 C 
ENDROOT
BRANCH   2   8
ATOM      8  O   UNL     1      35.504 -16.177 -22.905  0.00  0.00    -0.469 OA
BRANCH   8   9
ATOM      9  C   UNL     1      35.100 -17.545 -22.971  0.00  0.00    +0.248 C 
BRANCH   9  13
ATOM     10  N   UNL     1      37.147 -18.187 -21.719  0.00  0.00    -0.228 N 
ATOM     11  N   UNL     1      37.641 -18.980 -20.744  0.00  0.00    -0.128 NA
ATOM     12  N   UNL     1      36.514 -20.606 -19.340  0.00  0.00    -0.192 NA
ATOM     13  C   UNL     1      35.805 -18.330 -21.944  0.00  0.00    +0.093 C 
ATOM     14  C   UNL     1      35.401 -19.284 -21.050  0.00  0.00    +0.060 C 
ATOM     15  C   UNL     1      36.571 -19.661 -20.322  0.00  0.00    +0.050 C 
ATOM     16  C   UNL     1      34.110 -19.766 -20.901  0.00  0.00    +0.065 C 
ATOM     17  C   UNL     1      34.074 -20.732 -19.890  0.00  0.00    +0.001 C 
ATOM     18  C   UNL     1      35.244 -21.095 -19.178  0.00  0.00    +0.105 C 
ATOM     19  H   UNL     1      37.708 -17.558 -22.227  0.00  0.00    +0.175 HD
ENDBRANCH   9  13
ENDBRANCH   8   9
ENDBRANCH   2   8
BRANCH   4  20
ATOM     20  O   UNL     1      32.254 -12.698 -22.904  0.00  0.00    -0.452 OA
BRANCH  20  22
ATOM     21 CL   UNL     1      36.063  -9.592 -24.219  0.00  0.00    -0.082 Cl
ATOM     22  C   UNL     1      32.712 -11.401 -23.051  0.00  0.00    +0.147 C 
ATOM     23  C   UNL     1      31.869 -10.348 -22.739  0.00  0.00    +0.048 C 
ATOM     24  C   UNL     1      34.001 -11.188 -23.506  0.00  0.00    +0.049 C 
ATOM     25  C   UNL     1      32.332  -9.040 -22.887  0.00  0.00    +0.072 C 
ATOM     26  C   UNL     1      34.463  -9.881 -23.654  0.00  0.00    +0.061 C 
ATOM     27  C   UNL     1      33.628  -8.806 -23.345  0.00  0.00    +0.022 C 
BRANCH  25  29
ATOM     28  N   UNL     1      30.778  -7.046 -22.312  0.00  0.00    -0.191 NA
ATOM     29  C   UNL     1      31.476  -7.941 -22.570  0.00  0.00    +0.101 C 
ENDBRANCH  25  29
ENDBRANCH  20  22
ENDBRANCH   4  20
TORSDOF 6
ENDMDL
MODEL 3
REMARK VINA RESULT:     -11.2      5.006      7.881
REMARK  Name = 16045340
REMARK  6 active torsions:
REMARK  status: ('A' for Active; 'I' for Inactive)
REMARK    1  A    between atoms: C_2  and  O_8
REMARK    2  A    between atoms: C_4  and  O_20
REMARK    3  A    between atoms: O_8  and  C_9
REMARK    4  A    between atoms: C_9  and  C_13
REMARK    5  A    between atoms: O_20  and  C_22
REMARK    6  A    between atoms: C_25  and  C_29
REMARK                            x       y       z     vdW  Elec       q    Type
REMARK                         _______ _______ _______ _____ _____    ______ ____
ROOT
ATOM      1 CL   UNL     1      33.740 -15.325 -25.509  0.00  0.00    -0.079 Cl
ATOM      2  C   UNL     1      35.008 -18.621 -22.708  0.00  0.00    +0.142 C 
ATOM      3  C   UNL     1      35.370 -17.308 -22.425  0.00  0.00    +0.075 C 
ATOM      4  C   UNL     1      34.982 -16.281 -23.287  0.00  0.00    +0.159 C 
ATOM      5  C   UNL     1      34.261 -18.918 -23.845  0.00  0.00    +0.038 C 
ATOM      6  C   UNL     1      34.233 -16.574 -24.426  0.00  0.00    +0.092 C 
ATOM      7  C   UNL     1      33.873 -17.892 -24.705  0.00  0.00    +0.018 C 
ENDROOT
BRANCH   2   8
ATOM      8  O   UNL     1      35.389 -19.627 -21.863  0.00  0.00    -0.469 OA
BRANCH   8   9
ATOM      9  C   UNL     1      34.399 -20.105 -20.952  0.00  0.00    +0.248 C 
BRANCH   9  13
ATOM     10  N   UNL     1      36.367 -20.531 -19.498  0.00  0.00    -0.228 N 
ATOM     11  N   UNL     1      36.805 -21.176 -18.396  0.00  0.00    -0.128 NA
ATOM     12  N   UNL     1      35.608 -22.623 -16.860  0.00  0.00    -0.192 NA
ATOM     13  C   UNL     1      35.044 -20.731 -19.786  0.00  0.00    +0.093 C 
ATOM     14  C   UNL     1      34.594 -21.565 -18.799  0.00  0.00    +0.060 C 
ATOM     15  C   UNL     1      35.717 -21.818 -17.955  0.00  0.00    +0.050 C 
ATOM     16  C   UNL     1      33.302 -22.050 -18.669  0.00  0.00    +0.065 C 
ATOM     17  C   UNL     1      33.211 -22.873 -17.542  0.00  0.00    +0.001 C 
ATOM     18  C   UNL     1      34.336 -23.113 -16.715  0.00  0.00    +0.105 C 
ATOM     19  H   UNL     1      36.952 -19.965 -20.049  0.00  0.00    +0.175 HD
ENDBRANCH   9  13
ENDBRANCH   8   9
ENDBRANCH   2   8
BRANCH   4  20
ATOM     20  O   UNL     1      35.347 -15.002 -22.989  0.00  0.00    -0.452 OA
BRANCH  20  22
ATOM     21 CL   UNL     1      32.155 -14.169 -19.116  0.00  0.00    -0.082 Cl
ATOM     22  C   UNL     1      34.396 -14.182 -22.409  0.00  0.00    +0.147 C 
ATOM     23  C   UNL     1      34.032 -13.011 -23.050  0.00  0.00    +0.048 C 
ATOM     24  C   UNL     1      33.831 -14.554 -21.202  0.00  0.00    +0.049 C 
ATOM     25  C   UNL     1      33.072 -12.184 -22.465  0.00  0.00    +0.072 C 
ATOM     26  C   UNL     1      32.871 -13.727 -20.617  0.00  0.00    +0.061 C 
ATOM     27  C   UNL     1      32.492 -12.542 -21.248  0.00  0.00    +0.022 C 
BRANCH  25  29
ATOM     28  N   UNL     1      32.371  -9.982 -23.640  0.00  0.00    -0.191 NA
ATOM     29  C   UNL     1      32.686 -10.971 -23.113  0.00  0.00    +0.101 C 
ENDBRANCH  25  29
ENDBRANCH  20  22
ENDBRANCH   4  20
TORSDOF 6
ENDMDL
MODEL 4
REMARK VINA RESULT:     -10.7     10.481     14.821
REMARK  Name = 16045340
REMARK  6 active torsions:
REMARK  status: ('A' for Active; 'I' for Inactive)
REMARK    1  A    between atoms: C_2  and  O_8
REMARK    2  A    between atoms: C_4  and  O_20
REMARK    3  A    between atoms: O_8  and  C_9
REMARK    4  A    between atoms: C_9  and  C_13
REMARK    5  A    between atoms: O_20  and  C_22
REMARK    6  A    between atoms: C_25  and  C_29
REMARK                            x       y       z     vdW  Elec       q    Type
REMARK                         _______ _______ _______ _____ _____    ______ ____
ROOT
ATOM      1 CL   UNL     1      30.686 -24.559 -12.938  0.00  0.00    -0.079 Cl
ATOM      2  C   UNL     1      32.058 -22.691 -16.804  0.00  0.00    +0.142 C 
ATOM      3  C   UNL     1      32.904 -23.565 -16.130  0.00  0.00    +0.075 C 
ATOM      4  C   UNL     1      32.488 -24.148 -14.932  0.00  0.00    +0.159 C 
ATOM      5  C   UNL     1      30.797 -22.395 -16.292  0.00  0.00    +0.038 C 
ATOM      6  C   UNL     1      31.227 -23.854 -14.416  0.00  0.00    +0.092 C 
ATOM      7  C   UNL     1      30.382 -22.978 -15.096  0.00  0.00    +0.018 C 
ENDROOT
BRANCH   2   8
ATOM      8  O   UNL     1      32.466 -22.120 -17.978  0.00  0.00    -0.469 OA
BRANCH   8   9
ATOM      9  C   UNL     1      33.493 -22.803 -18.698  0.00  0.00    +0.248 C 
BRANCH   9  13
ATOM     10  N   UNL     1      35.781 -22.093 -18.041  0.00  0.00    -0.228 N 
ATOM     11  N   UNL     1      36.779 -21.220 -18.292  0.00  0.00    -0.128 NA
ATOM     12  N   UNL     1      36.909 -19.431 -19.925  0.00  0.00    -0.192 NA
ATOM     13  C   UNL     1      34.677 -21.938 -18.833  0.00  0.00    +0.093 C 
ATOM     14  C   UNL     1      34.982 -20.889 -19.657  0.00  0.00    +0.060 C 
ATOM     15  C   UNL     1      36.298 -20.471 -19.290  0.00  0.00    +0.050 C 
ATOM     16  C   UNL     1      34.162 -20.360 -20.641  0.00  0.00    +0.065 C 
ATOM     17  C   UNL     1      34.807 -19.296 -21.281  0.00  0.00    +0.001 C 
ATOM     18  C   UNL     1      36.112 -18.895 -20.903  0.00  0.00    +0.105 C 
ATOM     19  H   UNL     1      35.843 -22.785 -17.344  0.00  0.00    +0.175 HD
ENDBRANCH   9  13
ENDBRANCH   8   9
ENDBRANCH   2   8
BRANCH   4  20
ATOM     20  O   UNL     1      33.334 -25.002 -14.291  0.00  0.00    -0.452 OA
BRANCH  20  22
ATOM     21 CL   UNL     1      37.819 -22.812 -15.274  0.00  0.00    -0.082 Cl
ATOM     22  C   UNL     1      34.519 -24.484 -13.799  0.00  0.00    +0.147 C 
ATOM     23  C   UNL     1      34.744 -24.490 -12.433  0.00  0.00    +0.048 C 
ATOM     24  C   UNL     1      35.451 -23.974 -14.685  0.00  0.00    +0.049 C 
ATOM     25  C   UNL     1      35.939 -23.968 -11.939  0.00  0.00    +0.072 C 
ATOM     26  C   UNL     1      36.646 -23.452 -14.191  0.00  0.00    +0.061 C 
ATOM     27  C   UNL     1      36.890 -23.449 -12.817  0.00  0.00    +0.022 C 
BRANCH  25  29
ATOM     28  N   UNL     1      36.390 -23.962  -9.385  0.00  0.00    -0.191 NA
ATOM     29  C   UNL     1      36.188 -23.965 -10.532  0.00  0.00    +0.101 C 
ENDBRANCH  25  29
ENDBRANCH  20  22
ENDBRANCH   4  20
TORSDOF 6
ENDMDL
MODEL 5
REMARK VINA RESULT:     -10.7     10.458     14.608
REMARK  Name = 16045340
REMARK  6 active torsions:
REMARK  status: ('A' for Active; 'I' for Inactive)
REMARK    1  A    between atoms: C_2  and  O_8
REMARK    2  A    between atoms: C_4  and  O_20
REMARK    3  A    between atoms: O_8  and  C_9
REMARK    4  A    between atoms: C_9  and  C_13
REMARK    5  A    between atoms: O_20  and  C_22
REMARK    6  A    between atoms: C_25  and  C_29
REMARK                            x       y       z     vdW  Elec       q    Type
REMARK                         _______ _______ _______ _____ _____    ______ ____
ROOT
ATOM      1 CL   UNL     1      30.839 -24.496 -12.380  0.00  0.00    -0.079 Cl
ATOM      2  C   UNL     1      31.814 -22.937 -16.496  0.00  0.00    +0.142 C 
ATOM      3  C   UNL     1      32.846 -23.180 -15.596  0.00  0.00    +0.075 C 
ATOM      4  C   UNL     1      32.554 -23.663 -14.319  0.00  0.00    +0.159 C 
ATOM      5  C   UNL     1      30.491 -23.172 -16.132  0.00  0.00    +0.038 C 
ATOM      6  C   UNL     1      31.231 -23.900 -13.951  0.00  0.00    +0.092 C 
ATOM      7  C   UNL     1      30.199 -23.655 -14.857  0.00  0.00    +0.018 C 
ENDROOT
BRANCH   2   8
ATOM      8  O   UNL     1      32.101 -22.464 -17.747  0.00  0.00    -0.469 OA
BRANCH   8   9
ATOM      9  C   UNL     1      33.480 -22.431 -18.116  0.00  0.00    +0.248 C 
BRANCH   9  13
ATOM     10  N   UNL     1      32.673 -20.911 -19.908  0.00  0.00    -0.228 N 
ATOM     11  N   UNL     1      33.042 -19.985 -20.817  0.00  0.00    -0.128 NA
ATOM     12  N   UNL     1      35.237 -19.079 -21.314  0.00  0.00    -0.192 NA
ATOM     13  C   UNL     1      33.700 -21.412 -19.156  0.00  0.00    +0.093 C 
ATOM     14  C   UNL     1      34.815 -20.762 -19.611  0.00  0.00    +0.060 C 
ATOM     15  C   UNL     1      34.364 -19.883 -20.643  0.00  0.00    +0.050 C 
ATOM     16  C   UNL     1      36.109 -20.940 -19.146  0.00  0.00    +0.065 C 
ATOM     17  C   UNL     1      36.988 -20.107 -19.847  0.00  0.00    +0.001 C 
ATOM     18  C   UNL     1      36.523 -19.242 -20.868  0.00  0.00    +0.105 C 
ATOM     19  H   UNL     1      31.740 -21.203 -19.795  0.00  0.00    +0.175 HD
ENDBRANCH   9  13
ENDBRANCH   8   9
ENDBRANCH   2   8
BRANCH   4  20
ATOM     20  O   UNL     1      33.582 -23.896 -13.455  0.00  0.00    -0.452 OA
BRANCH  20  22
ATOM     21 CL   UNL     1      37.313 -21.431 -15.882  0.00  0.00    -0.082 Cl
ATOM     22  C   UNL     1      34.864 -23.928 -13.976  0.00  0.00    +0.147 C 
ATOM     23  C   UNL     1      35.607 -25.091 -13.871  0.00  0.00    +0.048 C 
ATOM     24  C   UNL     1      35.370 -22.796 -14.589  0.00  0.00    +0.049 C 
ATOM     25  C   UNL     1      36.898 -25.122 -14.396  0.00  0.00    +0.072 C 
ATOM     26  C   UNL     1      36.662 -22.827 -15.115  0.00  0.00    +0.061 C 
ATOM     27  C   UNL     1      37.427 -23.990 -15.018  0.00  0.00    +0.022 C 
BRANCH  25  29
ATOM     28  N   UNL     1      38.317 -27.285 -14.215  0.00  0.00    -0.191 NA
ATOM     29  C   UNL     1      37.680 -26.313 -14.296  0.00  0.00    +0.101 C 
ENDBRANCH  25  29
ENDBRANCH  20  22
ENDBRANCH   4  20
TORSDOF 6
ENDMDL
MODEL 6
REMARK VINA RESULT:     -10.5     10.811     15.300
REMARK  Name = 16045340
REMARK  6 active torsions:
REMARK  status: ('A' for Active; 'I' for Inactive)
REMARK    1  A    between atoms: C_2  and  O_8
REMARK    2  A    between atoms: C_4  and  O_20
REMARK    3  A    between atoms: O_8  and  C_9
REMARK    4  A    between atoms: C_9  and  C_13
REMARK    5  A    between atoms: O_20  and  C_22
REMARK    6  A    between atoms: C_25  and  C_29
REMARK                            x       y       z     vdW  Elec       q    Type
REMARK                         _______ _______ _______ _____ _____    ______ ____
ROOT
ATOM      1 CL   UNL     1      30.617 -25.017 -12.465  0.00  0.00    -0.079 Cl
ATOM      2  C   UNL     1      32.223 -22.982 -16.153  0.00  0.00    +0.142 C 
ATOM      3  C   UNL     1      33.012 -23.043 -15.008  0.00  0.00    +0.075 C 
ATOM      4  C   UNL     1      32.523 -23.671 -13.862  0.00  0.00    +0.159 C 
ATOM      5  C   UNL     1      30.949 -23.544 -16.163  0.00  0.00    +0.038 C 
ATOM      6  C   UNL     1      31.248 -24.235 -13.867  0.00  0.00    +0.092 C 
ATOM      7  C   UNL     1      30.461 -24.172 -15.017  0.00  0.00    +0.018 C 
ENDROOT
BRANCH   2   8
ATOM      8  O   UNL     1      32.703 -22.366 -17.276  0.00  0.00    -0.469 OA
BRANCH   8   9
ATOM      9  C   UNL     1      33.701 -23.072 -18.014  0.00  0.00    +0.248 C 
BRANCH   9  13
ATOM     10  N   UNL     1      36.010 -22.160 -17.925  0.00  0.00    -0.228 N 
ATOM     11  N   UNL     1      36.854 -21.244 -18.443  0.00  0.00    -0.128 NA
ATOM     12  N   UNL     1      36.481 -19.584 -20.171  0.00  0.00    -0.192 NA
ATOM     13  C   UNL     1      34.752 -22.142 -18.461  0.00  0.00    +0.093 C 
ATOM     14  C   UNL     1      34.784 -21.142 -19.395  0.00  0.00    +0.060 C 
ATOM     15  C   UNL     1      36.109 -20.609 -19.354  0.00  0.00    +0.050 C 
ATOM     16  C   UNL     1      33.730 -20.748 -20.204  0.00  0.00    +0.065 C 
ATOM     17  C   UNL     1      34.132 -19.696 -21.034  0.00  0.00    +0.001 C 
ATOM     18  C   UNL     1      35.450 -19.180 -20.980  0.00  0.00    +0.105 C 
ATOM     19  H   UNL     1      36.277 -22.790 -17.218  0.00  0.00    +0.175 HD
ENDBRANCH   9  13
ENDBRANCH   8   9
ENDBRANCH   2   8
BRANCH   4  20
ATOM     20  O   UNL     1      33.314 -23.720 -12.753  0.00  0.00    -0.452 OA
BRANCH  20  22
ATOM     21 CL   UNL     1      38.177 -23.412 -11.293  0.00  0.00    -0.082 Cl
ATOM     22  C   UNL     1      34.616 -24.160 -12.912  0.00  0.00    +0.147 C 
ATOM     23  C   UNL     1      34.892 -25.124 -13.865  0.00  0.00    +0.048 C 
ATOM     24  C   UNL     1      35.610 -23.622 -12.115  0.00  0.00    +0.049 C 
ATOM     25  C   UNL     1      36.205 -25.567 -14.025  0.00  0.00    +0.072 C 
ATOM     26  C   UNL     1      36.924 -24.065 -12.274  0.00  0.00    +0.061 C 
ATOM     27  C   UNL     1      37.221 -25.038 -13.229  0.00  0.00    +0.022 C 
BRANCH  25  29
ATOM     28  N   UNL     1      36.754 -27.375 -15.800  0.00  0.00    -0.191 NA
ATOM     29  C   UNL     1      36.507 -26.563 -15.003  0.00  0.00    +0.101 C 
ENDBRANCH  25  29
ENDBRANCH  20  22
ENDBRANCH   4  20
TORSDOF 6
ENDMDL
MODEL 7
REMARK VINA RESULT:     -10.5      1.327      1.674
REMARK  Name = 16045340
REMARK  6 active torsions:
REMARK  status: ('A' for Active; 'I' for Inactive)
REMARK    1  A    between atoms: C_2  and  O_8
REMARK    2  A    between atoms: C_4  and  O_20
REMARK    3  A    between atoms: O_8  and  C_9
REMARK    4  A    between atoms: C_9  and  C_13
REMARK    5  A    between atoms: O_20  and  C_22
REMARK    6  A    between atoms: C_25  and  C_29
REMARK                            x       y       z     vdW  Elec       q    Type
REMARK                         _______ _______ _______ _____ _____    ______ ____
ROOT
ATOM      1 CL   UNL     1      31.086 -10.294 -18.999  0.00  0.00    -0.079 Cl
ATOM      2  C   UNL     1      32.742 -12.927 -22.261  0.00  0.00    +0.142 C 
ATOM      3  C   UNL     1      32.115 -11.733 -22.600  0.00  0.00    +0.075 C 
ATOM      4  C   UNL     1      31.599 -10.912 -21.597  0.00  0.00    +0.159 C 
ATOM      5  C   UNL     1      32.859 -13.309 -20.927  0.00  0.00    +0.038 C 
ATOM      6  C   UNL     1      31.715 -11.289 -20.260  0.00  0.00    +0.092 C 
ATOM      7  C   UNL     1      32.345 -12.487 -19.925  0.00  0.00    +0.018 C 
ENDROOT
BRANCH   2   8
ATOM      8  O   UNL     1      33.247 -13.733 -23.245  0.00  0.00    -0.469 OA
BRANCH   8   9
ATOM      9  C   UNL     1      34.536 -14.298 -23.007  0.00  0.00    +0.248 C 
BRANCH   9  13
ATOM     10  N   UNL     1      34.159 -16.127 -24.646  0.00  0.00    -0.228 N 
ATOM     11  N   UNL     1      34.225 -17.460 -24.845  0.00  0.00    -0.128 NA
ATOM     12  N   UNL     1      34.921 -19.228 -23.335  0.00  0.00    -0.192 NA
ATOM     13  C   UNL     1      34.545 -15.718 -23.399  0.00  0.00    +0.093 C 
ATOM     14  C   UNL     1      34.886 -16.870 -22.743  0.00  0.00    +0.060 C 
ATOM     15  C   UNL     1      34.674 -17.931 -23.676  0.00  0.00    +0.050 C 
ATOM     16  C   UNL     1      35.343 -16.960 -21.437  0.00  0.00    +0.065 C 
ATOM     17  C   UNL     1      35.590 -18.297 -21.109  0.00  0.00    +0.001 C 
ATOM     18  C   UNL     1      35.374 -19.336 -22.046  0.00  0.00    +0.105 C 
ATOM     19  H   UNL     1      33.857 -15.500 -25.341  0.00  0.00    +0.175 HD
ENDBRANCH   9  13
ENDBRANCH   8   9
ENDBRANCH   2   8
BRANCH   4  20
ATOM     20  O   UNL     1      30.991  -9.745 -21.953  0.00  0.00    -0.452 OA
BRANCH  20  22
ATOM     21 CL   UNL     1      35.517  -7.851 -23.296  0.00  0.00    -0.082 Cl
ATOM     22  C   UNL     1      31.791  -8.629 -22.124  0.00  0.00    +0.147 C 
ATOM     23  C   UNL     1      31.273  -7.377 -21.845  0.00  0.00    +0.048 C 
ATOM     24  C   UNL     1      33.090  -8.794 -22.570  0.00  0.00    +0.049 C 
ATOM     25  C   UNL     1      32.080  -6.253 -22.018  0.00  0.00    +0.072 C 
ATOM     26  C   UNL     1      33.898  -7.670 -22.742  0.00  0.00    +0.061 C 
ATOM     27  C   UNL     1      33.393  -6.399 -22.467  0.00  0.00    +0.022 C 
BRANCH  25  29
ATOM     28  N   UNL     1      31.139  -3.892 -21.506  0.00  0.00    -0.191 NA
ATOM     29  C   UNL     1      31.562  -4.952 -21.736  0.00  0.00    +0.101 C 
ENDBRANCH  25  29
ENDBRANCH  20  22
ENDBRANCH   4  20
TORSDOF 6
ENDMDL
MODEL 8
REMARK VINA RESULT:     -10.4      7.725     12.512
REMARK  Name = 16045340
REMARK  6 active torsions:
REMARK  status: ('A' for Active; 'I' for Inactive)
REMARK    1  A    between atoms: C_2  and  O_8
REMARK    2  A    between atoms: C_4  and  O_20
REMARK    3  A    between atoms: O_8  and  C_9
REMARK    4  A    between atoms: C_9  and  C_13
REMARK    5  A    between atoms: O_20  and  C_22
REMARK    6  A    between atoms: C_25  and  C_29
REMARK                            x       y       z     vdW  Elec       q    Type
REMARK                         _______ _______ _______ _____ _____    ______ ____
ROOT
ATOM      1 CL   UNL     1      36.720 -22.833 -16.114  0.00  0.00    -0.079 Cl
ATOM      2  C   UNL     1      35.247 -20.721 -19.814  0.00  0.00    +0.142 C 
ATOM      3  C   UNL     1      34.555 -21.830 -19.341  0.00  0.00    +0.075 C 
ATOM      4  C   UNL     1      35.004 -22.490 -18.196  0.00  0.00    +0.159 C 
ATOM      5  C   UNL     1      36.385 -20.264 -19.154  0.00  0.00    +0.038 C 
ATOM      6  C   UNL     1      36.142 -22.036 -17.531  0.00  0.00    +0.092 C 
ATOM      7  C   UNL     1      36.833 -20.923 -18.010  0.00  0.00    +0.018 C 
ENDROOT
BRANCH   2   8
ATOM      8  O   UNL     1      34.807 -20.074 -20.937  0.00  0.00    -0.469 OA
BRANCH   8   9
ATOM      9  C   UNL     1      35.613 -18.994 -21.409  0.00  0.00    +0.248 C 
BRANCH   9  13
ATOM     10  N   UNL     1      34.598 -19.241 -23.663  0.00  0.00    -0.228 N 
ATOM     11  N   UNL     1      34.101 -18.576 -24.726  0.00  0.00    -0.128 NA
ATOM     12  N   UNL     1      33.872 -16.191 -25.105  0.00  0.00    -0.192 NA
ATOM     13  C   UNL     1      35.040 -18.438 -22.646  0.00  0.00    +0.093 C 
ATOM     14  C   UNL     1      34.811 -17.162 -23.084  0.00  0.00    +0.060 C 
ATOM     15  C   UNL     1      34.226 -17.290 -24.380  0.00  0.00    +0.050 C 
ATOM     16  C   UNL     1      35.098 -15.998 -22.387  0.00  0.00    +0.065 C 
ATOM     17  C   UNL     1      34.727 -14.884 -23.147  0.00  0.00    +0.001 C 
ATOM     18  C   UNL     1      34.149 -15.029 -24.431  0.00  0.00    +0.105 C 
ATOM     19  H   UNL     1      34.641 -20.222 -23.622  0.00  0.00    +0.175 HD
ENDBRANCH   9  13
ENDBRANCH   8   9
ENDBRANCH   2   8
BRANCH   4  20
ATOM     20  O   UNL     1      34.308 -23.574 -17.749  0.00  0.00    -0.452 OA
BRANCH  20  22
ATOM     21 CL   UNL     1      33.593 -23.567 -12.713  0.00  0.00    -0.082 Cl
ATOM     22  C   UNL     1      33.440 -23.387 -16.689  0.00  0.00    +0.147 C 
ATOM     23  C   UNL     1      32.125 -23.040 -16.945  0.00  0.00    +0.048 C 
ATOM     24  C   UNL     1      33.908 -23.554 -15.397  0.00  0.00    +0.049 C 
ATOM     25  C   UNL     1      31.250 -22.853 -15.875  0.00  0.00    +0.072 C 
ATOM     26  C   UNL     1      33.033 -23.366 -14.327  0.00  0.00    +0.061 C 
ATOM     27  C   UNL     1      31.704 -23.015 -14.566  0.00  0.00    +0.022 C 
BRANCH  25  29
ATOM     28  N   UNL     1      28.781 -22.200 -16.321  0.00  0.00    -0.191 NA
ATOM     29  C   UNL     1      29.890 -22.493 -16.121  0.00  0.00    +0.101 C 
ENDBRANCH  25  29
ENDBRANCH  20  22
ENDBRANCH   4  20
TORSDOF 6
ENDMDL
MODEL 9
REMARK VINA RESULT:     -10.4     10.110     15.004
REMARK  Name = 16045340
REMARK  6 active torsions:
REMARK  status: ('A' for Active; 'I' for Inactive)
REMARK    1  A    between atoms: C_2  and  O_8
REMARK    2  A    between atoms: C_4  and  O_20
REMARK    3  A    between atoms: O_8  and  C_9
REMARK    4  A    between atoms: C_9  and  C_13
REMARK    5  A    between atoms: O_20  and  C_22
REMARK    6  A    between atoms: C_25  and  C_29
REMARK                            x       y       z     vdW  Elec       q    Type
REMARK                         _______ _______ _______ _____ _____    ______ ____
ROOT
ATOM      1 CL   UNL     1      30.838 -24.001 -14.119  0.00  0.00    -0.079 Cl
ATOM      2  C   UNL     1      34.127 -22.897 -16.998  0.00  0.00    +0.142 C 
ATOM      3  C   UNL     1      34.435 -23.636 -15.860  0.00  0.00    +0.075 C 
ATOM      4  C   UNL     1      33.423 -23.982 -14.963  0.00  0.00    +0.159 C 
ATOM      5  C   UNL     1      32.816 -22.502 -17.249  0.00  0.00    +0.038 C 
ATOM      6  C   UNL     1      32.109 -23.588 -15.210  0.00  0.00    +0.092 C 
ATOM      7  C   UNL     1      31.805 -22.848 -16.353  0.00  0.00    +0.018 C 
ENDROOT
BRANCH   2   8
ATOM      8  O   UNL     1      35.119 -22.558 -17.876  0.00  0.00    -0.469 OA
BRANCH   8   9
ATOM      9  C   UNL     1      34.704 -22.117 -19.169  0.00  0.00    +0.248 C 
BRANCH   9  13
ATOM     10  N   UNL     1      36.599 -20.537 -18.879  0.00  0.00    -0.228 N 
ATOM     11  N   UNL     1      37.226 -19.460 -19.397  0.00  0.00    -0.128 NA
ATOM     12  N   UNL     1      36.712 -18.165 -21.383  0.00  0.00    -0.192 NA
ATOM     13  C   UNL     1      35.507 -20.956 -19.589  0.00  0.00    +0.093 C 
ATOM     14  C   UNL     1      35.421 -20.087 -20.643  0.00  0.00    +0.060 C 
ATOM     15  C   UNL     1      36.508 -19.173 -20.488  0.00  0.00    +0.050 C 
ATOM     16  C   UNL     1      34.463 -20.113 -21.644  0.00  0.00    +0.065 C 
ATOM     17  C   UNL     1      34.691 -19.073 -22.551  0.00  0.00    +0.001 C 
ATOM     18  C   UNL     1      35.773 -18.175 -22.382  0.00  0.00    +0.105 C 
ATOM     19  H   UNL     1      36.903 -20.985 -18.057  0.00  0.00    +0.175 HD
ENDBRANCH   9  13
ENDBRANCH   8   9
ENDBRANCH   2   8
BRANCH   4  20
ATOM     20  O   UNL     1      33.748 -24.707 -13.856  0.00  0.00    -0.452 OA
BRANCH  20  22
ATOM     21 CL   UNL     1      37.017 -22.482 -10.654  0.00  0.00    -0.082 Cl
ATOM     22  C   UNL     1      35.045 -24.611 -13.383  0.00  0.00    +0.147 C 
ATOM     23  C   UNL     1      36.024 -25.424 -13.926  0.00  0.00    +0.048 C 
ATOM     24  C   UNL     1      35.331 -23.702 -12.380  0.00  0.00    +0.049 C 
ATOM     25  C   UNL     1      37.332 -25.326 -13.449  0.00  0.00    +0.072 C 
ATOM     26  C   UNL     1      36.638 -23.604 -11.903  0.00  0.00    +0.061 C 
ATOM     27  C   UNL     1      37.639 -24.417 -12.437  0.00  0.00    +0.022 C 
BRANCH  25  29
ATOM     28  N   UNL     1      39.188 -26.838 -14.444  0.00  0.00    -0.191 NA
ATOM     29  C   UNL     1      38.355 -26.159 -13.997  0.00  0.00    +0.101 C 
ENDBRANCH  25  29
ENDBRANCH  20  22
ENDBRANCH   4  20
TORSDOF 6
ENDMDL
