MODEL 1
REMARK VINA RESULT:     -11.6      0.000      0.000
REMARK  Name = 16755766
REMARK  5 active torsions:
REMARK  status: ('A' for Active; 'I' for Inactive)
REMARK    1  A    between atoms: N_1  and  C_25
REMARK    2  A    between atoms: N_3  and  C_12
REMARK    3  A    between atoms: C_5  and  C_20
REMARK    4  A    between atoms: C_25  and  C_26
REMARK    5  A    between atoms: C_26  and  C_29
REMARK                            x       y       z     vdW  Elec       q    Type
REMARK                         _______ _______ _______ _____ _____    ______ ____
ROOT
ATOM      1  N   UNL     1      32.603 -23.365 -15.676  0.00  0.00    -0.174 N 
ATOM      2  N   UNL     1      33.813 -23.585 -15.158  0.00  0.00    -0.096 NA
ATOM      3  N   UNL     1      34.346 -24.604 -13.055  0.00  0.00    -0.246 N 
ATOM      4  N   UNL     1      32.139 -24.307 -13.777  0.00  0.00    -0.319 NA
ATOM      5  C   UNL     1      31.613 -23.791 -14.863  0.00  0.00    +0.216 C 
ATOM      6  C   UNL     1      33.478 -24.161 -14.001  0.00  0.00    +0.165 C 
ATOM      7  H   UNL     1      33.909 -24.921 -12.232  0.00  0.00    +0.165 HD
ENDROOT
BRANCH   3  12
ATOM      8  F   UNL     1      40.509 -27.032 -13.918  0.00  0.00    -0.125 F 
ATOM      9  F   UNL     1      40.654 -25.238 -15.161  0.00  0.00    -0.125 F 
ATOM     10  O   UNL     1      38.614 -26.159 -14.803  0.00  0.00    -0.395 OA
ATOM     11  O   UNL     1      39.846 -25.044 -13.052  0.00  0.00    -0.395 OA
ATOM     12  C   UNL     1      35.765 -24.698 -13.026  0.00  0.00    +0.061 C 
ATOM     13  C   UNL     1      37.798 -25.494 -13.937  0.00  0.00    +0.183 C 
ATOM     14  C   UNL     1      36.421 -25.432 -14.009  0.00  0.00    +0.056 C 
ATOM     15  C   UNL     1      38.502 -24.857 -12.939  0.00  0.00    +0.182 C 
ATOM     16  C   UNL     1      36.473 -24.048 -12.006  0.00  0.00    +0.019 C 
ATOM     17  C   UNL     1      37.867 -24.125 -11.957  0.00  0.00    +0.042 C 
ATOM     18  C   UNL     1      39.894 -25.863 -14.228  0.00  0.00    +0.589 C 
ENDBRANCH   3  12
BRANCH   5  20
ATOM     19  N   UNL     1      27.482 -23.457 -15.746  0.00  0.00    -0.242 NA
ATOM     20  C   UNL     1      30.206 -23.677 -15.162  0.00  0.00    +0.050 C 
ATOM     21  C   UNL     1      29.497 -22.548 -14.767  0.00  0.00    +0.025 C 
ATOM     22  C   UNL     1      29.555 -24.696 -15.848  0.00  0.00    +0.025 C 
ATOM     23  C   UNL     1      28.148 -22.488 -15.080  0.00  0.00    +0.099 C 
ATOM     24  C   UNL     1      28.204 -24.539 -16.113  0.00  0.00    +0.099 C 
ENDBRANCH   5  20
BRANCH   1  25
ATOM     25  C   UNL     1      32.485 -22.720 -16.978  0.00  0.00    +0.129 C 
BRANCH  25  26
ATOM     26  C   UNL     1      33.764 -22.852 -17.804  0.00  0.00    +0.109 C 
BRANCH  26  29
ATOM     27  O   UNL     1      32.762 -21.710 -19.658  0.00  0.00    -0.275 OA
ATOM     28  N   UNL     1      35.012 -21.295 -19.278  0.00  0.00    -0.276 N 
ATOM     29  C   UNL     1      33.786 -21.906 -18.997  0.00  0.00    +0.228 C 
ATOM     30  C   UNL     1      36.212 -21.542 -18.482  0.00  0.00    +0.115 C 
ATOM     31  C   UNL     1      35.187 -20.367 -20.389  0.00  0.00    +0.115 C 
ENDBRANCH  26  29
ENDBRANCH  25  26
ENDBRANCH   1  25
TORSDOF 5
ENDMDL
MODEL 2
REMARK VINA RESULT:     -11.2      4.340      8.115
REMARK  Name = 16755766
REMARK  5 active torsions:
REMARK  status: ('A' for Active; 'I' for Inactive)
REMARK    1  A    between atoms: N_1  and  C_25
REMARK    2  A    between atoms: N_3  and  C_12
REMARK    3  A    between atoms: C_5  and  C_20
REMARK    4  A    between atoms: C_25  and  C_26
REMARK    5  A    between atoms: C_26  and  C_29
REMARK                            x       y       z     vdW  Elec       q    Type
REMARK                         _______ _______ _______ _____ _____    ______ ____
ROOT
ATOM      1  N   UNL     1      34.725 -23.552 -15.270  0.00  0.00    -0.174 N 
ATOM      2  N   UNL     1      34.662 -22.773 -16.352  0.00  0.00    -0.096 NA
ATOM      3  N   UNL     1      36.487 -21.826 -17.584  0.00  0.00    -0.246 N 
ATOM      4  N   UNL     1      36.818 -23.170 -15.697  0.00  0.00    -0.319 NA
ATOM      5  C   UNL     1      35.996 -23.788 -14.880  0.00  0.00    +0.216 C 
ATOM      6  C   UNL     1      35.963 -22.568 -16.574  0.00  0.00    +0.165 C 
ATOM      7  H   UNL     1      37.464 -21.719 -17.533  0.00  0.00    +0.165 HD
ENDROOT
BRANCH   3  12
ATOM      8  F   UNL     1      35.227 -17.177 -22.213  0.00  0.00    -0.125 F 
ATOM      9  F   UNL     1      35.876 -18.811 -23.515  0.00  0.00    -0.125 F 
ATOM     10  O   UNL     1      36.605 -18.767 -21.368  0.00  0.00    -0.395 OA
ATOM     11  O   UNL     1      34.304 -19.230 -21.936  0.00  0.00    -0.395 OA
ATOM     12  C   UNL     1      35.894 -21.173 -18.701  0.00  0.00    +0.061 C 
ATOM     13  C   UNL     1      36.032 -19.668 -20.521  0.00  0.00    +0.183 C 
ATOM     14  C   UNL     1      36.652 -20.277 -19.449  0.00  0.00    +0.056 C 
ATOM     15  C   UNL     1      34.720 -19.932 -20.846  0.00  0.00    +0.182 C 
ATOM     16  C   UNL     1      34.558 -21.447 -19.023  0.00  0.00    +0.019 C 
ATOM     17  C   UNL     1      33.956 -20.818 -20.115  0.00  0.00    +0.042 C 
ATOM     18  C   UNL     1      35.502 -18.505 -22.247  0.00  0.00    +0.589 C 
ENDBRANCH   3  12
BRANCH   5  20
ATOM     19  N   UNL     1      37.083 -26.141 -11.529  0.00  0.00    -0.242 NA
ATOM     20  C   UNL     1      36.364 -24.590 -13.740  0.00  0.00    +0.050 C 
ATOM     21  C   UNL     1      36.811 -25.895 -13.919  0.00  0.00    +0.025 C 
ATOM     22  C   UNL     1      36.277 -24.060 -12.457  0.00  0.00    +0.025 C 
ATOM     23  C   UNL     1      37.155 -26.622 -12.790  0.00  0.00    +0.099 C 
ATOM     24  C   UNL     1      36.645 -24.870 -11.395  0.00  0.00    +0.099 C 
ENDBRANCH   5  20
BRANCH   1  25
ATOM     25  C   UNL     1      33.491 -24.026 -14.654  0.00  0.00    +0.129 C 
BRANCH  25  26
ATOM     26  C   UNL     1      32.439 -22.923 -14.550  0.00  0.00    +0.109 C 
BRANCH  26  29
ATOM     27  O   UNL     1      31.136 -22.734 -16.553  0.00  0.00    -0.275 OA
ATOM     28  N   UNL     1      30.224 -24.003 -14.839  0.00  0.00    -0.276 N 
ATOM     29  C   UNL     1      31.216 -23.202 -15.414  0.00  0.00    +0.228 C 
ATOM     30  C   UNL     1      30.341 -24.547 -13.488  0.00  0.00    +0.115 C 
ATOM     31  C   UNL     1      28.998 -24.355 -15.544  0.00  0.00    +0.115 C 
ENDBRANCH  26  29
ENDBRANCH  25  26
ENDBRANCH   1  25
TORSDOF 5
ENDMDL
MODEL 3
REMARK VINA RESULT:     -10.4      4.492      8.200
REMARK  Name = 16755766
REMARK  5 active torsions:
REMARK  status: ('A' for Active; 'I' for Inactive)
REMARK    1  A    between atoms: N_1  and  C_25
REMARK    2  A    between atoms: N_3  and  C_12
REMARK    3  A    between atoms: C_5  and  C_20
REMARK    4  A    between atoms: C_25  and  C_26
REMARK    5  A    between atoms: C_26  and  C_29
REMARK                            x       y       z     vdW  Elec       q    Type
REMARK                         _______ _______ _______ _____ _____    ______ ____
ROOT
ATOM      1  N   UNL     1      34.736 -23.546 -14.562  0.00  0.00    -0.174 N 
ATOM      2  N   UNL     1      33.452 -23.644 -14.910  0.00  0.00    -0.096 NA
ATOM      3  N   UNL     1      31.621 -24.403 -13.563  0.00  0.00    -0.246 N 
ATOM      4  N   UNL     1      33.814 -24.314 -12.753  0.00  0.00    -0.319 NA
ATOM      5  C   UNL     1      34.954 -23.941 -13.289  0.00  0.00    +0.216 C 
ATOM      6  C   UNL     1      32.931 -24.116 -13.775  0.00  0.00    +0.165 C 
ATOM      7  H   UNL     1      31.442 -24.823 -12.691  0.00  0.00    +0.165 HD
ENDROOT
BRANCH   3  12
ATOM      8  F   UNL     1      25.697 -22.080 -15.597  0.00  0.00    -0.125 F 
ATOM      9  F   UNL     1      26.944 -21.378 -17.252  0.00  0.00    -0.125 F 
ATOM     10  O   UNL     1      27.908 -21.735 -15.231  0.00  0.00    -0.395 OA
ATOM     11  O   UNL     1      27.100 -23.546 -16.609  0.00  0.00    -0.395 OA
ATOM     12  C   UNL     1      30.457 -24.214 -14.361  0.00  0.00    +0.061 C 
ATOM     13  C   UNL     1      28.679 -22.853 -15.123  0.00  0.00    +0.183 C 
ATOM     14  C   UNL     1      29.803 -22.987 -14.334  0.00  0.00    +0.056 C 
ATOM     15  C   UNL     1      28.218 -23.885 -15.910  0.00  0.00    +0.182 C 
ATOM     16  C   UNL     1      29.996 -25.271 -15.157  0.00  0.00    +0.019 C 
ATOM     17  C   UNL     1      28.856 -25.108 -15.949  0.00  0.00    +0.042 C 
ATOM     18  C   UNL     1      26.923 -22.192 -16.168  0.00  0.00    +0.589 C 
ENDBRANCH   3  12
BRANCH   5  20
ATOM     19  N   UNL     1      38.746 -23.967 -11.398  0.00  0.00    -0.242 NA
ATOM     20  C   UNL     1      36.245 -23.948 -12.646  0.00  0.00    +0.050 C 
ATOM     21  C   UNL     1      36.523 -23.043 -11.627  0.00  0.00    +0.025 C 
ATOM     22  C   UNL     1      37.215 -24.862 -13.041  0.00  0.00    +0.025 C 
ATOM     23  C   UNL     1      37.778 -23.093 -11.041  0.00  0.00    +0.099 C 
ATOM     24  C   UNL     1      38.439 -24.830 -12.391  0.00  0.00    +0.099 C 
ENDBRANCH   5  20
BRANCH   1  25
ATOM     25  C   UNL     1      35.710 -23.064 -15.534  0.00  0.00    +0.129 C 
BRANCH  25  26
ATOM     26  C   UNL     1      35.060 -22.704 -16.870  0.00  0.00    +0.109 C 
BRANCH  26  29
ATOM     27  O   UNL     1      37.154 -21.687 -17.441  0.00  0.00    -0.275 OA
ATOM     28  N   UNL     1      35.392 -21.327 -18.906  0.00  0.00    -0.276 N 
ATOM     29  C   UNL     1      35.973 -21.864 -17.753  0.00  0.00    +0.228 C 
ATOM     30  C   UNL     1      33.991 -21.551 -19.256  0.00  0.00    +0.115 C 
ATOM     31  C   UNL     1      36.141 -20.502 -19.847  0.00  0.00    +0.115 C 
ENDBRANCH  26  29
ENDBRANCH  25  26
ENDBRANCH   1  25
TORSDOF 5
ENDMDL
MODEL 4
REMARK VINA RESULT:     -10.1      3.847      7.293
REMARK  Name = 16755766
REMARK  5 active torsions:
REMARK  status: ('A' for Active; 'I' for Inactive)
REMARK    1  A    between atoms: N_1  and  C_25
REMARK    2  A    between atoms: N_3  and  C_12
REMARK    3  A    between atoms: C_5  and  C_20
REMARK    4  A    between atoms: C_25  and  C_26
REMARK    5  A    between atoms: C_26  and  C_29
REMARK                            x       y       z     vdW  Elec       q    Type
REMARK                         _______ _______ _______ _____ _____    ______ ____
ROOT
ATOM      1  N   UNL     1      33.317 -23.399 -15.711  0.00  0.00    -0.174 N 
ATOM      2  N   UNL     1      33.897 -22.736 -16.713  0.00  0.00    -0.096 NA
ATOM      3  N   UNL     1      32.847 -21.795 -18.651  0.00  0.00    -0.246 N 
ATOM      4  N   UNL     1      31.637 -22.932 -17.002  0.00  0.00    -0.319 NA
ATOM      5  C   UNL     1      31.983 -23.517 -15.878  0.00  0.00    +0.216 C 
ATOM      6  C   UNL     1      32.832 -22.473 -17.473  0.00  0.00    +0.165 C 
ATOM      7  H   UNL     1      31.976 -21.775 -19.109  0.00  0.00    +0.165 HD
ENDROOT
BRANCH   3  12
ATOM      8  F   UNL     1      36.066 -18.550 -23.522  0.00  0.00    -0.125 F 
ATOM      9  F   UNL     1      36.063 -16.986 -21.993  0.00  0.00    -0.125 F 
ATOM     10  O   UNL     1      34.450 -18.578 -21.933  0.00  0.00    -0.395 OA
ATOM     11  O   UNL     1      36.759 -19.068 -21.426  0.00  0.00    -0.395 OA
ATOM     12  C   UNL     1      33.880 -21.109 -19.349  0.00  0.00    +0.061 C 
ATOM     13  C   UNL     1      34.579 -19.527 -20.964  0.00  0.00    +0.183 C 
ATOM     14  C   UNL     1      33.542 -20.165 -20.313  0.00  0.00    +0.056 C 
ATOM     15  C   UNL     1      35.896 -19.806 -20.675  0.00  0.00    +0.182 C 
ATOM     16  C   UNL     1      35.218 -21.400 -19.049  0.00  0.00    +0.019 C 
ATOM     17  C   UNL     1      36.248 -20.738 -19.721  0.00  0.00    +0.042 C 
ATOM     18  C   UNL     1      35.830 -18.305 -22.209  0.00  0.00    +0.589 C 
ENDBRANCH   3  12
BRANCH   5  20
ATOM     19  N   UNL     1      29.395 -25.495 -13.167  0.00  0.00    -0.242 NA
ATOM     20  C   UNL     1      31.100 -24.189 -14.956  0.00  0.00    +0.050 C 
ATOM     21  C   UNL     1      30.078 -25.002 -15.434  0.00  0.00    +0.025 C 
ATOM     22  C   UNL     1      31.271 -24.028 -13.586  0.00  0.00    +0.025 C 
ATOM     23  C   UNL     1      29.261 -25.627 -14.506  0.00  0.00    +0.099 C 
ATOM     24  C   UNL     1      30.399 -24.697 -12.741  0.00  0.00    +0.099 C 
ENDBRANCH   5  20
BRANCH   1  25
ATOM     25  C   UNL     1      34.136 -23.905 -14.615  0.00  0.00    +0.129 C 
BRANCH  25  26
ATOM     26  C   UNL     1      35.600 -24.071 -15.019  0.00  0.00    +0.109 C 
BRANCH  26  29
ATOM     27  O   UNL     1      36.046 -26.424 -15.123  0.00  0.00    -0.275 OA
ATOM     28  N   UNL     1      36.924 -25.281 -13.306  0.00  0.00    -0.276 N 
ATOM     29  C   UNL     1      36.203 -25.370 -14.501  0.00  0.00    +0.228 C 
ATOM     30  C   UNL     1      37.097 -24.021 -12.586  0.00  0.00    +0.115 C 
ATOM     31  C   UNL     1      37.556 -26.440 -12.687  0.00  0.00    +0.115 C 
ENDBRANCH  26  29
ENDBRANCH  25  26
ENDBRANCH   1  25
TORSDOF 5
ENDMDL
MODEL 5
REMARK VINA RESULT:     -10.0      9.562     13.880
REMARK  Name = 16755766
REMARK  5 active torsions:
REMARK  status: ('A' for Active; 'I' for Inactive)
REMARK    1  A    between atoms: N_1  and  C_25
REMARK    2  A    between atoms: N_3  and  C_12
REMARK    3  A    between atoms: C_5  and  C_20
REMARK    4  A    between atoms: C_25  and  C_26
REMARK    5  A    between atoms: C_26  and  C_29
REMARK                            x       y       z     vdW  Elec       q    Type
REMARK                         _______ _______ _______ _____ _____    ______ ____
ROOT
ATOM      1  N   UNL     1      32.525 -12.229 -22.823  0.00  0.00    -0.174 N 
ATOM      2  N   UNL     1      32.902 -13.509 -22.812  0.00  0.00    -0.096 NA
ATOM      3  N   UNL     1      34.823 -14.481 -23.866  0.00  0.00    -0.246 N 
ATOM      4  N   UNL     1      34.339 -12.196 -24.014  0.00  0.00    -0.319 NA
ATOM      5  C   UNL     1      33.371 -11.451 -23.531  0.00  0.00    +0.216 C 
ATOM      6  C   UNL     1      34.012 -13.437 -23.551  0.00  0.00    +0.165 C 
ATOM      7  H   UNL     1      35.546 -14.247 -24.491  0.00  0.00    +0.165 HD
ENDROOT
BRANCH   3  12
ATOM      8  F   UNL     1      36.433 -20.066 -20.575  0.00  0.00    -0.125 F 
ATOM      9  F   UNL     1      34.330 -19.904 -19.996  0.00  0.00    -0.125 F 
ATOM     10  O   UNL     1      35.449 -18.024 -20.588  0.00  0.00    -0.395 OA
ATOM     11  O   UNL     1      34.876 -19.737 -22.189  0.00  0.00    -0.395 OA
ATOM     12  C   UNL     1      34.827 -15.846 -23.465  0.00  0.00    +0.061 C 
ATOM     13  C   UNL     1      35.152 -17.510 -21.815  0.00  0.00    +0.183 C 
ATOM     14  C   UNL     1      35.162 -16.172 -22.155  0.00  0.00    +0.056 C 
ATOM     15  C   UNL     1      34.825 -18.488 -22.728  0.00  0.00    +0.182 C 
ATOM     16  C   UNL     1      34.493 -16.834 -24.401  0.00  0.00    +0.019 C 
ATOM     17  C   UNL     1      34.490 -18.181 -24.030  0.00  0.00    +0.042 C 
ATOM     18  C   UNL     1      35.270 -19.423 -20.847  0.00  0.00    +0.589 C 
ENDBRANCH   3  12
BRANCH   5  20
ATOM     19  N   UNL     1      32.898  -7.275 -24.076  0.00  0.00    -0.242 NA
ATOM     20  C   UNL     1      33.210 -10.029 -23.719  0.00  0.00    +0.050 C 
ATOM     21  C   UNL     1      32.124  -9.538 -24.435  0.00  0.00    +0.025 C 
ATOM     22  C   UNL     1      34.140  -9.146 -23.181  0.00  0.00    +0.025 C 
ATOM     23  C   UNL     1      32.015  -8.164 -24.583  0.00  0.00    +0.099 C 
ATOM     24  C   UNL     1      33.940  -7.791 -23.387  0.00  0.00    +0.099 C 
ENDBRANCH   5  20
BRANCH   1  25
ATOM     25  C   UNL     1      31.309 -11.832 -22.122  0.00  0.00    +0.129 C 
BRANCH  25  26
ATOM     26  C   UNL     1      31.580 -11.455 -20.667  0.00  0.00    +0.109 C 
BRANCH  26  29
ATOM     27  O   UNL     1      31.209  -9.190 -21.355  0.00  0.00    -0.275 OA
ATOM     28  N   UNL     1      31.669  -9.528 -19.107  0.00  0.00    -0.276 N 
ATOM     29  C   UNL     1      31.466  -9.957 -20.423  0.00  0.00    +0.228 C 
ATOM     30  C   UNL     1      31.972 -10.454 -18.019  0.00  0.00    +0.115 C 
ATOM     31  C   UNL     1      31.593  -8.124 -18.722  0.00  0.00    +0.115 C 
ENDBRANCH  26  29
ENDBRANCH  25  26
ENDBRANCH   1  25
TORSDOF 5
ENDMDL
MODEL 6
REMARK VINA RESULT:      -9.3     11.039     15.006
REMARK  Name = 16755766
REMARK  5 active torsions:
REMARK  status: ('A' for Active; 'I' for Inactive)
REMARK    1  A    between atoms: N_1  and  C_25
REMARK    2  A    between atoms: N_3  and  C_12
REMARK    3  A    between atoms: C_5  and  C_20
REMARK    4  A    between atoms: C_25  and  C_26
REMARK    5  A    between atoms: C_26  and  C_29
REMARK                            x       y       z     vdW  Elec       q    Type
REMARK                         _______ _______ _______ _____ _____    ______ ____
ROOT
ATOM      1  N   UNL     1      32.216 -10.438 -22.053  0.00  0.00    -0.174 N 
ATOM      2  N   UNL     1      32.711 -11.659 -21.843  0.00  0.00    -0.096 NA
ATOM      3  N   UNL     1      33.952 -13.022 -23.375  0.00  0.00    -0.246 N 
ATOM      4  N   UNL     1      33.166 -10.894 -23.950  0.00  0.00    -0.319 NA
ATOM      5  C   UNL     1      32.483  -9.983 -23.296  0.00  0.00    +0.216 C 
ATOM      6  C   UNL     1      33.280 -11.894 -23.028  0.00  0.00    +0.165 C 
ATOM      7  H   UNL     1      34.227 -13.047 -24.320  0.00  0.00    +0.165 HD
ENDROOT
BRANCH   3  12
ATOM      8  F   UNL     1      34.930 -19.436 -21.783  0.00  0.00    -0.125 F 
ATOM      9  F   UNL     1      37.005 -18.745 -21.774  0.00  0.00    -0.125 F 
ATOM     10  O   UNL     1      35.486 -17.629 -23.034  0.00  0.00    -0.395 OA
ATOM     11  O   UNL     1      35.455 -17.561 -20.620  0.00  0.00    -0.395 OA
ATOM     12  C   UNL     1      34.334 -14.176 -22.635  0.00  0.00    +0.061 C 
ATOM     13  C   UNL     1      35.081 -16.420 -22.553  0.00  0.00    +0.183 C 
ATOM     14  C   UNL     1      34.720 -15.326 -23.315  0.00  0.00    +0.056 C 
ATOM     15  C   UNL     1      35.064 -16.381 -21.177  0.00  0.00    +0.182 C 
ATOM     16  C   UNL     1      34.313 -14.128 -21.234  0.00  0.00    +0.019 C 
ATOM     17  C   UNL     1      34.684 -15.248 -20.487  0.00  0.00    +0.042 C 
ATOM     18  C   UNL     1      35.715 -18.329 -21.803  0.00  0.00    +0.589 C 
ENDBRANCH   3  12
BRANCH   5  20
ATOM     19  N   UNL     1      31.264  -6.206 -24.780  0.00  0.00    -0.242 NA
ATOM     20  C   UNL     1      32.067  -8.698 -23.802  0.00  0.00    +0.050 C 
ATOM     21  C   UNL     1      30.759  -8.264 -23.616  0.00  0.00    +0.025 C 
ATOM     22  C   UNL     1      32.973  -7.888 -24.477  0.00  0.00    +0.025 C 
ATOM     23  C   UNL     1      30.411  -7.021 -24.120  0.00  0.00    +0.099 C 
ATOM     24  C   UNL     1      32.526  -6.662 -24.942  0.00  0.00    +0.099 C 
ENDBRANCH   5  20
BRANCH   1  25
ATOM     25  C   UNL     1      31.476  -9.770 -20.989  0.00  0.00    +0.129 C 
BRANCH  25  26
ATOM     26  C   UNL     1      32.344  -8.772 -20.223  0.00  0.00    +0.109 C 
BRANCH  26  29
ATOM     27  O   UNL     1      30.819  -6.925 -20.122  0.00  0.00    -0.275 OA
ATOM     28  N   UNL     1      32.874  -6.520 -21.119  0.00  0.00    -0.276 N 
ATOM     29  C   UNL     1      31.930  -7.328 -20.476  0.00  0.00    +0.228 C 
ATOM     30  C   UNL     1      34.184  -7.019 -21.531  0.00  0.00    +0.115 C 
ATOM     31  C   UNL     1      32.620  -5.119 -21.430  0.00  0.00    +0.115 C 
ENDBRANCH  26  29
ENDBRANCH  25  26
ENDBRANCH   1  25
TORSDOF 5
ENDMDL
MODEL 7
REMARK VINA RESULT:      -9.2      5.022      9.232
REMARK  Name = 16755766
REMARK  5 active torsions:
REMARK  status: ('A' for Active; 'I' for Inactive)
REMARK    1  A    between atoms: N_1  and  C_25
REMARK    2  A    between atoms: N_3  and  C_12
REMARK    3  A    between atoms: C_5  and  C_20
REMARK    4  A    between atoms: C_25  and  C_26
REMARK    5  A    between atoms: C_26  and  C_29
REMARK                            x       y       z     vdW  Elec       q    Type
REMARK                         _______ _______ _______ _____ _____    ______ ____
ROOT
ATOM      1  N   UNL     1      34.639 -22.419 -17.588  0.00  0.00    -0.174 N 
ATOM      2  N   UNL     1      34.578 -21.590 -18.631  0.00  0.00    -0.096 NA
ATOM      3  N   UNL     1      36.308 -20.161 -19.474  0.00  0.00    -0.246 N 
ATOM      4  N   UNL     1      36.625 -21.543 -17.612  0.00  0.00    -0.319 NA
ATOM      5  C   UNL     1      35.846 -22.394 -16.983  0.00  0.00    +0.216 C 
ATOM      6  C   UNL     1      35.812 -21.080 -18.605  0.00  0.00    +0.165 C 
ATOM      7  H   UNL     1      37.210 -19.842 -19.242  0.00  0.00    +0.165 HD
ENDROOT
BRANCH   3  12
ATOM      8  F   UNL     1      33.768 -15.580 -23.619  0.00  0.00    -0.125 F 
ATOM      9  F   UNL     1      35.616 -16.048 -24.692  0.00  0.00    -0.125 F 
ATOM     10  O   UNL     1      35.535 -16.391 -22.453  0.00  0.00    -0.395 OA
ATOM     11  O   UNL     1      34.289 -17.753 -24.009  0.00  0.00    -0.395 OA
ATOM     12  C   UNL     1      35.774 -19.570 -20.653  0.00  0.00    +0.061 C 
ATOM     13  C   UNL     1      35.441 -17.688 -22.047  0.00  0.00    +0.183 C 
ATOM     14  C   UNL     1      35.979 -18.215 -20.891  0.00  0.00    +0.056 C 
ATOM     15  C   UNL     1      34.730 -18.465 -22.936  0.00  0.00    +0.182 C 
ATOM     16  C   UNL     1      35.052 -20.368 -21.550  0.00  0.00    +0.019 C 
ATOM     17  C   UNL     1      34.519 -19.810 -22.715  0.00  0.00    +0.042 C 
ATOM     18  C   UNL     1      34.804 -16.454 -23.685  0.00  0.00    +0.589 C 
ENDBRANCH   3  12
BRANCH   5  20
ATOM     19  N   UNL     1      36.882 -24.710 -13.589  0.00  0.00    -0.242 NA
ATOM     20  C   UNL     1      36.197 -23.182 -15.827  0.00  0.00    +0.050 C 
ATOM     21  C   UNL     1      35.430 -24.287 -15.476  0.00  0.00    +0.025 C 
ATOM     22  C   UNL     1      37.306 -22.840 -15.061  0.00  0.00    +0.025 C 
ATOM     23  C   UNL     1      35.811 -25.012 -14.358  0.00  0.00    +0.099 C 
ATOM     24  C   UNL     1      37.603 -23.629 -13.961  0.00  0.00    +0.099 C 
ENDBRANCH   5  20
BRANCH   1  25
ATOM     25  C   UNL     1      33.467 -23.206 -17.225  0.00  0.00    +0.129 C 
BRANCH  25  26
ATOM     26  C   UNL     1      32.742 -22.632 -16.008  0.00  0.00    +0.109 C 
BRANCH  26  29
ATOM     27  O   UNL     1      30.498 -22.423 -16.826  0.00  0.00    -0.275 OA
ATOM     28  N   UNL     1      30.824 -23.880 -15.051  0.00  0.00    -0.276 N 
ATOM     29  C   UNL     1      31.254 -22.958 -16.011  0.00  0.00    +0.228 C 
ATOM     30  C   UNL     1      31.737 -24.502 -14.095  0.00  0.00    +0.115 C 
ATOM     31  C   UNL     1      29.430 -24.289 -14.931  0.00  0.00    +0.115 C 
ENDBRANCH  26  29
ENDBRANCH  25  26
ENDBRANCH   1  25
TORSDOF 5
ENDMDL
MODEL 8
REMARK VINA RESULT:      -9.1      4.331      8.433
REMARK  Name = 16755766
REMARK  5 active torsions:
REMARK  status: ('A' for Active; 'I' for Inactive)
REMARK    1  A    between atoms: N_1  and  C_25
REMARK    2  A    between atoms: N_3  and  C_12
REMARK    3  A    between atoms: C_5  and  C_20
REMARK    4  A    between atoms: C_25  and  C_26
REMARK    5  A    between atoms: C_26  and  C_29
REMARK                            x       y       z     vdW  Elec       q    Type
REMARK                         _______ _______ _______ _____ _____    ______ ____
ROOT
ATOM      1  N   UNL     1      34.708 -22.850 -16.934  0.00  0.00    -0.174 N 
ATOM      2  N   UNL     1      34.894 -22.034 -17.973  0.00  0.00    -0.096 NA
ATOM      3  N   UNL     1      36.779 -20.619 -18.407  0.00  0.00    -0.246 N 
ATOM      4  N   UNL     1      36.649 -21.979 -16.507  0.00  0.00    -0.319 NA
ATOM      5  C   UNL     1      35.742 -22.820 -16.066  0.00  0.00    +0.216 C 
ATOM      6  C   UNL     1      36.090 -21.527 -17.667  0.00  0.00    +0.165 C 
ATOM      7  H   UNL     1      37.604 -20.299 -17.977  0.00  0.00    +0.165 HD
ENDROOT
BRANCH   3  12
ATOM      8  F   UNL     1      34.399 -19.816 -24.597  0.00  0.00    -0.125 F 
ATOM      9  F   UNL     1      33.497 -18.069 -23.638  0.00  0.00    -0.125 F 
ATOM     10  O   UNL     1      34.041 -19.861 -22.359  0.00  0.00    -0.395 OA
ATOM     11  O   UNL     1      35.716 -18.442 -23.365  0.00  0.00    -0.395 OA
ATOM     12  C   UNL     1      36.536 -20.042 -19.685  0.00  0.00    +0.061 C 
ATOM     13  C   UNL     1      35.146 -19.723 -21.573  0.00  0.00    +0.183 C 
ATOM     14  C   UNL     1      35.335 -20.305 -20.335  0.00  0.00    +0.056 C 
ATOM     15  C   UNL     1      36.101 -18.913 -22.147  0.00  0.00    +0.182 C 
ATOM     16  C   UNL     1      37.514 -19.220 -20.262  0.00  0.00    +0.019 C 
ATOM     17  C   UNL     1      37.297 -18.643 -21.515  0.00  0.00    +0.042 C 
ATOM     18  C   UNL     1      34.422 -19.049 -23.479  0.00  0.00    +0.589 C 
ENDBRANCH   3  12
BRANCH   5  20
ATOM     19  N   UNL     1      35.943 -25.099 -12.500  0.00  0.00    -0.242 NA
ATOM     20  C   UNL     1      35.811 -23.594 -14.851  0.00  0.00    +0.050 C 
ATOM     21  C   UNL     1      35.269 -23.095 -13.672  0.00  0.00    +0.025 C 
ATOM     22  C   UNL     1      36.419 -24.845 -14.856  0.00  0.00    +0.025 C 
ATOM     23  C   UNL     1      35.360 -23.879 -12.534  0.00  0.00    +0.099 C 
ATOM     24  C   UNL     1      36.459 -25.550 -13.664  0.00  0.00    +0.099 C 
ENDBRANCH   5  20
BRANCH   1  25
ATOM     25  C   UNL     1      33.480 -23.631 -16.845  0.00  0.00    +0.129 C 
BRANCH  25  26
ATOM     26  C   UNL     1      32.398 -22.912 -16.039  0.00  0.00    +0.109 C 
BRANCH  26  29
ATOM     27  O   UNL     1      32.258 -24.573 -14.316  0.00  0.00    -0.275 OA
ATOM     28  N   UNL     1      30.250 -23.840 -15.217  0.00  0.00    -0.276 N 
ATOM     29  C   UNL     1      31.644 -23.853 -15.109  0.00  0.00    +0.228 C 
ATOM     30  C   UNL     1      29.544 -22.979 -16.163  0.00  0.00    +0.115 C 
ATOM     31  C   UNL     1      29.395 -24.687 -14.394  0.00  0.00    +0.115 C 
ENDBRANCH  26  29
ENDBRANCH  25  26
ENDBRANCH   1  25
TORSDOF 5
ENDMDL
MODEL 9
REMARK VINA RESULT:      -9.0      4.715      8.813
REMARK  Name = 16755766
REMARK  5 active torsions:
REMARK  status: ('A' for Active; 'I' for Inactive)
REMARK    1  A    between atoms: N_1  and  C_25
REMARK    2  A    between atoms: N_3  and  C_12
REMARK    3  A    between atoms: C_5  and  C_20
REMARK    4  A    between atoms: C_25  and  C_26
REMARK    5  A    between atoms: C_26  and  C_29
REMARK                            x       y       z     vdW  Elec       q    Type
REMARK                         _______ _______ _______ _____ _____    ______ ____
ROOT
ATOM      1  N   UNL     1      34.504 -23.827 -14.232  0.00  0.00    -0.174 N 
ATOM      2  N   UNL     1      33.253 -23.862 -14.696  0.00  0.00    -0.096 NA
ATOM      3  N   UNL     1      31.248 -24.345 -13.475  0.00  0.00    -0.246 N 
ATOM      4  N   UNL     1      33.358 -24.341 -12.462  0.00  0.00    -0.319 NA
ATOM      5  C   UNL     1      34.569 -24.110 -12.913  0.00  0.00    +0.216 C 
ATOM      6  C   UNL     1      32.593 -24.179 -13.581  0.00  0.00    +0.165 C 
ATOM      7  H   UNL     1      30.955 -24.662 -12.591  0.00  0.00    +0.165 HD
ENDROOT
BRANCH   3  12
ATOM      8  F   UNL     1      25.570 -22.036 -16.131  0.00  0.00    -0.125 F 
ATOM      9  F   UNL     1      26.991 -21.277 -17.611  0.00  0.00    -0.125 F 
ATOM     10  O   UNL     1      27.717 -21.676 -15.500  0.00  0.00    -0.395 OA
ATOM     11  O   UNL     1      27.103 -23.459 -17.008  0.00  0.00    -0.395 OA
ATOM     12  C   UNL     1      30.183 -24.148 -14.399  0.00  0.00    +0.061 C 
ATOM     13  C   UNL     1      28.487 -22.788 -15.330  0.00  0.00    +0.183 C 
ATOM     14  C   UNL     1      29.513 -22.930 -14.418  0.00  0.00    +0.056 C 
ATOM     15  C   UNL     1      28.136 -23.804 -16.191  0.00  0.00    +0.182 C 
ATOM     16  C   UNL     1      29.833 -25.189 -15.270  0.00  0.00    +0.019 C 
ATOM     17  C   UNL     1      28.792 -25.018 -16.185  0.00  0.00    +0.042 C 
ATOM     18  C   UNL     1      26.855 -22.120 -16.557  0.00  0.00    +0.589 C 
ENDBRANCH   3  12
BRANCH   5  20
ATOM     19  N   UNL     1      38.159 -24.228 -10.666  0.00  0.00    -0.242 NA
ATOM     20  C   UNL     1      35.790 -24.151 -12.147  0.00  0.00    +0.050 C 
ATOM     21  C   UNL     1      36.258 -25.359 -11.642  0.00  0.00    +0.025 C 
ATOM     22  C   UNL     1      36.505 -22.982 -11.912  0.00  0.00    +0.025 C 
ATOM     23  C   UNL     1      37.437 -25.344 -10.914  0.00  0.00    +0.099 C 
ATOM     24  C   UNL     1      37.673 -23.073 -11.172  0.00  0.00    +0.099 C 
ENDBRANCH   5  20
BRANCH   1  25
ATOM     25  C   UNL     1      35.600 -23.518 -15.142  0.00  0.00    +0.129 C 
BRANCH  25  26
ATOM     26  C   UNL     1      36.519 -24.719 -15.364  0.00  0.00    +0.109 C 
BRANCH  26  29
ATOM     27  O   UNL     1      38.426 -23.348 -14.882  0.00  0.00    -0.275 OA
ATOM     28  N   UNL     1      38.595 -25.592 -14.323  0.00  0.00    -0.276 N 
ATOM     29  C   UNL     1      37.928 -24.476 -14.840  0.00  0.00    +0.228 C 
ATOM     30  C   UNL     1      37.986 -26.920 -14.283  0.00  0.00    +0.115 C 
ATOM     31  C   UNL     1      39.948 -25.515 -13.787  0.00  0.00    +0.115 C 
ENDBRANCH  26  29
ENDBRANCH  25  26
ENDBRANCH   1  25
TORSDOF 5
ENDMDL
